MODEL 1
REMARK VINA RESULT:     -10.6      0.000      0.000
REMARK  Name = 44257965
REMARK  7 active torsions:
REMARK  status: ('A' for Active; 'I' for Inactive)
REMARK    1  A    between atoms: O_5  and  C_20
REMARK    2  A    between atoms: O_5  and  C_27
REMARK    3  A    between atoms: O_12  and  C_40
REMARK    4  A    between atoms: C_17  and  C_19
REMARK    5  A    between atoms: C_18  and  C_20
REMARK    6  A    between atoms: C_27  and  C_30
REMARK    7  A    between atoms: C_29  and  C_31
REMARK                            x       y       z     vdW  Elec       q    Type
REMARK                         _______ _______ _______ _____ _____    ______ ____
ROOT
ATOM      1  O   UNL     1     106.022 125.928 142.360  0.00  0.00    +0.000 OA
ATOM      2  O   UNL     1     108.347 126.548 141.783  0.00  0.00    +0.000 OA
ATOM      3  O   UNL     1     107.424 125.712 140.701  0.00  0.00    +0.000 OA
ATOM      4  O   UNL     1     107.721 126.971 143.250  0.00  0.00    +0.000 OA
ATOM      5  C   UNL     1     107.572 126.342 141.975  0.00  0.00    +0.000 C 
ATOM      6  C   UNL     1     107.110 125.923 141.434  0.00  0.00    +0.000 C 
ATOM      7  C   UNL     1     107.258 126.552 142.708  0.00  0.00    +0.000 C 
ATOM      8  C   UNL     1     106.335 125.716 141.626  0.00  0.00    +0.000 C 
ATOM      9  C   UNL     1     106.483 126.345 142.901  0.00  0.00    +0.000 C 
ENDROOT
BRANCH   8  14
ATOM     10  O   UNL     1     105.256 126.518 140.669  0.00  0.00    +0.000 OA
ATOM     11  O   UNL     1     106.491 124.078 141.502  0.00  0.00    +0.000 OA
ATOM     12  O   UNL     1     104.475 124.015 139.444  0.00  0.00    +0.000 OA
ATOM     13  O   UNL     1     104.243 126.529 139.642  0.00  0.00    +0.000 OA
ATOM     14  C   UNL     1     105.874 125.299 141.086  0.00  0.00    +0.000 A 
ATOM     15  C   UNL     1     105.334 125.699 140.607  0.00  0.00    +0.000 A 
ATOM     16  C   UNL     1     105.951 124.480 141.023  0.00  0.00    +0.000 A 
ATOM     17  C   UNL     1     104.873 125.281 140.066  0.00  0.00    +0.000 A 
ATOM     18  C   UNL     1     105.490 124.061 140.482  0.00  0.00    +0.000 A 
ATOM     19  C   UNL     1     104.951 124.462 140.004  0.00  0.00    +0.000 A 
ATOM     20  C   UNL     1     104.314 125.710 139.573  0.00  0.00    +0.000 A 
ATOM     21  C   UNL     1     103.831 125.280 139.008  0.00  0.00    +0.000 A 
ATOM     22  C   UNL     1     103.912 124.427 138.943  0.00  0.00    +0.000 A 
BRANCH  22  25
ATOM     23  O   UNL     1     101.389 123.337 138.160  0.00  0.00    +0.000 OA
ATOM     24  O   UNL     1     102.073 122.741 136.781  0.00  0.00    +0.000 OA
ATOM     25  C   UNL     1     103.452 124.005 138.402  0.00  0.00    +0.000 A 
ATOM     26  C   UNL     1     102.650 123.882 138.551  0.00  0.00    +0.000 A 
ATOM     27  C   UNL     1     103.795 123.708 137.714  0.00  0.00    +0.000 A 
ATOM     28  C   UNL     1     102.191 123.460 138.010  0.00  0.00    +0.000 A 
ATOM     29  C   UNL     1     103.336 123.286 137.173  0.00  0.00    +0.000 A 
ATOM     30  C   UNL     1     102.533 123.162 137.321  0.00  0.00    +0.000 A 
ENDBRANCH  22  25
ENDBRANCH   8  14
BRANCH   9  31
ATOM     31  C   UNL     1     106.170 126.557 143.635  0.00  0.00    +0.000 C 
BRANCH  31  32
ATOM     32  O   UNL     1     106.013 125.977 144.199  0.00  0.00    +0.000 OA
BRANCH  32  34
ATOM     33  O   UNL     1     105.114 126.845 144.892  0.00  0.00    +0.000 OA
ATOM     34  C   UNL     1     105.584 126.167 144.878  0.00  0.00    +0.000 C 
BRANCH  34  35
ATOM     35  C   UNL     1     105.624 125.680 145.541  0.00  0.00    +0.000 A 
ATOM     36  C   UNL     1     105.200 124.972 145.561  0.00  0.00    +0.000 A 
ATOM     37  C   UNL     1     106.089 125.899 146.187  0.00  0.00    +0.000 A 
ATOM     38  C   UNL     1     105.240 124.485 146.225  0.00  0.00    +0.000 A 
ATOM     39  C   UNL     1     106.130 125.411 146.851  0.00  0.00    +0.000 A 
ATOM     40  C   UNL     1     105.705 124.704 146.870  0.00  0.00    +0.000 A 
BRANCH  40  41
ATOM     41  O   UNL     1     105.746 124.216 147.535  0.00  0.00    +0.000 OA
ATOM     42  C   UNL     1     105.932 124.538 148.271  0.00  0.00    +0.000 C 
ENDBRANCH  40  41
ENDBRANCH  34  35
ENDBRANCH  32  34
ENDBRANCH  31  32
ENDBRANCH   9  31
TORSDOF 7
ENDMDL
MODEL 2
REMARK VINA RESULT:     -10.5      4.072      5.960
REMARK  Name = 44257965
REMARK  7 active torsions:
REMARK  status: ('A' for Active; 'I' for Inactive)
REMARK    1  A    between atoms: O_5  and  C_20
REMARK    2  A    between atoms: O_5  and  C_27
REMARK    3  A    between atoms: O_12  and  C_40
REMARK    4  A    between atoms: C_17  and  C_19
REMARK    5  A    between atoms: C_18  and  C_20
REMARK    6  A    between atoms: C_27  and  C_30
REMARK    7  A    between atoms: C_29  and  C_31
REMARK                            x       y       z     vdW  Elec       q    Type
REMARK                         _______ _______ _______ _____ _____    ______ ____
ROOT
ATOM      1  O   UNL     1     105.615 125.419 147.323  0.00  0.00    +0.000 OA
ATOM      2  O   UNL     1     107.712 124.636 148.380  0.00  0.00    +0.000 OA
ATOM      3  O   UNL     1     107.772 125.679 147.102  0.00  0.00    +0.000 OA
ATOM      4  O   UNL     1     106.255 124.115 148.952  0.00  0.00    +0.000 OA
ATOM      5  C   UNL     1     107.013 124.897 148.027  0.00  0.00    +0.000 C 
ATOM      6  C   UNL     1     107.043 125.419 147.388  0.00  0.00    +0.000 C 
ATOM      7  C   UNL     1     106.284 124.637 148.313  0.00  0.00    +0.000 C 
ATOM      8  C   UNL     1     106.344 125.680 147.036  0.00  0.00    +0.000 C 
ATOM      9  C   UNL     1     105.586 124.898 147.961  0.00  0.00    +0.000 C 
ENDROOT
BRANCH   8  14
ATOM     10  O   UNL     1     106.390 125.095 145.494  0.00  0.00    +0.000 OA
ATOM     11  O   UNL     1     106.358 127.308 147.301  0.00  0.00    +0.000 OA
ATOM     12  O   UNL     1     106.465 127.798 144.464  0.00  0.00    +0.000 OA
ATOM     13  O   UNL     1     106.443 125.298 144.067  0.00  0.00    +0.000 OA
ATOM     14  C   UNL     1     106.374 126.201 146.398  0.00  0.00    +0.000 A 
ATOM     15  C   UNL     1     106.397 125.909 145.626  0.00  0.00    +0.000 A 
ATOM     16  C   UNL     1     106.381 127.015 146.531  0.00  0.00    +0.000 A 
ATOM     17  C   UNL     1     106.427 126.430 144.988  0.00  0.00    +0.000 A 
ATOM     18  C   UNL     1     106.411 127.538 145.892  0.00  0.00    +0.000 A 
ATOM     19  C   UNL     1     106.434 127.245 145.121  0.00  0.00    +0.000 A 
ATOM     20  C   UNL     1     106.450 126.113 144.190  0.00  0.00    +0.000 A 
ATOM     21  C   UNL     1     106.481 126.652 143.521  0.00  0.00    +0.000 A 
ATOM     22  C   UNL     1     106.489 127.500 143.659  0.00  0.00    +0.000 A 
BRANCH  22  25
ATOM     23  O   UNL     1     105.199 128.824 141.480  0.00  0.00    +0.000 OA
ATOM     24  O   UNL     1     106.610 129.599 141.115  0.00  0.00    +0.000 OA
ATOM     25  C   UNL     1     106.519 128.024 143.023  0.00  0.00    +0.000 A 
ATOM     26  C   UNL     1     105.844 128.162 142.569  0.00  0.00    +0.000 A 
ATOM     27  C   UNL     1     107.225 128.411 142.841  0.00  0.00    +0.000 A 
ATOM     28  C   UNL     1     105.875 128.687 141.933  0.00  0.00    +0.000 A 
ATOM     29  C   UNL     1     107.255 128.936 142.205  0.00  0.00    +0.000 A 
ATOM     30  C   UNL     1     106.580 129.074 141.751  0.00  0.00    +0.000 A 
ENDBRANCH  22  25
ENDBRANCH   8  14
BRANCH   9  31
ATOM     31  C   UNL     1     104.857 124.637 148.248  0.00  0.00    +0.000 C 
BRANCH  31  32
ATOM     32  O   UNL     1     104.216 124.557 147.735  0.00  0.00    +0.000 OA
BRANCH  32  34
ATOM     33  O   UNL     1     103.353 124.307 148.846  0.00  0.00    +0.000 OA
ATOM     34  C   UNL     1     103.474 124.351 148.031  0.00  0.00    +0.000 C 
BRANCH  34  35
ATOM     35  C   UNL     1     102.853 124.191 147.513  0.00  0.00    +0.000 A 
ATOM     36  C   UNL     1     102.203 124.698 147.476  0.00  0.00    +0.000 A 
ATOM     37  C   UNL     1     102.881 123.522 147.031  0.00  0.00    +0.000 A 
ATOM     38  C   UNL     1     101.583 124.537 146.958  0.00  0.00    +0.000 A 
ATOM     39  C   UNL     1     102.259 123.360 146.512  0.00  0.00    +0.000 A 
ATOM     40  C   UNL     1     101.611 123.869 146.476  0.00  0.00    +0.000 A 
BRANCH  40  41
ATOM     41  O   UNL     1     100.989 123.707 145.957  0.00  0.00    +0.000 OA
ATOM     42  C   UNL     1     101.084 123.142 145.364  0.00  0.00    +0.000 C 
ENDBRANCH  40  41
ENDBRANCH  34  35
ENDBRANCH  32  34
ENDBRANCH  31  32
ENDBRANCH   9  31
TORSDOF 7
ENDMDL
MODEL 3
REMARK VINA RESULT:     -10.4      3.663      5.052
REMARK  Name = 44257965
REMARK  7 active torsions:
REMARK  status: ('A' for Active; 'I' for Inactive)
REMARK    1  A    between atoms: O_5  and  C_20
REMARK    2  A    between atoms: O_5  and  C_27
REMARK    3  A    between atoms: O_12  and  C_40
REMARK    4  A    between atoms: C_17  and  C_19
REMARK    5  A    between atoms: C_18  and  C_20
REMARK    6  A    between atoms: C_27  and  C_30
REMARK    7  A    between atoms: C_29  and  C_31
REMARK                            x       y       z     vdW  Elec       q    Type
REMARK                         _______ _______ _______ _____ _____    ______ ____
ROOT
ATOM      1  O   UNL     1     105.470 126.963 142.839  0.00  0.00    +0.000 OA
ATOM      2  O   UNL     1     107.551 126.987 141.499  0.00  0.00    +0.000 OA
ATOM      3  O   UNL     1     106.544 128.294 141.483  0.00  0.00    +0.000 OA
ATOM      4  O   UNL     1     107.171 125.664 142.409  0.00  0.00    +0.000 OA
ATOM      5  C   UNL     1     106.857 126.979 141.946  0.00  0.00    +0.000 C 
ATOM      6  C   UNL     1     106.353 127.633 141.938  0.00  0.00    +0.000 C 
ATOM      7  C   UNL     1     106.667 126.318 142.401  0.00  0.00    +0.000 C 
ATOM      8  C   UNL     1     105.660 127.625 142.385  0.00  0.00    +0.000 C 
ATOM      9  C   UNL     1     105.973 126.310 142.848  0.00  0.00    +0.000 C 
ENDROOT
BRANCH   8  14
ATOM     10  O   UNL     1     104.517 127.772 141.203  0.00  0.00    +0.000 OA
ATOM     11  O   UNL     1     105.795 128.785 143.550  0.00  0.00    +0.000 OA
ATOM     12  O   UNL     1     103.631 130.271 142.362  0.00  0.00    +0.000 OA
ATOM     13  O   UNL     1     103.430 128.485 140.579  0.00  0.00    +0.000 OA
ATOM     14  C   UNL     1     105.157 128.278 142.376  0.00  0.00    +0.000 A 
ATOM     15  C   UNL     1     104.585 128.352 141.786  0.00  0.00    +0.000 A 
ATOM     16  C   UNL     1     105.225 128.858 142.959  0.00  0.00    +0.000 A 
ATOM     17  C   UNL     1     104.082 129.005 141.778  0.00  0.00    +0.000 A 
ATOM     18  C   UNL     1     104.721 129.512 142.951  0.00  0.00    +0.000 A 
ATOM     19  C   UNL     1     104.150 129.585 142.360  0.00  0.00    +0.000 A 
ATOM     20  C   UNL     1     103.491 129.070 141.157  0.00  0.00    +0.000 A 
ATOM     21  C   UNL     1     102.964 129.748 141.143  0.00  0.00    +0.000 A 
ATOM     22  C   UNL     1     103.035 130.353 141.750  0.00  0.00    +0.000 A 
BRANCH  22  25
ATOM     23  O   UNL     1     102.566 133.108 141.151  0.00  0.00    +0.000 OA
ATOM     24  O   UNL     1     101.026 132.972 141.731  0.00  0.00    +0.000 OA
ATOM     25  C   UNL     1     102.533 131.008 141.745  0.00  0.00    +0.000 A 
ATOM     26  C   UNL     1     102.800 131.731 141.450  0.00  0.00    +0.000 A 
ATOM     27  C   UNL     1     101.763 130.940 142.035  0.00  0.00    +0.000 A 
ATOM     28  C   UNL     1     102.298 132.385 141.446  0.00  0.00    +0.000 A 
ATOM     29  C   UNL     1     101.261 131.594 142.030  0.00  0.00    +0.000 A 
ATOM     30  C   UNL     1     101.528 132.317 141.736  0.00  0.00    +0.000 A 
ENDBRANCH  22  25
ENDBRANCH   8  14
BRANCH   9  31
ATOM     31  C   UNL     1     105.784 125.647 143.302  0.00  0.00    +0.000 C 
BRANCH  31  32
ATOM     32  O   UNL     1     105.635 125.729 144.109  0.00  0.00    +0.000 OA
BRANCH  32  34
ATOM     33  O   UNL     1     105.182 124.376 144.185  0.00  0.00    +0.000 OA
ATOM     34  C   UNL     1     105.423 125.071 144.559  0.00  0.00    +0.000 C 
BRANCH  34  35
ATOM     35  C   UNL     1     105.453 125.107 145.382  0.00  0.00    +0.000 A 
ATOM     36  C   UNL     1     106.170 124.993 145.776  0.00  0.00    +0.000 A 
ATOM     37  C   UNL     1     104.766 125.257 145.814  0.00  0.00    +0.000 A 
ATOM     38  C   UNL     1     106.199 125.029 146.599  0.00  0.00    +0.000 A 
ATOM     39  C   UNL     1     104.795 125.293 146.638  0.00  0.00    +0.000 A 
ATOM     40  C   UNL     1     105.512 125.179 147.030  0.00  0.00    +0.000 A 
BRANCH  40  41
ATOM     41  O   UNL     1     105.541 125.215 147.854  0.00  0.00    +0.000 OA
ATOM     42  C   UNL     1     106.010 124.681 148.273  0.00  0.00    +0.000 C 
ENDBRANCH  40  41
ENDBRANCH  34  35
ENDBRANCH  32  34
ENDBRANCH  31  32
ENDBRANCH   9  31
TORSDOF 7
ENDMDL
MODEL 4
REMARK VINA RESULT:     -10.3      1.866      4.323
REMARK  Name = 44257965
REMARK  7 active torsions:
REMARK  status: ('A' for Active; 'I' for Inactive)
REMARK    1  A    between atoms: O_5  and  C_20
REMARK    2  A    between atoms: O_5  and  C_27
REMARK    3  A    between atoms: O_12  and  C_40
REMARK    4  A    between atoms: C_17  and  C_19
REMARK    5  A    between atoms: C_18  and  C_20
REMARK    6  A    between atoms: C_27  and  C_30
REMARK    7  A    between atoms: C_29  and  C_31
REMARK                            x       y       z     vdW  Elec       q    Type
REMARK                         _______ _______ _______ _____ _____    ______ ____
ROOT
ATOM      1  O   UNL     1     106.920 126.441 141.435  0.00  0.00    +0.000 OA
ATOM      2  O   UNL     1     106.364 126.101 143.823  0.00  0.00    +0.000 OA
ATOM      3  O   UNL     1     105.354 125.528 142.651  0.00  0.00    +0.000 OA
ATOM      4  O   UNL     1     107.745 126.901 143.403  0.00  0.00    +0.000 OA
ATOM      5  C   UNL     1     106.549 126.214 143.027  0.00  0.00    +0.000 C 
ATOM      6  C   UNL     1     106.044 125.928 142.440  0.00  0.00    +0.000 C 
ATOM      7  C   UNL     1     107.240 126.614 142.816  0.00  0.00    +0.000 C 
ATOM      8  C   UNL     1     106.229 126.041 141.644  0.00  0.00    +0.000 C 
ATOM      9  C   UNL     1     107.425 126.727 142.020  0.00  0.00    +0.000 C 
ENDROOT
BRANCH   8  14
ATOM     10  O   UNL     1     106.399 124.495 141.093  0.00  0.00    +0.000 OA
ATOM     11  O   UNL     1     105.050 127.013 141.024  0.00  0.00    +0.000 OA
ATOM     12  O   UNL     1     104.181 124.894 139.277  0.00  0.00    +0.000 OA
ATOM     13  O   UNL     1     105.995 123.408 140.234  0.00  0.00    +0.000 OA
ATOM     14  C   UNL     1     105.725 125.754 141.059  0.00  0.00    +0.000 A 
ATOM     15  C   UNL     1     105.809 124.981 140.783  0.00  0.00    +0.000 A 
ATOM     16  C   UNL     1     105.135 126.240 140.749  0.00  0.00    +0.000 A 
ATOM     17  C   UNL     1     105.304 124.694 140.197  0.00  0.00    +0.000 A 
ATOM     18  C   UNL     1     104.629 125.954 140.163  0.00  0.00    +0.000 A 
ATOM     19  C   UNL     1     104.714 125.181 139.887  0.00  0.00    +0.000 A 
ATOM     20  C   UNL     1     105.402 123.887 139.918  0.00  0.00    +0.000 A 
ATOM     21  C   UNL     1     104.879 123.583 139.308  0.00  0.00    +0.000 A 
ATOM     22  C   UNL     1     104.265 124.090 138.986  0.00  0.00    +0.000 A 
BRANCH  22  25
ATOM     23  O   UNL     1     101.622 123.498 138.073  0.00  0.00    +0.000 OA
ATOM     24  O   UNL     1     102.237 122.956 136.641  0.00  0.00    +0.000 OA
ATOM     25  C   UNL     1     103.757 123.806 138.399  0.00  0.00    +0.000 A 
ATOM     26  C   UNL     1     102.943 123.793 138.529  0.00  0.00    +0.000 A 
ATOM     27  C   UNL     1     104.066 123.536 137.684  0.00  0.00    +0.000 A 
ATOM     28  C   UNL     1     102.436 123.510 137.943  0.00  0.00    +0.000 A 
ATOM     29  C   UNL     1     103.559 123.252 137.097  0.00  0.00    +0.000 A 
ATOM     30  C   UNL     1     102.745 123.239 137.227  0.00  0.00    +0.000 A 
ENDBRANCH  22  25
ENDBRANCH   8  14
BRANCH   9  31
ATOM     31  C   UNL     1     108.116 127.127 141.811  0.00  0.00    +0.000 C 
BRANCH  31  32
ATOM     32  O   UNL     1     108.603 126.827 141.218  0.00  0.00    +0.000 OA
BRANCH  32  34
ATOM     33  O   UNL     1     109.203 128.109 141.021  0.00  0.00    +0.000 OA
ATOM     34  C   UNL     1     109.210 127.292 140.906  0.00  0.00    +0.000 C 
BRANCH  34  35
ATOM     35  C   UNL     1     109.822 126.940 140.481  0.00  0.00    +0.000 A 
ATOM     36  C   UNL     1     110.580 126.898 140.805  0.00  0.00    +0.000 A 
ATOM     37  C   UNL     1     109.678 126.631 139.730  0.00  0.00    +0.000 A 
ATOM     38  C   UNL     1     111.192 126.547 140.380  0.00  0.00    +0.000 A 
ATOM     39  C   UNL     1     110.291 126.279 139.303  0.00  0.00    +0.000 A 
ATOM     40  C   UNL     1     111.048 126.237 139.629  0.00  0.00    +0.000 A 
BRANCH  40  41
ATOM     41  O   UNL     1     111.661 125.885 139.202  0.00  0.00    +0.000 OA
ATOM     42  C   UNL     1     112.397 126.256 139.157  0.00  0.00    +0.000 C 
ENDBRANCH  40  41
ENDBRANCH  34  35
ENDBRANCH  32  34
ENDBRANCH  31  32
ENDBRANCH   9  31
TORSDOF 7
ENDMDL
MODEL 5
REMARK VINA RESULT:     -10.2      2.363      6.335
REMARK  Name = 44257965
REMARK  7 active torsions:
REMARK  status: ('A' for Active; 'I' for Inactive)
REMARK    1  A    between atoms: O_5  and  C_20
REMARK    2  A    between atoms: O_5  and  C_27
REMARK    3  A    between atoms: O_12  and  C_40
REMARK    4  A    between atoms: C_17  and  C_19
REMARK    5  A    between atoms: C_18  and  C_20
REMARK    6  A    between atoms: C_27  and  C_30
REMARK    7  A    between atoms: C_29  and  C_31
REMARK                            x       y       z     vdW  Elec       q    Type
REMARK                         _______ _______ _______ _____ _____    ______ ____
ROOT
ATOM      1  O   UNL     1     105.881 125.199 141.708  0.00  0.00    +0.000 OA
ATOM      2  O   UNL     1     108.338 125.184 141.408  0.00  0.00    +0.000 OA
ATOM      3  O   UNL     1     107.605 126.462 142.152  0.00  0.00    +0.000 OA
ATOM      4  O   UNL     1     107.432 123.916 140.864  0.00  0.00    +0.000 OA
ATOM      5  C   UNL     1     107.519 125.189 141.508  0.00  0.00    +0.000 C 
ATOM      6  C   UNL     1     107.152 125.828 141.880  0.00  0.00    +0.000 C 
ATOM      7  C   UNL     1     107.066 124.555 141.236  0.00  0.00    +0.000 C 
ATOM      8  C   UNL     1     106.333 125.833 141.980  0.00  0.00    +0.000 C 
ATOM      9  C   UNL     1     106.247 124.560 141.336  0.00  0.00    +0.000 C 
ENDROOT
BRANCH   8  14
ATOM     10  O   UNL     1     105.643 127.029 141.077  0.00  0.00    +0.000 OA
ATOM     11  O   UNL     1     106.291 125.915 143.627  0.00  0.00    +0.000 OA
ATOM     12  O   UNL     1     104.856 128.410 143.495  0.00  0.00    +0.000 OA
ATOM     13  O   UNL     1     104.926 128.276 140.968  0.00  0.00    +0.000 OA
ATOM     14  C   UNL     1     105.967 126.472 142.352  0.00  0.00    +0.000 A 
ATOM     15  C   UNL     1     105.622 127.070 141.901  0.00  0.00    +0.000 A 
ATOM     16  C   UNL     1     105.946 126.512 143.175  0.00  0.00    +0.000 A 
ATOM     17  C   UNL     1     105.256 127.709 142.272  0.00  0.00    +0.000 A 
ATOM     18  C   UNL     1     105.580 127.152 143.548  0.00  0.00    +0.000 A 
ATOM     19  C   UNL     1     105.235 127.749 143.096  0.00  0.00    +0.000 A 
ATOM     20  C   UNL     1     104.900 128.325 141.791  0.00  0.00    +0.000 A 
ATOM     21  C   UNL     1     104.517 128.993 142.173  0.00  0.00    +0.000 A 
ATOM     22  C   UNL     1     104.495 129.036 143.030  0.00  0.00    +0.000 A 
BRANCH  22  25
ATOM     23  O   UNL     1     104.313 130.829 145.248  0.00  0.00    +0.000 OA
ATOM     24  O   UNL     1     103.033 131.586 144.531  0.00  0.00    +0.000 OA
ATOM     25  C   UNL     1     104.130 129.673 143.406  0.00  0.00    +0.000 A 
ATOM     26  C   UNL     1     104.404 129.933 144.140  0.00  0.00    +0.000 A 
ATOM     27  C   UNL     1     103.490 130.051 143.047  0.00  0.00    +0.000 A 
ATOM     28  C   UNL     1     104.038 130.570 144.514  0.00  0.00    +0.000 A 
ATOM     29  C   UNL     1     103.124 130.688 143.422  0.00  0.00    +0.000 A 
ATOM     30  C   UNL     1     103.398 130.948 144.156  0.00  0.00    +0.000 A 
ENDBRANCH  22  25
ENDBRANCH   8  14
BRANCH   9  31
ATOM     31  C   UNL     1     105.795 123.926 141.064  0.00  0.00    +0.000 C 
BRANCH  31  32
ATOM     32  O   UNL     1     105.239 124.041 140.467  0.00  0.00    +0.000 OA
BRANCH  32  34
ATOM     33  O   UNL     1     104.700 122.739 140.702  0.00  0.00    +0.000 OA
ATOM     34  C   UNL     1     104.734 123.426 140.246  0.00  0.00    +0.000 C 
BRANCH  34  35
ATOM     35  C   UNL     1     104.265 123.498 139.572  0.00  0.00    +0.000 A 
ATOM     36  C   UNL     1     103.443 123.522 139.641  0.00  0.00    +0.000 A 
ATOM     37  C   UNL     1     104.618 123.545 138.828  0.00  0.00    +0.000 A 
ATOM     38  C   UNL     1     102.974 123.594 138.967  0.00  0.00    +0.000 A 
ATOM     39  C   UNL     1     104.148 123.617 138.153  0.00  0.00    +0.000 A 
ATOM     40  C   UNL     1     103.327 123.641 138.223  0.00  0.00    +0.000 A 
BRANCH  40  41
ATOM     41  O   UNL     1     102.857 123.713 137.547  0.00  0.00    +0.000 OA
ATOM     42  C   UNL     1     102.955 123.186 136.920  0.00  0.00    +0.000 C 
ENDBRANCH  40  41
ENDBRANCH  34  35
ENDBRANCH  32  34
ENDBRANCH  31  32
ENDBRANCH   9  31
TORSDOF 7
ENDMDL
MODEL 6
REMARK VINA RESULT:     -10.1      3.707      6.246
REMARK  Name = 44257965
REMARK  7 active torsions:
REMARK  status: ('A' for Active; 'I' for Inactive)
REMARK    1  A    between atoms: O_5  and  C_20
REMARK    2  A    between atoms: O_5  and  C_27
REMARK    3  A    between atoms: O_12  and  C_40
REMARK    4  A    between atoms: C_17  and  C_19
REMARK    5  A    between atoms: C_18  and  C_20
REMARK    6  A    between atoms: C_27  and  C_30
REMARK    7  A    between atoms: C_29  and  C_31
REMARK                            x       y       z     vdW  Elec       q    Type
REMARK                         _______ _______ _______ _____ _____    ______ ____
ROOT
ATOM      1  O   UNL     1     108.221 126.338 141.235  0.00  0.00    +0.000 OA
ATOM      2  O   UNL     1     108.581 128.564 142.255  0.00  0.00    +0.000 OA
ATOM      3  O   UNL     1     109.723 127.922 141.253  0.00  0.00    +0.000 OA
ATOM      4  O   UNL     1     107.199 127.722 142.578  0.00  0.00    +0.000 OA
ATOM      5  C   UNL     1     108.461 127.822 141.915  0.00  0.00    +0.000 C 
ATOM      6  C   UNL     1     109.033 127.500 141.413  0.00  0.00    +0.000 C 
ATOM      7  C   UNL     1     107.771 127.401 142.076  0.00  0.00    +0.000 C 
ATOM      8  C   UNL     1     108.913 126.758 141.073  0.00  0.00    +0.000 C 
ATOM      9  C   UNL     1     107.651 126.659 141.736  0.00  0.00    +0.000 C 
ENDROOT
BRANCH   8  14
ATOM     10  O   UNL     1     108.779 126.950 139.440  0.00  0.00    +0.000 OA
ATOM     11  O   UNL     1     110.189 125.924 141.705  0.00  0.00    +0.000 OA
ATOM     12  O   UNL     1     111.228 125.456 139.058  0.00  0.00    +0.000 OA
ATOM     13  O   UNL     1     109.266 126.738 138.099  0.00  0.00    +0.000 OA
ATOM     14  C   UNL     1     109.484 126.438 140.573  0.00  0.00    +0.000 A 
ATOM     15  C   UNL     1     109.417 126.533 139.756  0.00  0.00    +0.000 A 
ATOM     16  C   UNL     1     110.122 126.020 140.888  0.00  0.00    +0.000 A 
ATOM     17  C   UNL     1     109.988 126.212 139.255  0.00  0.00    +0.000 A 
ATOM     18  C   UNL     1     110.693 125.699 140.387  0.00  0.00    +0.000 A 
ATOM     19  C   UNL     1     110.626 125.795 139.570  0.00  0.00    +0.000 A 
ATOM     20  C   UNL     1     109.908 126.319 138.405  0.00  0.00    +0.000 A 
ATOM     21  C   UNL     1     110.499 125.987 137.879  0.00  0.00    +0.000 A 
ATOM     22  C   UNL     1     111.164 125.553 138.207  0.00  0.00    +0.000 A 
BRANCH  22  25
ATOM     23  O   UNL     1     112.105 123.394 136.587  0.00  0.00    +0.000 OA
ATOM     24  O   UNL     1     113.458 124.264 136.214  0.00  0.00    +0.000 OA
ATOM     25  C   UNL     1     111.737 125.230 137.709  0.00  0.00    +0.000 A 
ATOM     26  C   UNL     1     111.635 124.473 137.397  0.00  0.00    +0.000 A 
ATOM     27  C   UNL     1     112.413 125.665 137.523  0.00  0.00    +0.000 A 
ATOM     28  C   UNL     1     112.208 124.151 136.899  0.00  0.00    +0.000 A 
ATOM     29  C   UNL     1     112.987 125.343 137.025  0.00  0.00    +0.000 A 
ATOM     30  C   UNL     1     112.884 124.586 136.713  0.00  0.00    +0.000 A 
ENDBRANCH  22  25
ENDBRANCH   8  14
BRANCH   9  31
ATOM     31  C   UNL     1     106.959 126.238 141.898  0.00  0.00    +0.000 C 
BRANCH  31  32
ATOM     32  O   UNL     1     106.668 125.696 141.349  0.00  0.00    +0.000 OA
BRANCH  32  34
ATOM     33  O   UNL     1     105.599 125.368 142.239  0.00  0.00    +0.000 OA
ATOM     34  C   UNL     1     105.979 125.273 141.513  0.00  0.00    +0.000 C 
BRANCH  34  35
ATOM     35  C   UNL     1     105.669 124.755 140.951  0.00  0.00    +0.000 A 
ATOM     36  C   UNL     1     105.249 125.049 140.305  0.00  0.00    +0.000 A 
ATOM     37  C   UNL     1     105.779 123.942 141.035  0.00  0.00    +0.000 A 
ATOM     38  C   UNL     1     104.939 124.532 139.743  0.00  0.00    +0.000 A 
ATOM     39  C   UNL     1     105.469 123.423 140.472  0.00  0.00    +0.000 A 
ATOM     40  C   UNL     1     105.049 123.718 139.827  0.00  0.00    +0.000 A 
BRANCH  40  41
ATOM     41  O   UNL     1     104.739 123.200 139.264  0.00  0.00    +0.000 OA
ATOM     42  C   UNL     1     104.462 123.491 138.544  0.00  0.00    +0.000 C 
ENDBRANCH  40  41
ENDBRANCH  34  35
ENDBRANCH  32  34
ENDBRANCH  31  32
ENDBRANCH   9  31
TORSDOF 7
ENDMDL
MODEL 7
REMARK VINA RESULT:     -10.1      8.558     10.250
REMARK  Name = 44257965
REMARK  7 active torsions:
REMARK  status: ('A' for Active; 'I' for Inactive)
REMARK    1  A    between atoms: O_5  and  C_20
REMARK    2  A    between atoms: O_5  and  C_27
REMARK    3  A    between atoms: O_12  and  C_40
REMARK    4  A    between atoms: C_17  and  C_19
REMARK    5  A    between atoms: C_18  and  C_20
REMARK    6  A    between atoms: C_27  and  C_30
REMARK    7  A    between atoms: C_29  and  C_31
REMARK                            x       y       z     vdW  Elec       q    Type
REMARK                         _______ _______ _______ _____ _____    ______ ____
ROOT
ATOM      1  O   UNL     1     112.514 130.421 136.864  0.00  0.00    +0.000 OA
ATOM      2  O   UNL     1     114.712 131.257 136.093  0.00  0.00    +0.000 OA
ATOM      3  O   UNL     1     114.390 129.639 136.067  0.00  0.00    +0.000 OA
ATOM      4  O   UNL     1     113.569 132.317 136.632  0.00  0.00    +0.000 OA
ATOM      5  C   UNL     1     113.979 130.978 136.350  0.00  0.00    +0.000 C 
ATOM      6  C   UNL     1     113.818 130.168 136.337  0.00  0.00    +0.000 C 
ATOM      7  C   UNL     1     113.408 131.508 136.620  0.00  0.00    +0.000 C 
ATOM      8  C   UNL     1     113.085 129.890 136.594  0.00  0.00    +0.000 C 
ATOM      9  C   UNL     1     112.675 131.229 136.877  0.00  0.00    +0.000 C 
ENDROOT
BRANCH   8  14
ATOM     10  O   UNL     1     113.331 128.978 137.947  0.00  0.00    +0.000 OA
ATOM     11  O   UNL     1     112.517 129.184 135.215  0.00  0.00    +0.000 OA
ATOM     12  O   UNL     1     112.430 126.621 136.529  0.00  0.00    +0.000 OA
ATOM     13  O   UNL     1     113.303 127.713 138.640  0.00  0.00    +0.000 OA
ATOM     14  C   UNL     1     112.924 129.081 136.581  0.00  0.00    +0.000 A 
ATOM     15  C   UNL     1     113.047 128.625 137.257  0.00  0.00    +0.000 A 
ATOM     16  C   UNL     1     112.640 128.728 135.892  0.00  0.00    +0.000 A 
ATOM     17  C   UNL     1     112.886 127.816 137.244  0.00  0.00    +0.000 A 
ATOM     18  C   UNL     1     112.479 127.919 135.878  0.00  0.00    +0.000 A 
ATOM     19  C   UNL     1     112.602 127.463 136.555  0.00  0.00    +0.000 A 
ATOM     20  C   UNL     1     113.018 127.351 137.956  0.00  0.00    +0.000 A 
ATOM     21  C   UNL     1     112.852 126.509 137.948  0.00  0.00    +0.000 A 
ATOM     22  C   UNL     1     112.557 126.141 137.230  0.00  0.00    +0.000 A 
BRANCH  22  25
ATOM     23  O   UNL     1     113.422 123.451 136.803  0.00  0.00    +0.000 OA
ATOM     24  O   UNL     1     111.906 122.906 137.164  0.00  0.00    +0.000 OA
ATOM     25  C   UNL     1     112.394 125.332 137.213  0.00  0.00    +0.000 A 
ATOM     26  C   UNL     1     112.989 124.795 137.016  0.00  0.00    +0.000 A 
ATOM     27  C   UNL     1     111.637 125.060 137.394  0.00  0.00    +0.000 A 
ATOM     28  C   UNL     1     112.826 123.987 137.000  0.00  0.00    +0.000 A 
ATOM     29  C   UNL     1     111.474 124.252 137.378  0.00  0.00    +0.000 A 
ATOM     30  C   UNL     1     112.068 123.715 137.181  0.00  0.00    +0.000 A 
ENDBRANCH  22  25
ENDBRANCH   8  14
BRANCH   9  31
ATOM     31  C   UNL     1     112.104 131.760 137.147  0.00  0.00    +0.000 C 
BRANCH  31  32
ATOM     32  O   UNL     1     111.305 131.619 136.997  0.00  0.00    +0.000 OA
BRANCH  32  34
ATOM     33  O   UNL     1     110.946 132.658 137.910  0.00  0.00    +0.000 OA
ATOM     34  C   UNL     1     110.729 132.092 137.351  0.00  0.00    +0.000 C 
BRANCH  34  35
ATOM     35  C   UNL     1     109.936 131.999 137.146  0.00  0.00    +0.000 A 
ATOM     36  C   UNL     1     109.425 131.587 137.646  0.00  0.00    +0.000 A 
ATOM     37  C   UNL     1     109.652 132.318 136.440  0.00  0.00    +0.000 A 
ATOM     38  C   UNL     1     108.632 131.494 137.441  0.00  0.00    +0.000 A 
ATOM     39  C   UNL     1     108.858 132.225 136.234  0.00  0.00    +0.000 A 
ATOM     40  C   UNL     1     108.349 131.813 136.735  0.00  0.00    +0.000 A 
BRANCH  40  41
ATOM     41  O   UNL     1     107.554 131.720 136.529  0.00  0.00    +0.000 OA
ATOM     42  C   UNL     1     107.350 131.529 135.753  0.00  0.00    +0.000 C 
ENDBRANCH  40  41
ENDBRANCH  34  35
ENDBRANCH  32  34
ENDBRANCH  31  32
ENDBRANCH   9  31
TORSDOF 7
ENDMDL
MODEL 8
REMARK VINA RESULT:     -10.1      7.393     10.371
REMARK  Name = 44257965
REMARK  7 active torsions:
REMARK  status: ('A' for Active; 'I' for Inactive)
REMARK    1  A    between atoms: O_5  and  C_20
REMARK    2  A    between atoms: O_5  and  C_27
REMARK    3  A    between atoms: O_12  and  C_40
REMARK    4  A    between atoms: C_17  and  C_19
REMARK    5  A    between atoms: C_18  and  C_20
REMARK    6  A    between atoms: C_27  and  C_30
REMARK    7  A    between atoms: C_29  and  C_31
REMARK                            x       y       z     vdW  Elec       q    Type
REMARK                         _______ _______ _______ _____ _____    ______ ____
ROOT
ATOM      1  O   UNL     1     111.833 125.810 136.806  0.00  0.00    +0.000 OA
ATOM      2  O   UNL     1     113.075 123.675 136.966  0.00  0.00    +0.000 OA
ATOM      3  O   UNL     1     113.564 124.982 137.846  0.00  0.00    +0.000 OA
ATOM      4  O   UNL     1     111.758 123.791 135.979  0.00  0.00    +0.000 OA
ATOM      5  C   UNL     1     112.661 124.387 136.913  0.00  0.00    +0.000 C 
ATOM      6  C   UNL     1     112.905 125.041 137.353  0.00  0.00    +0.000 C 
ATOM      7  C   UNL     1     112.002 124.445 136.420  0.00  0.00    +0.000 C 
ATOM      8  C   UNL     1     112.491 125.753 137.299  0.00  0.00    +0.000 C 
ATOM      9  C   UNL     1     111.588 125.157 136.366  0.00  0.00    +0.000 C 
ENDROOT
BRANCH   8  14
ATOM     10  O   UNL     1     111.888 126.000 138.815  0.00  0.00    +0.000 OA
ATOM     11  O   UNL     1     113.585 126.812 136.664  0.00  0.00    +0.000 OA
ATOM     12  O   UNL     1     113.488 128.398 139.067  0.00  0.00    +0.000 OA
ATOM     13  O   UNL     1     111.811 126.766 140.035  0.00  0.00    +0.000 OA
ATOM     14  C   UNL     1     112.736 126.406 137.739  0.00  0.00    +0.000 A 
ATOM     15  C   UNL     1     112.435 126.530 138.497  0.00  0.00    +0.000 A 
ATOM     16  C   UNL     1     113.283 126.935 137.421  0.00  0.00    +0.000 A 
ATOM     17  C   UNL     1     112.679 127.183 138.937  0.00  0.00    +0.000 A 
ATOM     18  C   UNL     1     113.528 127.590 137.861  0.00  0.00    +0.000 A 
ATOM     19  C   UNL     1     113.226 127.713 138.619  0.00  0.00    +0.000 A 
ATOM     20  C   UNL     1     112.357 127.301 139.725  0.00  0.00    +0.000 A 
ATOM     21  C   UNL     1     112.609 127.980 140.188  0.00  0.00    +0.000 A 
ATOM     22  C   UNL     1     113.178 128.532 139.857  0.00  0.00    +0.000 A 
BRANCH  22  25
ATOM     23  O   UNL     1     112.585 131.004 141.162  0.00  0.00    +0.000 OA
ATOM     24  O   UNL     1     114.168 131.150 141.606  0.00  0.00    +0.000 OA
ATOM     25  C   UNL     1     113.425 129.187 140.294  0.00  0.00    +0.000 A 
ATOM     26  C   UNL     1     112.881 129.768 140.510  0.00  0.00    +0.000 A 
ATOM     27  C   UNL     1     114.216 129.259 140.516  0.00  0.00    +0.000 A 
ATOM     28  C   UNL     1     113.129 130.423 140.947  0.00  0.00    +0.000 A 
ATOM     29  C   UNL     1     114.464 129.913 140.953  0.00  0.00    +0.000 A 
ATOM     30  C   UNL     1     113.921 130.495 141.168  0.00  0.00    +0.000 A 
ENDBRANCH  22  25
ENDBRANCH   8  14
BRANCH   9  31
ATOM     31  C   UNL     1     110.930 125.214 135.872  0.00  0.00    +0.000 C 
BRANCH  31  32
ATOM     32  O   UNL     1     110.735 125.936 135.526  0.00  0.00    +0.000 OA
BRANCH  32  34
ATOM     33  O   UNL     1     109.556 125.445 134.885  0.00  0.00    +0.000 OA
ATOM     34  C   UNL     1     109.972 126.064 135.237  0.00  0.00    +0.000 C 
BRANCH  34  35
ATOM     35  C   UNL     1     109.626 126.809 135.301  0.00  0.00    +0.000 A 
ATOM     36  C   UNL     1     109.941 127.448 134.885  0.00  0.00    +0.000 A 
ATOM     37  C   UNL     1     108.964 126.917 135.781  0.00  0.00    +0.000 A 
ATOM     38  C   UNL     1     109.595 128.194 134.948  0.00  0.00    +0.000 A 
ATOM     39  C   UNL     1     108.617 127.664 135.845  0.00  0.00    +0.000 A 
ATOM     40  C   UNL     1     108.933 128.301 135.428  0.00  0.00    +0.000 A 
BRANCH  40  41
ATOM     41  O   UNL     1     108.586 129.048 135.492  0.00  0.00    +0.000 OA
ATOM     42  C   UNL     1     108.719 129.508 136.163  0.00  0.00    +0.000 C 
ENDBRANCH  40  41
ENDBRANCH  34  35
ENDBRANCH  32  34
ENDBRANCH  31  32
ENDBRANCH   9  31
TORSDOF 7
ENDMDL
MODEL 9
REMARK VINA RESULT:     -10.1      7.840      9.207
REMARK  Name = 44257965
REMARK  7 active torsions:
REMARK  status: ('A' for Active; 'I' for Inactive)
REMARK    1  A    between atoms: O_5  and  C_20
REMARK    2  A    between atoms: O_5  and  C_27
REMARK    3  A    between atoms: O_12  and  C_40
REMARK    4  A    between atoms: C_17  and  C_19
REMARK    5  A    between atoms: C_18  and  C_20
REMARK    6  A    between atoms: C_27  and  C_30
REMARK    7  A    between atoms: C_29  and  C_31
REMARK                            x       y       z     vdW  Elec       q    Type
REMARK                         _______ _______ _______ _____ _____    ______ ____
ROOT
ATOM      1  O   UNL     1     112.126 128.993 138.776  0.00  0.00    +0.000 OA
ATOM      2  O   UNL     1     114.095 130.393 139.314  0.00  0.00    +0.000 OA
ATOM      3  O   UNL     1     112.799 131.056 138.538  0.00  0.00    +0.000 OA
ATOM      4  O   UNL     1     114.079 128.796 139.732  0.00  0.00    +0.000 OA
ATOM      5  C   UNL     1     113.439 129.926 139.135  0.00  0.00    +0.000 C 
ATOM      6  C   UNL     1     112.790 130.258 138.747  0.00  0.00    +0.000 C 
ATOM      7  C   UNL     1     113.430 129.128 139.343  0.00  0.00    +0.000 C 
ATOM      8  C   UNL     1     112.134 129.791 138.567  0.00  0.00    +0.000 C 
ATOM      9  C   UNL     1     112.774 128.661 139.164  0.00  0.00    +0.000 C 
ENDROOT
BRANCH   8  14
ATOM     10  O   UNL     1     112.005 129.673 136.927  0.00  0.00    +0.000 OA
ATOM     11  O   UNL     1     110.966 130.573 139.432  0.00  0.00    +0.000 OA
ATOM     12  O   UNL     1     109.510 131.136 137.011  0.00  0.00    +0.000 OA
ATOM     13  O   UNL     1     111.307 129.935 135.692  0.00  0.00    +0.000 OA
ATOM     14  C   UNL     1     111.486 130.123 138.180  0.00  0.00    +0.000 A 
ATOM     15  C   UNL     1     111.422 130.064 137.359  0.00  0.00    +0.000 A 
ATOM     16  C   UNL     1     110.903 130.513 138.612  0.00  0.00    +0.000 A 
ATOM     17  C   UNL     1     110.774 130.396 136.971  0.00  0.00    +0.000 A 
ATOM     18  C   UNL     1     110.254 130.846 138.224  0.00  0.00    +0.000 A 
ATOM     19  C   UNL     1     110.190 130.786 137.404  0.00  0.00    +0.000 A 
ATOM     20  C   UNL     1     110.718 130.328 136.116  0.00  0.00    +0.000 A 
ATOM     21  C   UNL     1     110.046 130.671 135.707  0.00  0.00    +0.000 A 
ATOM     22  C   UNL     1     109.438 131.078 136.157  0.00  0.00    +0.000 A 
BRANCH  22  25
ATOM     23  O   UNL     1     106.613 131.237 135.754  0.00  0.00    +0.000 OA
ATOM     24  O   UNL     1     106.840 132.411 134.617  0.00  0.00    +0.000 OA
ATOM     25  C   UNL     1     108.788 131.411 135.772  0.00  0.00    +0.000 A 
ATOM     26  C   UNL     1     108.025 131.157 135.955  0.00  0.00    +0.000 A 
ATOM     27  C   UNL     1     108.902 131.998 135.204  0.00  0.00    +0.000 A 
ATOM     28  C   UNL     1     107.376 131.491 135.570  0.00  0.00    +0.000 A 
ATOM     29  C   UNL     1     108.253 132.332 134.819  0.00  0.00    +0.000 A 
ATOM     30  C   UNL     1     107.490 132.078 135.002  0.00  0.00    +0.000 A 
ENDBRANCH  22  25
ENDBRANCH   8  14
BRANCH   9  31
ATOM     31  C   UNL     1     112.766 127.863 139.373  0.00  0.00    +0.000 C 
BRANCH  31  32
ATOM     32  O   UNL     1     112.459 127.303 138.853  0.00  0.00    +0.000 OA
BRANCH  32  34
ATOM     33  O   UNL     1     112.468 126.319 139.888  0.00  0.00    +0.000 OA
ATOM     34  C   UNL     1     112.372 126.518 139.093  0.00  0.00    +0.000 C 
BRANCH  34  35
ATOM     35  C   UNL     1     112.191 125.934 138.541  0.00  0.00    +0.000 A 
ATOM     36  C   UNL     1     112.780 125.633 138.049  0.00  0.00    +0.000 A 
ATOM     37  C   UNL     1     111.418 125.651 138.479  0.00  0.00    +0.000 A 
ATOM     38  C   UNL     1     112.599 125.049 137.496  0.00  0.00    +0.000 A 
ATOM     39  C   UNL     1     111.236 125.066 137.926  0.00  0.00    +0.000 A 
ATOM     40  C   UNL     1     111.827 124.765 137.435  0.00  0.00    +0.000 A 
BRANCH  40  41
ATOM     41  O   UNL     1     111.644 124.180 136.881  0.00  0.00    +0.000 OA
ATOM     42  C   UNL     1     111.533 124.383 136.089  0.00  0.00    +0.000 C 
ENDBRANCH  40  41
ENDBRANCH  34  35
ENDBRANCH  32  34
ENDBRANCH  31  32
ENDBRANCH   9  31
TORSDOF 7
ENDMDL
MODEL 10
REMARK VINA RESULT:     -10.1      6.601      9.638
REMARK  Name = 44257965
REMARK  7 active torsions:
REMARK  status: ('A' for Active; 'I' for Inactive)
REMARK    1  A    between atoms: O_5  and  C_20
REMARK    2  A    between atoms: O_5  and  C_27
REMARK    3  A    between atoms: O_12  and  C_40
REMARK    4  A    between atoms: C_17  and  C_19
REMARK    5  A    between atoms: C_18  and  C_20
REMARK    6  A    between atoms: C_27  and  C_30
REMARK    7  A    between atoms: C_29  and  C_31
REMARK                            x       y       z     vdW  Elec       q    Type
REMARK                         _______ _______ _______ _____ _____    ______ ____
ROOT
ATOM      1  O   UNL     1     110.070 127.395 136.885  0.00  0.00    +0.000 OA
ATOM      2  O   UNL     1     108.163 128.421 135.687  0.00  0.00    +0.000 OA
ATOM      3  O   UNL     1     108.870 129.217 136.948  0.00  0.00    +0.000 OA
ATOM      4  O   UNL     1     108.728 126.942 135.225  0.00  0.00    +0.000 OA
ATOM      5  C   UNL     1     108.799 128.079 136.087  0.00  0.00    +0.000 C 
ATOM      6  C   UNL     1     109.153 128.477 136.717  0.00  0.00    +0.000 C 
ATOM      7  C   UNL     1     109.082 127.340 135.856  0.00  0.00    +0.000 C 
ATOM      8  C   UNL     1     109.788 128.135 137.117  0.00  0.00    +0.000 C 
ATOM      9  C   UNL     1     109.717 126.998 136.255  0.00  0.00    +0.000 C 
ENDROOT
BRANCH   8  14
ATOM     10  O   UNL     1     109.246 127.890 138.656  0.00  0.00    +0.000 OA
ATOM     11  O   UNL     1     111.038 129.177 136.838  0.00  0.00    +0.000 OA
ATOM     12  O   UNL     1     111.225 129.750 139.656  0.00  0.00    +0.000 OA
ATOM     13  O   UNL     1     109.307 128.150 140.073  0.00  0.00    +0.000 OA
ATOM     14  C   UNL     1     110.141 128.533 137.747  0.00  0.00    +0.000 A 
ATOM     15  C   UNL     1     109.871 128.411 138.517  0.00  0.00    +0.000 A 
ATOM     16  C   UNL     1     110.766 129.054 137.607  0.00  0.00    +0.000 A 
ATOM     17  C   UNL     1     110.224 128.809 139.146  0.00  0.00    +0.000 A 
ATOM     18  C   UNL     1     111.120 129.452 138.238  0.00  0.00    +0.000 A 
ATOM     19  C   UNL     1     110.848 129.329 139.007  0.00  0.00    +0.000 A 
ATOM     20  C   UNL     1     109.932 128.673 139.944  0.00  0.00    +0.000 A 
ATOM     21  C   UNL     1     110.296 129.084 140.604  0.00  0.00    +0.000 A 
ATOM     22  C   UNL     1     110.947 129.626 140.459  0.00  0.00    +0.000 A 
BRANCH  22  25
ATOM     23  O   UNL     1     111.116 131.920 142.156  0.00  0.00    +0.000 OA
ATOM     24  O   UNL     1     112.371 131.225 142.971  0.00  0.00    +0.000 OA
ATOM     25  C   UNL     1     111.303 130.026 141.087  0.00  0.00    +0.000 A 
ATOM     26  C   UNL     1     111.032 130.774 141.308  0.00  0.00    +0.000 A 
ATOM     27  C   UNL     1     111.930 129.678 141.495  0.00  0.00    +0.000 A 
ATOM     28  C   UNL     1     111.388 131.173 141.936  0.00  0.00    +0.000 A 
ATOM     29  C   UNL     1     112.286 130.077 142.123  0.00  0.00    +0.000 A 
ATOM     30  C   UNL     1     112.015 130.825 142.343  0.00  0.00    +0.000 A 
ENDBRANCH  22  25
ENDBRANCH   8  14
BRANCH   9  31
ATOM     31  C   UNL     1     109.999 126.257 136.023  0.00  0.00    +0.000 C 
BRANCH  31  32
ATOM     32  O   UNL     1     110.716 125.978 136.318  0.00  0.00    +0.000 OA
BRANCH  32  34
ATOM     33  O   UNL     1     110.661 124.875 135.411  0.00  0.00    +0.000 OA
ATOM     34  C   UNL     1     111.047 125.286 136.014  0.00  0.00    +0.000 C 
BRANCH  34  35
ATOM     35  C   UNL     1     111.763 125.005 136.310  0.00  0.00    +0.000 A 
ATOM     36  C   UNL     1     112.452 125.449 136.216  0.00  0.00    +0.000 A 
ATOM     37  C   UNL     1     111.791 124.279 136.702  0.00  0.00    +0.000 A 
ATOM     38  C   UNL     1     113.168 125.168 136.513  0.00  0.00    +0.000 A 
ATOM     39  C   UNL     1     112.508 123.998 136.999  0.00  0.00    +0.000 A 
ATOM     40  C   UNL     1     113.196 124.442 136.904  0.00  0.00    +0.000 A 
BRANCH  40  41
ATOM     41  O   UNL     1     113.913 124.161 137.202  0.00  0.00    +0.000 OA
ATOM     42  C   UNL     1     114.549 124.677 137.300  0.00  0.00    +0.000 C 
ENDBRANCH  40  41
ENDBRANCH  34  35
ENDBRANCH  32  34
ENDBRANCH  31  32
ENDBRANCH   9  31
TORSDOF 7
ENDMDL
