MODEL 1
REMARK VINA RESULT:      -9.6      0.000      0.000
REMARK  Name = 44257917
REMARK  7 active torsions:
REMARK  status: ('A' for Active; 'I' for Inactive)
REMARK    1  A    between atoms: O_2  and  C_14
REMARK    2  A    between atoms: O_2  and  C_26
REMARK    3  A    between atoms: O_5  and  C_20
REMARK    4  A    between atoms: O_5  and  C_29
REMARK    5  A    between atoms: C_16  and  C_19
REMARK    6  A    between atoms: C_18  and  C_20
REMARK    7  A    between atoms: C_31  and  C_32
REMARK                            x       y       z     vdW  Elec       q    Type
REMARK                         _______ _______ _______ _____ _____    ______ ____
ROOT
ATOM      1  O   UNL     1     106.168 124.429 141.592  0.00  0.00    +0.000 OA
ATOM      2  O   UNL     1     105.160 127.077 141.217  0.00  0.00    +0.000 OA
ATOM      3  O   UNL     1     104.275 124.964 139.469  0.00  0.00    +0.000 OA
ATOM      4  O   UNL     1     105.750 123.344 140.738  0.00  0.00    +0.000 OA
ATOM      5  C   UNL     1     105.664 125.754 141.404  0.00  0.00    +0.000 A 
ATOM      6  C   UNL     1     105.689 124.959 141.180  0.00  0.00    +0.000 A 
ATOM      7  C   UNL     1     105.184 126.284 140.993  0.00  0.00    +0.000 A 
ATOM      8  C   UNL     1     105.233 124.697 140.544  0.00  0.00    +0.000 A 
ATOM      9  C   UNL     1     104.729 126.020 140.357  0.00  0.00    +0.000 A 
ATOM     10  C   UNL     1     104.754 125.227 140.133  0.00  0.00    +0.000 A 
ATOM     11  C   UNL     1     105.267 123.867 140.320  0.00  0.00    +0.000 A 
ATOM     12  C   UNL     1     104.796 123.587 139.659  0.00  0.00    +0.000 A 
ATOM     13  C   UNL     1     104.296 124.139 139.231  0.00  0.00    +0.000 A 
ENDROOT
BRANCH   5  19
ATOM     14  O   UNL     1     105.811 125.991 142.806  0.00  0.00    +0.000 OA
ATOM     15  O   UNL     1     108.098 126.854 142.419  0.00  0.00    +0.000 OA
ATOM     16  O   UNL     1     107.483 126.804 143.949  0.00  0.00    +0.000 OA
ATOM     17  C   UNL     1     106.882 126.304 141.911  0.00  0.00    +0.000 C 
ATOM     18  C   UNL     1     107.336 126.566 142.548  0.00  0.00    +0.000 C 
ATOM     19  C   UNL     1     106.119 126.016 142.040  0.00  0.00    +0.000 C 
ATOM     20  C   UNL     1     107.029 126.542 143.313  0.00  0.00    +0.000 C 
ATOM     21  C   UNL     1     106.266 126.254 143.441  0.00  0.00    +0.000 C 
BRANCH  17  22
ATOM     22  O   UNL     1     107.189 126.329 141.147  0.00  0.00    +0.000 OA
BRANCH  22  24
ATOM     23  O   UNL     1     108.045 127.463 140.994  0.00  0.00    +0.000 OA
ATOM     24  C   UNL     1     107.939 126.645 141.014  0.00  0.00    +0.000 C 
ATOM     25  C   UNL     1     108.585 126.143 140.900  0.00  0.00    +0.000 C 
ENDBRANCH  22  24
ENDBRANCH  17  22
BRANCH  21  26
ATOM     26  C   UNL     1     105.958 126.229 144.207  0.00  0.00    +0.000 C 
BRANCH  26  27
ATOM     27  O   UNL     1     105.369 125.684 144.396  0.00  0.00    +0.000 OA
BRANCH  27  29
ATOM     28  O   UNL     1     104.765 126.237 145.568  0.00  0.00    +0.000 OA
ATOM     29  C   UNL     1     105.119 125.601 145.179  0.00  0.00    +0.000 C 
ATOM     30  C   UNL     1     105.225 124.884 145.571  0.00  0.00    +0.000 C 
ENDBRANCH  27  29
ENDBRANCH  26  27
ENDBRANCH  21  26
ENDBRANCH   5  19
BRANCH  13  33
ATOM     31  O   UNL     1     101.738 123.681 138.043  0.00  0.00    +0.000 OA
ATOM     32  O   UNL     1     102.471 123.096 136.686  0.00  0.00    +0.000 OA
ATOM     33  C   UNL     1     103.840 123.879 138.595  0.00  0.00    +0.000 A 
ATOM     34  C   UNL     1     103.017 123.910 138.637  0.00  0.00    +0.000 A 
ATOM     35  C   UNL     1     104.208 123.586 137.916  0.00  0.00    +0.000 A 
ATOM     36  C   UNL     1     102.561 123.650 138.001  0.00  0.00    +0.000 A 
ATOM     37  C   UNL     1     103.751 123.325 137.280  0.00  0.00    +0.000 A 
ATOM     38  C   UNL     1     102.927 123.357 137.323  0.00  0.00    +0.000 A 
ENDBRANCH  13  33
TORSDOF 7
ENDMDL
MODEL 2
REMARK VINA RESULT:      -9.2      6.576      9.963
REMARK  Name = 44257917
REMARK  7 active torsions:
REMARK  status: ('A' for Active; 'I' for Inactive)
REMARK    1  A    between atoms: O_2  and  C_14
REMARK    2  A    between atoms: O_2  and  C_26
REMARK    3  A    between atoms: O_5  and  C_20
REMARK    4  A    between atoms: O_5  and  C_29
REMARK    5  A    between atoms: C_16  and  C_19
REMARK    6  A    between atoms: C_18  and  C_20
REMARK    7  A    between atoms: C_31  and  C_32
REMARK                            x       y       z     vdW  Elec       q    Type
REMARK                         _______ _______ _______ _____ _____    ______ ____
ROOT
ATOM      1  O   UNL     1     112.742 127.955 137.166  0.00  0.00    +0.000 OA
ATOM      2  O   UNL     1     112.366 126.070 139.280  0.00  0.00    +0.000 OA
ATOM      3  O   UNL     1     113.458 128.668 139.878  0.00  0.00    +0.000 OA
ATOM      4  O   UNL     1     113.286 129.266 137.424  0.00  0.00    +0.000 OA
ATOM      5  C   UNL     1     112.554 127.012 138.223  0.00  0.00    +0.000 A 
ATOM      6  C   UNL     1     112.797 127.758 137.965  0.00  0.00    +0.000 A 
ATOM      7  C   UNL     1     112.608 126.814 139.022  0.00  0.00    +0.000 A 
ATOM      8  C   UNL     1     113.095 128.304 138.506  0.00  0.00    +0.000 A 
ATOM      9  C   UNL     1     112.907 127.362 139.563  0.00  0.00    +0.000 A 
ATOM     10  C   UNL     1     113.149 128.106 139.305  0.00  0.00    +0.000 A 
ATOM     11  C   UNL     1     113.345 129.077 138.225  0.00  0.00    +0.000 A 
ATOM     12  C   UNL     1     113.656 129.651 138.783  0.00  0.00    +0.000 A 
ATOM     13  C   UNL     1     113.713 129.445 139.615  0.00  0.00    +0.000 A 
ENDROOT
BRANCH   5  19
ATOM     14  O   UNL     1     111.461 126.496 137.461  0.00  0.00    +0.000 OA
ATOM     15  O   UNL     1     112.948 124.766 136.500  0.00  0.00    +0.000 OA
ATOM     16  O   UNL     1     111.360 124.826 136.058  0.00  0.00    +0.000 OA
ATOM     17  C   UNL     1     112.752 125.889 137.362  0.00  0.00    +0.000 C 
ATOM     18  C   UNL     1     112.452 125.343 136.820  0.00  0.00    +0.000 C 
ATOM     19  C   UNL     1     112.256 126.465 137.682  0.00  0.00    +0.000 C 
ATOM     20  C   UNL     1     111.659 125.373 136.599  0.00  0.00    +0.000 C 
ATOM     21  C   UNL     1     111.163 125.949 136.919  0.00  0.00    +0.000 C 
BRANCH  17  22
ATOM     22  O   UNL     1     113.545 125.859 137.583  0.00  0.00    +0.000 OA
BRANCH  22  24
ATOM     23  O   UNL     1     114.312 125.812 136.378  0.00  0.00    +0.000 OA
ATOM     24  C   UNL     1     114.094 125.477 137.099  0.00  0.00    +0.000 C 
ATOM     25  C   UNL     1     114.425 124.759 137.337  0.00  0.00    +0.000 C 
ENDBRANCH  22  24
ENDBRANCH  17  22
BRANCH  21  26
ATOM     26  C   UNL     1     110.368 125.979 136.698  0.00  0.00    +0.000 C 
BRANCH  26  27
ATOM     27  O   UNL     1     109.984 126.707 136.641  0.00  0.00    +0.000 OA
BRANCH  27  29
ATOM     28  O   UNL     1     108.675 126.562 137.195  0.00  0.00    +0.000 OA
ATOM     29  C   UNL     1     109.164 126.734 136.554  0.00  0.00    +0.000 C 
ATOM     30  C   UNL     1     108.833 126.935 135.825  0.00  0.00    +0.000 C 
ENDBRANCH  27  29
ENDBRANCH  26  27
ENDBRANCH  21  26
ENDBRANCH   5  19
BRANCH  13  33
ATOM     31  O   UNL     1     113.334 131.124 141.897  0.00  0.00    +0.000 OA
ATOM     32  O   UNL     1     114.902 131.626 141.788  0.00  0.00    +0.000 OA
ATOM     33  C   UNL     1     114.010 129.990 140.158  0.00  0.00    +0.000 A 
ATOM     34  C   UNL     1     113.524 130.285 140.756  0.00  0.00    +0.000 A 
ATOM     35  C   UNL     1     114.794 130.241 140.104  0.00  0.00    +0.000 A 
ATOM     36  C   UNL     1     113.821 130.830 141.299  0.00  0.00    +0.000 A 
ATOM     37  C   UNL     1     115.091 130.787 140.647  0.00  0.00    +0.000 A 
ATOM     38  C   UNL     1     114.605 131.081 141.245  0.00  0.00    +0.000 A 
ENDBRANCH  13  33
TORSDOF 7
ENDMDL
MODEL 3
REMARK VINA RESULT:      -9.2      7.588      9.171
REMARK  Name = 44257917
REMARK  7 active torsions:
REMARK  status: ('A' for Active; 'I' for Inactive)
REMARK    1  A    between atoms: O_2  and  C_14
REMARK    2  A    between atoms: O_2  and  C_26
REMARK    3  A    between atoms: O_5  and  C_20
REMARK    4  A    between atoms: O_5  and  C_29
REMARK    5  A    between atoms: C_16  and  C_19
REMARK    6  A    between atoms: C_18  and  C_20
REMARK    7  A    between atoms: C_31  and  C_32
REMARK                            x       y       z     vdW  Elec       q    Type
REMARK                         _______ _______ _______ _____ _____    ______ ____
ROOT
ATOM      1  O   UNL     1     111.630 129.215 137.138  0.00  0.00    +0.000 OA
ATOM      2  O   UNL     1     111.492 127.805 134.655  0.00  0.00    +0.000 OA
ATOM      3  O   UNL     1     109.660 129.972 135.157  0.00  0.00    +0.000 OA
ATOM      4  O   UNL     1     110.731 130.305 137.427  0.00  0.00    +0.000 OA
ATOM      5  C   UNL     1     111.561 128.510 135.896  0.00  0.00    +0.000 A 
ATOM      6  C   UNL     1     111.283 129.104 136.397  0.00  0.00    +0.000 A 
ATOM      7  C   UNL     1     111.214 128.399 135.156  0.00  0.00    +0.000 A 
ATOM      8  C   UNL     1     110.658 129.586 136.158  0.00  0.00    +0.000 A 
ATOM      9  C   UNL     1     110.589 128.882 134.917  0.00  0.00    +0.000 A 
ATOM     10  C   UNL     1     110.311 129.475 135.417  0.00  0.00    +0.000 A 
ATOM     11  C   UNL     1     110.377 130.202 136.688  0.00  0.00    +0.000 A 
ATOM     12  C   UNL     1     109.727 130.707 136.445  0.00  0.00    +0.000 A 
ATOM     13  C   UNL     1     109.366 130.592 135.674  0.00  0.00    +0.000 A 
ENDROOT
BRANCH   5  19
ATOM     14  O   UNL     1     112.035 127.352 136.586  0.00  0.00    +0.000 OA
ATOM     15  O   UNL     1     114.358 127.929 135.958  0.00  0.00    +0.000 OA
ATOM     16  O   UNL     1     114.058 126.578 136.857  0.00  0.00    +0.000 OA
ATOM     17  C   UNL     1     112.960 128.220 135.927  0.00  0.00    +0.000 C 
ATOM     18  C   UNL     1     113.584 127.736 136.167  0.00  0.00    +0.000 C 
ATOM     19  C   UNL     1     112.185 128.027 136.136  0.00  0.00    +0.000 C 
ATOM     20  C   UNL     1     113.434 127.062 136.616  0.00  0.00    +0.000 C 
ATOM     21  C   UNL     1     112.660 126.869 136.826  0.00  0.00    +0.000 C 
BRANCH  17  22
ATOM     22  O   UNL     1     113.110 128.895 135.477  0.00  0.00    +0.000 OA
BRANCH  22  24
ATOM     23  O   UNL     1     114.145 129.612 136.152  0.00  0.00    +0.000 OA
ATOM     24  C   UNL     1     113.863 129.231 135.477  0.00  0.00    +0.000 C 
ATOM     25  C   UNL     1     114.335 129.187 134.801  0.00  0.00    +0.000 C 
ENDBRANCH  22  24
ENDBRANCH  17  22
BRANCH  21  26
ATOM     26  C   UNL     1     112.509 126.194 137.276  0.00  0.00    +0.000 C 
BRANCH  26  27
ATOM     27  O   UNL     1     111.814 125.765 137.156  0.00  0.00    +0.000 OA
BRANCH  27  29
ATOM     28  O   UNL     1     111.507 125.208 138.436  0.00  0.00    +0.000 OA
ATOM     29  C   UNL     1     111.648 125.110 137.629  0.00  0.00    +0.000 C 
ATOM     30  C   UNL     1     111.623 124.356 137.295  0.00  0.00    +0.000 C 
ENDBRANCH  27  29
ENDBRANCH  26  27
ENDBRANCH  21  26
ENDBRANCH   5  19
BRANCH  13  33
ATOM     31  O   UNL     1     106.617 131.352 135.848  0.00  0.00    +0.000 OA
ATOM     32  O   UNL     1     106.866 132.517 134.707  0.00  0.00    +0.000 OA
ATOM     33  C   UNL     1     108.741 131.073 135.432  0.00  0.00    +0.000 A 
ATOM     34  C   UNL     1     107.991 130.972 135.761  0.00  0.00    +0.000 A 
ATOM     35  C   UNL     1     108.866 131.656 134.861  0.00  0.00    +0.000 A 
ATOM     36  C   UNL     1     107.366 131.453 135.519  0.00  0.00    +0.000 A 
ATOM     37  C   UNL     1     108.240 132.137 134.620  0.00  0.00    +0.000 A 
ATOM     38  C   UNL     1     107.491 132.035 134.949  0.00  0.00    +0.000 A 
ENDBRANCH  13  33
TORSDOF 7
ENDMDL
MODEL 4
REMARK VINA RESULT:      -9.1      6.953      8.510
REMARK  Name = 44257917
REMARK  7 active torsions:
REMARK  status: ('A' for Active; 'I' for Inactive)
REMARK    1  A    between atoms: O_2  and  C_14
REMARK    2  A    between atoms: O_2  and  C_26
REMARK    3  A    between atoms: O_5  and  C_20
REMARK    4  A    between atoms: O_5  and  C_29
REMARK    5  A    between atoms: C_16  and  C_19
REMARK    6  A    between atoms: C_18  and  C_20
REMARK    7  A    between atoms: C_31  and  C_32
REMARK                            x       y       z     vdW  Elec       q    Type
REMARK                         _______ _______ _______ _____ _____    ______ ____
ROOT
ATOM      1  O   UNL     1     112.328 129.041 139.462  0.00  0.00    +0.000 OA
ATOM      2  O   UNL     1     114.115 127.850 141.348  0.00  0.00    +0.000 OA
ATOM      3  O   UNL     1     113.570 126.496 138.864  0.00  0.00    +0.000 OA
ATOM      4  O   UNL     1     112.029 128.395 138.208  0.00  0.00    +0.000 OA
ATOM      5  C   UNL     1     113.222 128.446 140.406  0.00  0.00    +0.000 A 
ATOM      6  C   UNL     1     112.830 128.424 139.679  0.00  0.00    +0.000 A 
ATOM      7  C   UNL     1     113.725 127.828 140.622  0.00  0.00    +0.000 A 
ATOM      8  C   UNL     1     112.943 127.785 139.170  0.00  0.00    +0.000 A 
ATOM      9  C   UNL     1     113.836 127.189 140.112  0.00  0.00    +0.000 A 
ATOM     10  C   UNL     1     113.445 127.167 139.386  0.00  0.00    +0.000 A 
ATOM     11  C   UNL     1     112.530 127.773 138.416  0.00  0.00    +0.000 A 
ATOM     12  C   UNL     1     112.642 127.111 137.881  0.00  0.00    +0.000 A 
ATOM     13  C   UNL     1     113.165 126.468 138.106  0.00  0.00    +0.000 A 
ENDROOT
BRANCH   5  19
ATOM     14  O   UNL     1     112.483 129.079 141.452  0.00  0.00    +0.000 OA
ATOM     15  O   UNL     1     114.024 131.014 141.370  0.00  0.00    +0.000 OA
ATOM     16  O   UNL     1     112.771 131.002 142.444  0.00  0.00    +0.000 OA
ATOM     17  C   UNL     1     113.624 129.730 140.887  0.00  0.00    +0.000 C 
ATOM     18  C   UNL     1     113.510 130.369 141.397  0.00  0.00    +0.000 C 
ATOM     19  C   UNL     1     113.110 129.085 140.915  0.00  0.00    +0.000 C 
ATOM     20  C   UNL     1     112.884 130.363 141.934  0.00  0.00    +0.000 C 
ATOM     21  C   UNL     1     112.371 129.718 141.961  0.00  0.00    +0.000 C 
BRANCH  17  22
ATOM     22  O   UNL     1     114.249 129.736 140.351  0.00  0.00    +0.000 OA
BRANCH  22  24
ATOM     23  O   UNL     1     114.278 130.996 139.678  0.00  0.00    +0.000 OA
ATOM     24  C   UNL     1     114.635 130.443 140.175  0.00  0.00    +0.000 C 
ATOM     25  C   UNL     1     115.379 130.599 140.496  0.00  0.00    +0.000 C 
ENDBRANCH  22  24
ENDBRANCH  17  22
BRANCH  21  26
ATOM     26  C   UNL     1     111.744 129.712 142.499  0.00  0.00    +0.000 C 
BRANCH  26  27
ATOM     27  O   UNL     1     111.273 129.039 142.574  0.00  0.00    +0.000 OA
BRANCH  27  29
ATOM     28  O   UNL     1     110.821 128.839 143.916  0.00  0.00    +0.000 OA
ATOM     29  C   UNL     1     110.661 129.024 143.128  0.00  0.00    +0.000 C 
ATOM     30  C   UNL     1     109.889 129.195 142.893  0.00  0.00    +0.000 C 
ENDBRANCH  27  29
ENDBRANCH  26  27
ENDBRANCH  21  26
ENDBRANCH   5  19
BRANCH  13  33
ATOM     31  O   UNL     1     112.316 123.937 137.087  0.00  0.00    +0.000 OA
ATOM     32  O   UNL     1     113.619 123.906 136.075  0.00  0.00    +0.000 OA
ATOM     33  C   UNL     1     113.279 125.828 137.599  0.00  0.00    +0.000 A 
ATOM     34  C   UNL     1     112.741 125.202 137.597  0.00  0.00    +0.000 A 
ATOM     35  C   UNL     1     113.931 125.813 137.093  0.00  0.00    +0.000 A 
ATOM     36  C   UNL     1     112.854 124.562 137.089  0.00  0.00    +0.000 A 
ATOM     37  C   UNL     1     114.044 125.172 136.585  0.00  0.00    +0.000 A 
ATOM     38  C   UNL     1     113.505 124.546 136.583  0.00  0.00    +0.000 A 
ENDBRANCH  13  33
TORSDOF 7
ENDMDL
MODEL 5
REMARK VINA RESULT:      -9.0      6.135      8.015
REMARK  Name = 44257917
REMARK  7 active torsions:
REMARK  status: ('A' for Active; 'I' for Inactive)
REMARK    1  A    between atoms: O_2  and  C_14
REMARK    2  A    between atoms: O_2  and  C_26
REMARK    3  A    between atoms: O_5  and  C_20
REMARK    4  A    between atoms: O_5  and  C_29
REMARK    5  A    between atoms: C_16  and  C_19
REMARK    6  A    between atoms: C_18  and  C_20
REMARK    7  A    between atoms: C_31  and  C_32
REMARK                            x       y       z     vdW  Elec       q    Type
REMARK                         _______ _______ _______ _____ _____    ______ ____
ROOT
ATOM      1  O   UNL     1     108.682 128.884 137.199  0.00  0.00    +0.000 OA
ATOM      2  O   UNL     1     111.217 129.998 137.906  0.00  0.00    +0.000 OA
ATOM      3  O   UNL     1     111.053 127.225 137.140  0.00  0.00    +0.000 OA
ATOM      4  O   UNL     1     108.558 127.500 136.810  0.00  0.00    +0.000 OA
ATOM      5  C   UNL     1     109.950 129.441 137.553  0.00  0.00    +0.000 A 
ATOM      6  C   UNL     1     109.495 128.797 137.307  0.00  0.00    +0.000 A 
ATOM      7  C   UNL     1     110.763 129.355 137.661  0.00  0.00    +0.000 A 
ATOM      8  C   UNL     1     109.855 128.067 137.171  0.00  0.00    +0.000 A 
ATOM      9  C   UNL     1     111.122 128.624 137.524  0.00  0.00    +0.000 A 
ATOM     10  C   UNL     1     110.668 127.981 137.279  0.00  0.00    +0.000 A 
ATOM     11  C   UNL     1     109.371 127.404 136.916  0.00  0.00    +0.000 A 
ATOM     12  C   UNL     1     109.739 126.642 136.772  0.00  0.00    +0.000 A 
ATOM     13  C   UNL     1     110.586 126.552 136.885  0.00  0.00    +0.000 A 
ENDROOT
BRANCH   5  19
ATOM     14  O   UNL     1     109.459 130.689 137.060  0.00  0.00    +0.000 OA
ATOM     15  O   UNL     1     108.775 131.325 139.352  0.00  0.00    +0.000 OA
ATOM     16  O   UNL     1     108.512 132.361 138.096  0.00  0.00    +0.000 OA
ATOM     17  C   UNL     1     109.363 130.383 138.453  0.00  0.00    +0.000 C 
ATOM     18  C   UNL     1     109.003 131.113 138.588  0.00  0.00    +0.000 C 
ATOM     19  C   UNL     1     109.590 130.171 137.689  0.00  0.00    +0.000 C 
ATOM     20  C   UNL     1     108.871 131.631 137.961  0.00  0.00    +0.000 C 
ATOM     21  C   UNL     1     109.099 131.419 137.197  0.00  0.00    +0.000 C 
BRANCH  17  22
ATOM     22  O   UNL     1     109.494 129.865 139.081  0.00  0.00    +0.000 OA
BRANCH  22  24
ATOM     23  O   UNL     1     108.277 129.786 139.826  0.00  0.00    +0.000 OA
ATOM     24  C   UNL     1     109.082 129.962 139.789  0.00  0.00    +0.000 C 
ATOM     25  C   UNL     1     109.476 130.236 140.461  0.00  0.00    +0.000 C 
ENDBRANCH  22  24
ENDBRANCH  17  22
BRANCH  21  26
ATOM     26  C   UNL     1     108.967 131.938 136.568  0.00  0.00    +0.000 C 
BRANCH  26  27
ATOM     27  O   UNL     1     109.153 131.707 135.798  0.00  0.00    +0.000 OA
BRANCH  27  29
ATOM     28  O   UNL     1     109.444 132.878 135.032  0.00  0.00    +0.000 OA
ATOM     29  C   UNL     1     108.982 132.208 135.165  0.00  0.00    +0.000 C 
ATOM     30  C   UNL     1     108.348 132.038 134.665  0.00  0.00    +0.000 C 
ENDBRANCH  27  29
ENDBRANCH  26  27
ENDBRANCH  21  26
ENDBRANCH   5  19
BRANCH  13  33
ATOM     31  O   UNL     1     111.643 124.090 137.879  0.00  0.00    +0.000 OA
ATOM     32  O   UNL     1     112.032 123.635 136.342  0.00  0.00    +0.000 OA
ATOM     33  C   UNL     1     110.947 125.823 136.749  0.00  0.00    +0.000 A 
ATOM     34  C   UNL     1     111.115 125.321 137.382  0.00  0.00    +0.000 A 
ATOM     35  C   UNL     1     111.142 125.595 135.980  0.00  0.00    +0.000 A 
ATOM     36  C   UNL     1     111.476 124.592 137.246  0.00  0.00    +0.000 A 
ATOM     37  C   UNL     1     111.503 124.866 135.845  0.00  0.00    +0.000 A 
ATOM     38  C   UNL     1     111.671 124.364 136.478  0.00  0.00    +0.000 A 
ENDBRANCH  13  33
TORSDOF 7
ENDMDL
MODEL 6
REMARK VINA RESULT:      -9.0      3.813      6.628
REMARK  Name = 44257917
REMARK  7 active torsions:
REMARK  status: ('A' for Active; 'I' for Inactive)
REMARK    1  A    between atoms: O_2  and  C_14
REMARK    2  A    between atoms: O_2  and  C_26
REMARK    3  A    between atoms: O_5  and  C_20
REMARK    4  A    between atoms: O_5  and  C_29
REMARK    5  A    between atoms: C_16  and  C_19
REMARK    6  A    between atoms: C_18  and  C_20
REMARK    7  A    between atoms: C_31  and  C_32
REMARK                            x       y       z     vdW  Elec       q    Type
REMARK                         _______ _______ _______ _____ _____    ______ ____
ROOT
ATOM      1  O   UNL     1     106.833 128.123 144.734  0.00  0.00    +0.000 OA
ATOM      2  O   UNL     1     105.416 125.962 143.514  0.00  0.00    +0.000 OA
ATOM      3  O   UNL     1     106.457 125.645 146.182  0.00  0.00    +0.000 OA
ATOM      4  O   UNL     1     107.369 128.004 146.068  0.00  0.00    +0.000 OA
ATOM      5  C   UNL     1     106.124 127.042 144.124  0.00  0.00    +0.000 A 
ATOM      6  C   UNL     1     106.534 127.355 144.768  0.00  0.00    +0.000 A 
ATOM      7  C   UNL     1     105.826 126.273 144.158  0.00  0.00    +0.000 A 
ATOM      8  C   UNL     1     106.645 126.898 145.446  0.00  0.00    +0.000 A 
ATOM      9  C   UNL     1     105.938 125.818 144.836  0.00  0.00    +0.000 A 
ATOM     10  C   UNL     1     106.347 126.130 145.480  0.00  0.00    +0.000 A 
ATOM     11  C   UNL     1     107.074 127.234 146.111  0.00  0.00    +0.000 A 
ATOM     12  C   UNL     1     107.194 126.764 146.820  0.00  0.00    +0.000 A 
ATOM     13  C   UNL     1     106.883 125.964 146.855  0.00  0.00    +0.000 A 
ENDROOT
BRANCH   5  19
ATOM     14  O   UNL     1     105.374 128.019 143.400  0.00  0.00    +0.000 OA
ATOM     15  O   UNL     1     106.953 127.828 141.504  0.00  0.00    +0.000 OA
ATOM     16  O   UNL     1     105.677 128.870 141.413  0.00  0.00    +0.000 OA
ATOM     17  C   UNL     1     106.539 127.435 142.814  0.00  0.00    +0.000 C 
ATOM     18  C   UNL     1     106.427 127.892 142.136  0.00  0.00    +0.000 C 
ATOM     19  C   UNL     1     106.013 127.498 143.446  0.00  0.00    +0.000 C 
ATOM     20  C   UNL     1     105.789 128.412 142.090  0.00  0.00    +0.000 C 
ATOM     21  C   UNL     1     105.262 128.476 142.722  0.00  0.00    +0.000 C 
BRANCH  17  22
ATOM     22  O   UNL     1     107.177 126.914 142.860  0.00  0.00    +0.000 OA
BRANCH  22  24
ATOM     23  O   UNL     1     108.376 127.590 142.473  0.00  0.00    +0.000 OA
ATOM     24  C   UNL     1     107.815 126.998 142.344  0.00  0.00    +0.000 C 
ATOM     25  C   UNL     1     107.894 126.490 141.698  0.00  0.00    +0.000 C 
ENDBRANCH  22  24
ENDBRANCH  17  22
BRANCH  21  26
ATOM     26  C   UNL     1     104.623 128.997 142.676  0.00  0.00    +0.000 C 
BRANCH  26  27
ATOM     27  O   UNL     1     104.288 129.298 143.367  0.00  0.00    +0.000 OA
BRANCH  27  29
ATOM     28  O   UNL     1     103.129 129.859 142.744  0.00  0.00    +0.000 OA
ATOM     29  C   UNL     1     103.717 129.893 143.322  0.00  0.00    +0.000 C 
ATOM     30  C   UNL     1     103.735 130.522 143.855  0.00  0.00    +0.000 C 
ENDBRANCH  27  29
ENDBRANCH  26  27
ENDBRANCH  21  26
ENDBRANCH   5  19
BRANCH  13  33
ATOM     31  O   UNL     1     105.821 124.699 149.188  0.00  0.00    +0.000 OA
ATOM     32  O   UNL     1     107.323 124.131 149.564  0.00  0.00    +0.000 OA
ATOM     33  C   UNL     1     106.993 125.506 147.533  0.00  0.00    +0.000 A 
ATOM     34  C   UNL     1     106.352 125.332 148.022  0.00  0.00    +0.000 A 
ATOM     35  C   UNL     1     107.745 125.222 147.721  0.00  0.00    +0.000 A 
ATOM     36  C   UNL     1     106.462 124.874 148.699  0.00  0.00    +0.000 A 
ATOM     37  C   UNL     1     107.854 124.763 148.398  0.00  0.00    +0.000 A 
ATOM     38  C   UNL     1     107.213 124.589 148.887  0.00  0.00    +0.000 A 
ENDBRANCH  13  33
TORSDOF 7
ENDMDL
MODEL 7
REMARK VINA RESULT:      -9.0      7.721      8.946
REMARK  Name = 44257917
REMARK  7 active torsions:
REMARK  status: ('A' for Active; 'I' for Inactive)
REMARK    1  A    between atoms: O_2  and  C_14
REMARK    2  A    between atoms: O_2  and  C_26
REMARK    3  A    between atoms: O_5  and  C_20
REMARK    4  A    between atoms: O_5  and  C_29
REMARK    5  A    between atoms: C_16  and  C_19
REMARK    6  A    between atoms: C_18  and  C_20
REMARK    7  A    between atoms: C_31  and  C_32
REMARK                            x       y       z     vdW  Elec       q    Type
REMARK                         _______ _______ _______ _____ _____    ______ ____
ROOT
ATOM      1  O   UNL     1     111.536 129.438 135.705  0.00  0.00    +0.000 OA
ATOM      2  O   UNL     1     111.163 129.442 138.538  0.00  0.00    +0.000 OA
ATOM      3  O   UNL     1     111.646 126.949 137.177  0.00  0.00    +0.000 OA
ATOM      4  O   UNL     1     111.780 128.211 134.987  0.00  0.00    +0.000 OA
ATOM      5  C   UNL     1     111.349 129.440 137.122  0.00  0.00    +0.000 A 
ATOM      6  C   UNL     1     111.492 129.030 136.420  0.00  0.00    +0.000 A 
ATOM      7  C   UNL     1     111.305 129.032 137.837  0.00  0.00    +0.000 A 
ATOM      8  C   UNL     1     111.590 128.211 136.435  0.00  0.00    +0.000 A 
ATOM      9  C   UNL     1     111.403 128.212 137.851  0.00  0.00    +0.000 A 
ATOM     10  C   UNL     1     111.546 127.802 137.150  0.00  0.00    +0.000 A 
ATOM     11  C   UNL     1     111.738 127.794 135.697  0.00  0.00    +0.000 A 
ATOM     12  C   UNL     1     111.841 126.942 135.705  0.00  0.00    +0.000 A 
ATOM     13  C   UNL     1     111.795 126.516 136.450  0.00  0.00    +0.000 A 
ENDROOT
BRANCH   5  19
ATOM     14  O   UNL     1     110.495 130.582 137.033  0.00  0.00    +0.000 OA
ATOM     15  O   UNL     1     112.465 132.070 137.211  0.00  0.00    +0.000 OA
ATOM     16  O   UNL     1     110.954 132.716 137.063  0.00  0.00    +0.000 OA
ATOM     17  C   UNL     1     111.908 130.755 137.167  0.00  0.00    +0.000 C 
ATOM     18  C   UNL     1     111.809 131.574 137.152  0.00  0.00    +0.000 C 
ATOM     19  C   UNL     1     111.251 130.259 137.107  0.00  0.00    +0.000 C 
ATOM     20  C   UNL     1     111.054 131.897 137.078  0.00  0.00    +0.000 C 
ATOM     21  C   UNL     1     110.397 131.401 137.019  0.00  0.00    +0.000 C 
BRANCH  17  22
ATOM     22  O   UNL     1     112.663 130.432 137.241  0.00  0.00    +0.000 OA
BRANCH  22  24
ATOM     23  O   UNL     1     113.367 131.137 138.265  0.00  0.00    +0.000 OA
ATOM     24  C   UNL     1     113.294 130.908 137.476  0.00  0.00    +0.000 C 
ATOM     25  C   UNL     1     113.853 131.156 136.922  0.00  0.00    +0.000 C 
ENDBRANCH  22  24
ENDBRANCH  17  22
BRANCH  21  26
ATOM     26  C   UNL     1     109.641 131.725 136.944  0.00  0.00    +0.000 C 
BRANCH  26  27
ATOM     27  O   UNL     1     109.008 131.245 136.721  0.00  0.00    +0.000 OA
BRANCH  27  29
ATOM     28  O   UNL     1     107.859 131.794 137.371  0.00  0.00    +0.000 OA
ATOM     29  C   UNL     1     108.246 131.560 136.681  0.00  0.00    +0.000 C 
ATOM     30  C   UNL     1     107.872 131.641 135.950  0.00  0.00    +0.000 C 
ENDBRANCH  27  29
ENDBRANCH  26  27
ENDBRANCH  21  26
ENDBRANCH   5  19
BRANCH  13  33
ATOM     31  O   UNL     1     113.467 124.231 136.836  0.00  0.00    +0.000 OA
ATOM     32  O   UNL     1     112.187 123.240 136.518  0.00  0.00    +0.000 OA
ATOM     33  C   UNL     1     111.893 125.697 136.467  0.00  0.00    +0.000 A 
ATOM     34  C   UNL     1     112.631 125.373 136.643  0.00  0.00    +0.000 A 
ATOM     35  C   UNL     1     111.252 125.202 136.308  0.00  0.00    +0.000 A 
ATOM     36  C   UNL     1     112.728 124.554 136.660  0.00  0.00    +0.000 A 
ATOM     37  C   UNL     1     111.351 124.382 136.325  0.00  0.00    +0.000 A 
ATOM     38  C   UNL     1     112.089 124.059 136.501  0.00  0.00    +0.000 A 
ENDBRANCH  13  33
TORSDOF 7
ENDMDL
MODEL 8
REMARK VINA RESULT:      -8.9      6.523      8.452
REMARK  Name = 44257917
REMARK  7 active torsions:
REMARK  status: ('A' for Active; 'I' for Inactive)
REMARK    1  A    between atoms: O_2  and  C_14
REMARK    2  A    between atoms: O_2  and  C_26
REMARK    3  A    between atoms: O_5  and  C_20
REMARK    4  A    between atoms: O_5  and  C_29
REMARK    5  A    between atoms: C_16  and  C_19
REMARK    6  A    between atoms: C_18  and  C_20
REMARK    7  A    between atoms: C_31  and  C_32
REMARK                            x       y       z     vdW  Elec       q    Type
REMARK                         _______ _______ _______ _____ _____    ______ ____
ROOT
ATOM      1  O   UNL     1     111.480 129.595 137.351  0.00  0.00    +0.000 OA
ATOM      2  O   UNL     1     109.350 127.790 137.961  0.00  0.00    +0.000 OA
ATOM      3  O   UNL     1     112.018 126.762 137.604  0.00  0.00    +0.000 OA
ATOM      4  O   UNL     1     112.829 129.120 137.165  0.00  0.00    +0.000 OA
ATOM      5  C   UNL     1     110.415 128.692 137.656  0.00  0.00    +0.000 A 
ATOM      6  C   UNL     1     111.213 128.828 137.495  0.00  0.00    +0.000 A 
ATOM      7  C   UNL     1     110.147 127.925 137.800  0.00  0.00    +0.000 A 
ATOM      8  C   UNL     1     111.743 128.196 137.477  0.00  0.00    +0.000 A 
ATOM      9  C   UNL     1     110.678 127.293 137.782  0.00  0.00    +0.000 A 
ATOM     10  C   UNL     1     111.475 127.429 137.620  0.00  0.00    +0.000 A 
ATOM     11  C   UNL     1     112.571 128.350 137.307  0.00  0.00    +0.000 A 
ATOM     12  C   UNL     1     113.128 127.696 137.287  0.00  0.00    +0.000 A 
ATOM     13  C   UNL     1     112.850 126.897 137.437  0.00  0.00    +0.000 A 
ENDROOT
BRANCH   5  19
ATOM     14  O   UNL     1     109.741 129.721 138.384  0.00  0.00    +0.000 OA
ATOM     15  O   UNL     1     108.584 130.428 136.312  0.00  0.00    +0.000 OA
ATOM     16  O   UNL     1     108.296 131.221 137.730  0.00  0.00    +0.000 OA
ATOM     17  C   UNL     1     109.499 129.560 136.984  0.00  0.00    +0.000 C 
ATOM     18  C   UNL     1     108.970 130.192 137.003  0.00  0.00    +0.000 C 
ATOM     19  C   UNL     1     109.885 129.324 137.674  0.00  0.00    +0.000 C 
ATOM     20  C   UNL     1     108.825 130.589 137.711  0.00  0.00    +0.000 C 
ATOM     21  C   UNL     1     109.211 130.353 138.401  0.00  0.00    +0.000 C 
BRANCH  17  22
ATOM     22  O   UNL     1     109.644 129.163 136.276  0.00  0.00    +0.000 OA
BRANCH  22  24
ATOM     23  O   UNL     1     108.405 128.980 135.587  0.00  0.00    +0.000 OA
ATOM     24  C   UNL     1     109.163 129.302 135.620  0.00  0.00    +0.000 C 
ATOM     25  C   UNL     1     109.441 129.765 134.995  0.00  0.00    +0.000 C 
ENDBRANCH  22  24
ENDBRANCH  17  22
BRANCH  21  26
ATOM     26  C   UNL     1     109.067 130.750 139.111  0.00  0.00    +0.000 C 
BRANCH  26  27
ATOM     27  O   UNL     1     109.370 130.453 139.818  0.00  0.00    +0.000 OA
BRANCH  27  29
ATOM     28  O   UNL     1     109.702 131.538 140.687  0.00  0.00    +0.000 OA
ATOM     29  C   UNL     1     109.252 130.866 140.523  0.00  0.00    +0.000 C 
ATOM     30  C   UNL     1     108.685 130.607 141.063  0.00  0.00    +0.000 C 
ENDBRANCH  27  29
ENDBRANCH  26  27
ENDBRANCH  21  26
ENDBRANCH   5  19
BRANCH  13  33
ATOM     31  O   UNL     1     114.015 124.684 136.055  0.00  0.00    +0.000 OA
ATOM     32  O   UNL     1     114.962 124.362 137.367  0.00  0.00    +0.000 OA
ATOM     33  C   UNL     1     113.378 126.263 137.419  0.00  0.00    +0.000 A 
ATOM     34  C   UNL     1     113.432 125.790 136.746  0.00  0.00    +0.000 A 
ATOM     35  C   UNL     1     113.851 126.103 138.076  0.00  0.00    +0.000 A 
ATOM     36  C   UNL     1     113.961 125.157 136.729  0.00  0.00    +0.000 A 
ATOM     37  C   UNL     1     114.380 125.469 138.058  0.00  0.00    +0.000 A 
ATOM     38  C   UNL     1     114.434 124.996 137.384  0.00  0.00    +0.000 A 
ENDBRANCH  13  33
TORSDOF 7
ENDMDL
MODEL 9
REMARK VINA RESULT:      -8.9      6.410      8.019
REMARK  Name = 44257917
REMARK  7 active torsions:
REMARK  status: ('A' for Active; 'I' for Inactive)
REMARK    1  A    between atoms: O_2  and  C_14
REMARK    2  A    between atoms: O_2  and  C_26
REMARK    3  A    between atoms: O_5  and  C_20
REMARK    4  A    between atoms: O_5  and  C_29
REMARK    5  A    between atoms: C_16  and  C_19
REMARK    6  A    between atoms: C_18  and  C_20
REMARK    7  A    between atoms: C_31  and  C_32
REMARK                            x       y       z     vdW  Elec       q    Type
REMARK                         _______ _______ _______ _____ _____    ______ ____
ROOT
ATOM      1  O   UNL     1     109.131 128.842 138.158  0.00  0.00    +0.000 OA
ATOM      2  O   UNL     1     111.080 130.151 136.528  0.00  0.00    +0.000 OA
ATOM      3  O   UNL     1     111.074 127.274 136.693  0.00  0.00    +0.000 OA
ATOM      4  O   UNL     1     109.095 127.405 138.267  0.00  0.00    +0.000 OA
ATOM      5  C   UNL     1     110.106 129.497 137.343  0.00  0.00    +0.000 A 
ATOM      6  C   UNL     1     109.776 128.803 137.645  0.00  0.00    +0.000 A 
ATOM      7  C   UNL     1     110.751 129.458 136.830  0.00  0.00    +0.000 A 
ATOM      8  C   UNL     1     110.092 128.071 137.434  0.00  0.00    +0.000 A 
ATOM      9  C   UNL     1     111.066 128.725 136.619  0.00  0.00    +0.000 A 
ATOM     10  C   UNL     1     110.736 128.032 136.921  0.00  0.00    +0.000 A 
ATOM     11  C   UNL     1     109.739 127.356 137.755  0.00  0.00    +0.000 A 
ATOM     12  C   UNL     1     110.063 126.590 137.539  0.00  0.00    +0.000 A 
ATOM     13  C   UNL     1     110.735 126.549 137.004  0.00  0.00    +0.000 A 
ENDROOT
BRANCH   5  19
ATOM     14  O   UNL     1     109.195 130.569 137.095  0.00  0.00    +0.000 OA
ATOM     15  O   UNL     1     110.032 131.746 139.105  0.00  0.00    +0.000 OA
ATOM     16  O   UNL     1     108.842 132.426 138.187  0.00  0.00    +0.000 OA
ATOM     17  C   UNL     1     110.070 130.621 138.224  0.00  0.00    +0.000 C 
ATOM     18  C   UNL     1     109.753 131.354 138.435  0.00  0.00    +0.000 C 
ATOM     19  C   UNL     1     109.790 130.229 137.554  0.00  0.00    +0.000 C 
ATOM     20  C   UNL     1     109.158 131.694 137.976  0.00  0.00    +0.000 C 
ATOM     21  C   UNL     1     108.879 131.302 137.306  0.00  0.00    +0.000 C 
BRANCH  17  22
ATOM     22  O   UNL     1     110.664 130.282 138.683  0.00  0.00    +0.000 OA
BRANCH  22  24
ATOM     23  O   UNL     1     111.618 131.284 139.040  0.00  0.00    +0.000 OA
ATOM     24  C   UNL     1     111.048 130.730 139.260  0.00  0.00    +0.000 C 
ATOM     25  C   UNL     1     110.861 130.624 140.057  0.00  0.00    +0.000 C 
ENDBRANCH  22  24
ENDBRANCH  17  22
BRANCH  21  26
ATOM     26  C   UNL     1     108.283 131.642 136.847  0.00  0.00    +0.000 C 
BRANCH  26  27
ATOM     27  O   UNL     1     108.036 131.271 136.153  0.00  0.00    +0.000 OA
BRANCH  27  29
ATOM     28  O   UNL     1     106.641 131.447 135.898  0.00  0.00    +0.000 OA
ATOM     29  C   UNL     1     107.427 131.601 135.703  0.00  0.00    +0.000 C 
ATOM     30  C   UNL     1     107.606 132.085 135.060  0.00  0.00    +0.000 C 
ENDBRANCH  27  29
ENDBRANCH  26  27
ENDBRANCH  21  26
ENDBRANCH   5  19
BRANCH  13  33
ATOM     31  O   UNL     1     112.455 124.339 137.570  0.00  0.00    +0.000 OA
ATOM     32  O   UNL     1     112.004 123.624 136.154  0.00  0.00    +0.000 OA
ATOM     33  C   UNL     1     111.052 125.818 136.792  0.00  0.00    +0.000 A 
ATOM     34  C   UNL     1     111.595 125.444 137.287  0.00  0.00    +0.000 A 
ATOM     35  C   UNL     1     110.826 125.461 136.083  0.00  0.00    +0.000 A 
ATOM     36  C   UNL     1     111.912 124.713 137.075  0.00  0.00    +0.000 A 
ATOM     37  C   UNL     1     111.144 124.729 135.871  0.00  0.00    +0.000 A 
ATOM     38  C   UNL     1     111.687 124.355 136.367  0.00  0.00    +0.000 A 
ENDBRANCH  13  33
TORSDOF 7
ENDMDL
MODEL 10
REMARK VINA RESULT:      -8.9      7.252      9.507
REMARK  Name = 44257917
REMARK  7 active torsions:
REMARK  status: ('A' for Active; 'I' for Inactive)
REMARK    1  A    between atoms: O_2  and  C_14
REMARK    2  A    between atoms: O_2  and  C_26
REMARK    3  A    between atoms: O_5  and  C_20
REMARK    4  A    between atoms: O_5  and  C_29
REMARK    5  A    between atoms: C_16  and  C_19
REMARK    6  A    between atoms: C_18  and  C_20
REMARK    7  A    between atoms: C_31  and  C_32
REMARK                            x       y       z     vdW  Elec       q    Type
REMARK                         _______ _______ _______ _____ _____    ______ ____
ROOT
ATOM      1  O   UNL     1     110.880 127.571 137.470  0.00  0.00    +0.000 OA
ATOM      2  O   UNL     1     112.139 127.646 134.906  0.00  0.00    +0.000 OA
ATOM      3  O   UNL     1     111.231 130.102 136.109  0.00  0.00    +0.000 OA
ATOM      4  O   UNL     1     110.411 128.778 138.106  0.00  0.00    +0.000 OA
ATOM      5  C   UNL     1     111.510 127.609 136.188  0.00  0.00    +0.000 A 
ATOM      6  C   UNL     1     111.148 128.000 136.818  0.00  0.00    +0.000 A 
ATOM      7  C   UNL     1     111.778 128.037 135.535  0.00  0.00    +0.000 A 
ATOM      8  C   UNL     1     111.054 128.819 136.796  0.00  0.00    +0.000 A 
ATOM      9  C   UNL     1     111.684 128.857 135.514  0.00  0.00    +0.000 A 
ATOM     10  C   UNL     1     111.323 129.247 136.143  0.00  0.00    +0.000 A 
ATOM     11  C   UNL     1     110.676 129.215 137.458  0.00  0.00    +0.000 A 
ATOM     12  C   UNL     1     110.576 130.068 137.441  0.00  0.00    +0.000 A 
ATOM     13  C   UNL     1     110.855 130.514 136.762  0.00  0.00    +0.000 A 
ENDROOT
BRANCH   5  19
ATOM     14  O   UNL     1     112.253 126.459 136.598  0.00  0.00    +0.000 OA
ATOM     15  O   UNL     1     110.588 124.991 135.504  0.00  0.00    +0.000 OA
ATOM     16  O   UNL     1     111.886 124.331 136.280  0.00  0.00    +0.000 OA
ATOM     17  C   UNL     1     111.048 126.300 135.845  0.00  0.00    +0.000 C 
ATOM     18  C   UNL     1     111.143 125.481 135.869  0.00  0.00    +0.000 C 
ATOM     19  C   UNL     1     111.603 126.789 136.210  0.00  0.00    +0.000 C 
ATOM     20  C   UNL     1     111.791 125.151 136.256  0.00  0.00    +0.000 C 
ATOM     21  C   UNL     1     112.346 125.640 136.621  0.00  0.00    +0.000 C 
BRANCH  17  22
ATOM     22  O   UNL     1     110.400 126.630 135.458  0.00  0.00    +0.000 OA
BRANCH  22  24
ATOM     23  O   UNL     1     109.185 126.079 135.971  0.00  0.00    +0.000 OA
ATOM     24  C   UNL     1     109.715 126.184 135.347  0.00  0.00    +0.000 C 
ATOM     25  C   UNL     1     109.559 125.842 134.612  0.00  0.00    +0.000 C 
ENDBRANCH  22  24
ENDBRANCH  17  22
BRANCH  21  26
ATOM     26  C   UNL     1     112.996 125.310 137.009  0.00  0.00    +0.000 C 
BRANCH  26  27
ATOM     27  O   UNL     1     113.734 125.675 136.960  0.00  0.00    +0.000 OA
BRANCH  27  29
ATOM     28  O   UNL     1     114.434 125.394 138.174  0.00  0.00    +0.000 OA
ATOM     29  C   UNL     1     114.383 125.347 137.352  0.00  0.00    +0.000 C 
ATOM     30  C   UNL     1     114.979 124.974 136.921  0.00  0.00    +0.000 C 
ENDBRANCH  27  29
ENDBRANCH  26  27
ENDBRANCH  21  26
ENDBRANCH   5  19
BRANCH  13  33
ATOM     31  O   UNL     1     109.370 132.814 135.940  0.00  0.00    +0.000 OA
ATOM     32  O   UNL     1     110.484 133.792 136.663  0.00  0.00    +0.000 OA
ATOM     33  C   UNL     1     110.762 131.333 136.737  0.00  0.00    +0.000 A 
ATOM     34  C   UNL     1     110.113 131.664 136.351  0.00  0.00    +0.000 A 
ATOM     35  C   UNL     1     111.320 131.823 137.099  0.00  0.00    +0.000 A 
ATOM     36  C   UNL     1     110.020 132.483 136.326  0.00  0.00    +0.000 A 
ATOM     37  C   UNL     1     111.226 132.642 137.074  0.00  0.00    +0.000 A 
ATOM     38  C   UNL     1     110.577 132.973 136.687  0.00  0.00    +0.000 A 
ENDBRANCH  13  33
TORSDOF 7
ENDMDL
