MODEL 1
REMARK VINA RESULT:     -10.0      0.000      0.000
REMARK  Name = 74819398
REMARK  7 active torsions:
REMARK  status: ('A' for Active; 'I' for Inactive)
REMARK    1  A    between atoms: O_2  and  C_20
REMARK    2  A    between atoms: O_2  and  C_22
REMARK    3  A    between atoms: O_6  and  C_21
REMARK    4  A    between atoms: O_6  and  C_32
REMARK    5  A    between atoms: C_18  and  C_21
REMARK    6  A    between atoms: C_23  and  C_31
REMARK    7  A    between atoms: C_32  and  C_35
REMARK                            x       y       z     vdW  Elec       q    Type
REMARK                         _______ _______ _______ _____ _____    ______ ____
ROOT
ATOM      1  O   UNL     1     112.933 130.043 136.241  0.00  0.00    +0.000 OA
ATOM      2  O   UNL     1     114.429 130.985 137.520  0.00  0.00    +0.000 OA
ATOM      3  O   UNL     1     115.348 130.582 136.210  0.00  0.00    +0.000 OA
ATOM      4  O   UNL     1     114.657 129.821 134.920  0.00  0.00    +0.000 OA
ATOM      5  C   UNL     1     114.083 130.604 136.876  0.00  0.00    +0.000 C 
ATOM      6  C   UNL     1     114.543 130.403 136.220  0.00  0.00    +0.000 C 
ATOM      7  C   UNL     1     113.278 130.424 136.886  0.00  0.00    +0.000 C 
ATOM      8  C   UNL     1     114.197 130.022 135.576  0.00  0.00    +0.000 C 
ATOM      9  C   UNL     1     113.392 129.842 135.586  0.00  0.00    +0.000 C 
ENDROOT
BRANCH   9  10
ATOM     10  O   UNL     1     113.046 129.461 134.940  0.00  0.00    +0.000 OA
BRANCH  10  14
ATOM     11  O   UNL     1     111.919 126.955 135.906  0.00  0.00    +0.000 OA
ATOM     12  O   UNL     1     110.189 128.914 134.675  0.00  0.00    +0.000 OA
ATOM     13  O   UNL     1     109.667 127.661 135.165  0.00  0.00    +0.000 OA
ATOM     14  C   UNL     1     112.397 128.965 135.054  0.00  0.00    +0.000 A 
ATOM     15  C   UNL     1     111.273 126.456 136.022  0.00  0.00    +0.000 C 
ATOM     16  C   UNL     1     111.816 127.689 135.544  0.00  0.00    +0.000 A 
ATOM     17  C   UNL     1     112.498 128.199 135.430  0.00  0.00    +0.000 A 
ATOM     18  C   UNL     1     111.065 127.925 135.297  0.00  0.00    +0.000 A 
ATOM     19  C   UNL     1     110.522 126.692 135.774  0.00  0.00    +0.000 C 
ATOM     20  C   UNL     1     111.614 129.210 134.797  0.00  0.00    +0.000 A 
ATOM     21  C   UNL     1     110.418 127.426 135.412  0.00  0.00    +0.000 C 
ATOM     22  C   UNL     1     110.944 128.687 134.919  0.00  0.00    +0.000 A 
BRANCH  15  25
ATOM     23  O   UNL     1     111.280 124.838 138.376  0.00  0.00    +0.000 OA
ATOM     24  O   UNL     1     111.686 123.520 137.470  0.00  0.00    +0.000 OA
ATOM     25  C   UNL     1     111.376 125.722 136.384  0.00  0.00    +0.000 A 
ATOM     26  C   UNL     1     111.276 125.648 137.199  0.00  0.00    +0.000 A 
ATOM     27  C   UNL     1     111.579 125.063 135.930  0.00  0.00    +0.000 A 
ATOM     28  C   UNL     1     111.379 124.913 137.562  0.00  0.00    +0.000 A 
ATOM     29  C   UNL     1     111.683 124.330 136.293  0.00  0.00    +0.000 A 
ATOM     30  C   UNL     1     111.583 124.254 137.108  0.00  0.00    +0.000 A 
ENDBRANCH  15  25
ENDBRANCH  10  14
ENDBRANCH   9  10
BRANCH   7  31
ATOM     31  C   UNL     1     112.819 130.625 137.541  0.00  0.00    +0.000 C 
BRANCH  31  32
ATOM     32  O   UNL     1     112.353 130.053 137.910  0.00  0.00    +0.000 OA
BRANCH  32  34
ATOM     33  O   UNL     1     111.755 131.032 138.761  0.00  0.00    +0.000 OA
ATOM     34  C   UNL     1     111.746 130.281 138.420  0.00  0.00    +0.000 C 
BRANCH  34  38
ATOM     35  O   UNL     1     109.016 129.494 138.118  0.00  0.00    +0.000 OA
ATOM     36  O   UNL     1     110.781 127.936 139.737  0.00  0.00    +0.000 OA
ATOM     37  O   UNL     1     109.282 128.193 139.097  0.00  0.00    +0.000 OA
ATOM     38  C   UNL     1     111.131 129.759 138.590  0.00  0.00    +0.000 A 
ATOM     39  C   UNL     1     111.264 129.108 139.079  0.00  0.00    +0.000 A 
ATOM     40  C   UNL     1     110.381 129.887 138.269  0.00  0.00    +0.000 A 
ATOM     41  C   UNL     1     109.765 129.366 138.438  0.00  0.00    +0.000 A 
ATOM     42  C   UNL     1     110.648 128.587 139.248  0.00  0.00    +0.000 A 
ATOM     43  C   UNL     1     109.899 128.715 138.928  0.00  0.00    +0.000 A 
ENDBRANCH  34  38
ENDBRANCH  32  34
ENDBRANCH  31  32
ENDBRANCH   7  31
TORSDOF 7
ENDMDL
MODEL 2
REMARK VINA RESULT:     -10.0      1.715      4.883
REMARK  Name = 74819398
REMARK  7 active torsions:
REMARK  status: ('A' for Active; 'I' for Inactive)
REMARK    1  A    between atoms: O_2  and  C_20
REMARK    2  A    between atoms: O_2  and  C_22
REMARK    3  A    between atoms: O_6  and  C_21
REMARK    4  A    between atoms: O_6  and  C_32
REMARK    5  A    between atoms: C_18  and  C_21
REMARK    6  A    between atoms: C_23  and  C_31
REMARK    7  A    between atoms: C_32  and  C_35
REMARK                            x       y       z     vdW  Elec       q    Type
REMARK                         _______ _______ _______ _____ _____    ______ ____
ROOT
ATOM      1  O   UNL     1     110.209 128.223 135.471  0.00  0.00    +0.000 OA
ATOM      2  O   UNL     1     108.277 127.347 135.988  0.00  0.00    +0.000 OA
ATOM      3  O   UNL     1     107.865 128.936 135.822  0.00  0.00    +0.000 OA
ATOM      4  O   UNL     1     109.015 130.050 135.422  0.00  0.00    +0.000 OA
ATOM      5  C   UNL     1     108.853 127.903 135.788  0.00  0.00    +0.000 C 
ATOM      6  C   UNL     1     108.646 128.698 135.705  0.00  0.00    +0.000 C 
ATOM      7  C   UNL     1     109.634 127.665 135.671  0.00  0.00    +0.000 C 
ATOM      8  C   UNL     1     109.222 129.254 135.505  0.00  0.00    +0.000 C 
ATOM      9  C   UNL     1     110.003 129.016 135.388  0.00  0.00    +0.000 C 
ENDROOT
BRANCH   9  10
ATOM     10  O   UNL     1     110.577 129.574 135.187  0.00  0.00    +0.000 OA
BRANCH  10  14
ATOM     11  O   UNL     1     112.553 129.565 137.328  0.00  0.00    +0.000 OA
ATOM     12  O   UNL     1     113.379 128.968 134.624  0.00  0.00    +0.000 OA
ATOM     13  O   UNL     1     114.329 128.972 135.710  0.00  0.00    +0.000 OA
ATOM     14  C   UNL     1     111.355 129.473 135.443  0.00  0.00    +0.000 A 
ATOM     15  C   UNL     1     113.329 129.465 137.587  0.00  0.00    +0.000 C 
ATOM     16  C   UNL     1     112.368 129.467 136.529  0.00  0.00    +0.000 A 
ATOM     17  C   UNL     1     111.555 129.574 136.273  0.00  0.00    +0.000 A 
ATOM     18  C   UNL     1     112.960 129.270 135.990  0.00  0.00    +0.000 A 
ATOM     19  C   UNL     1     113.921 129.268 137.048  0.00  0.00    +0.000 C 
ATOM     20  C   UNL     1     111.973 129.268 134.881  0.00  0.00    +0.000 A 
ATOM     21  C   UNL     1     113.736 129.170 136.249  0.00  0.00    +0.000 C 
ATOM     22  C   UNL     1     112.780 129.165 135.156  0.00  0.00    +0.000 A 
BRANCH  15  25
ATOM     23  O   UNL     1     114.353 131.081 139.709  0.00  0.00    +0.000 OA
ATOM     24  O   UNL     1     114.070 129.856 140.779  0.00  0.00    +0.000 OA
ATOM     25  C   UNL     1     113.514 129.563 138.385  0.00  0.00    +0.000 A 
ATOM     26  C   UNL     1     113.841 130.273 138.648  0.00  0.00    +0.000 A 
ATOM     27  C   UNL     1     113.372 128.950 138.920  0.00  0.00    +0.000 A 
ATOM     28  C   UNL     1     114.027 130.371 139.446  0.00  0.00    +0.000 A 
ATOM     29  C   UNL     1     113.558 129.049 139.717  0.00  0.00    +0.000 A 
ATOM     30  C   UNL     1     113.885 129.759 139.981  0.00  0.00    +0.000 A 
ENDBRANCH  15  25
ENDBRANCH  10  14
ENDBRANCH   9  10
BRANCH   7  31
ATOM     31  C   UNL     1     109.840 126.871 135.754  0.00  0.00    +0.000 C 
BRANCH  31  32
ATOM     32  O   UNL     1     110.372 126.642 136.341  0.00  0.00    +0.000 OA
BRANCH  32  34
ATOM     33  O   UNL     1     110.496 125.336 135.774  0.00  0.00    +0.000 OA
ATOM     34  C   UNL     1     110.782 125.930 136.271  0.00  0.00    +0.000 C 
BRANCH  34  38
ATOM     35  O   UNL     1     112.126 125.602 138.772  0.00  0.00    +0.000 OA
ATOM     36  O   UNL     1     113.613 125.539 136.331  0.00  0.00    +0.000 OA
ATOM     37  O   UNL     1     113.565 125.451 137.978  0.00  0.00    +0.000 OA
ATOM     38  C   UNL     1     111.478 125.810 136.697  0.00  0.00    +0.000 A 
ATOM     39  C   UNL     1     112.197 125.734 136.301  0.00  0.00    +0.000 A 
ATOM     40  C   UNL     1     111.455 125.766 137.521  0.00  0.00    +0.000 A 
ATOM     41  C   UNL     1     112.150 125.646 137.948  0.00  0.00    +0.000 A 
ATOM     42  C   UNL     1     112.893 125.615 136.727  0.00  0.00    +0.000 A 
ATOM     43  C   UNL     1     112.869 125.571 137.551  0.00  0.00    +0.000 A 
ENDBRANCH  34  38
ENDBRANCH  32  34
ENDBRANCH  31  32
ENDBRANCH   7  31
TORSDOF 7
ENDMDL
MODEL 3
REMARK VINA RESULT:     -10.0      1.495      4.893
REMARK  Name = 74819398
REMARK  7 active torsions:
REMARK  status: ('A' for Active; 'I' for Inactive)
REMARK    1  A    between atoms: O_2  and  C_20
REMARK    2  A    between atoms: O_2  and  C_22
REMARK    3  A    between atoms: O_6  and  C_21
REMARK    4  A    between atoms: O_6  and  C_32
REMARK    5  A    between atoms: C_18  and  C_21
REMARK    6  A    between atoms: C_23  and  C_31
REMARK    7  A    between atoms: C_32  and  C_35
REMARK                            x       y       z     vdW  Elec       q    Type
REMARK                         _______ _______ _______ _____ _____    ______ ____
ROOT
ATOM      1  O   UNL     1     112.575 125.694 136.252  0.00  0.00    +0.000 OA
ATOM      2  O   UNL     1     111.609 123.740 136.372  0.00  0.00    +0.000 OA
ATOM      3  O   UNL     1     112.956 123.479 137.288  0.00  0.00    +0.000 OA
ATOM      4  O   UNL     1     114.049 124.694 137.513  0.00  0.00    +0.000 OA
ATOM      5  C   UNL     1     112.155 124.348 136.484  0.00  0.00    +0.000 C 
ATOM      6  C   UNL     1     112.829 124.217 136.943  0.00  0.00    +0.000 C 
ATOM      7  C   UNL     1     112.028 125.087 136.139  0.00  0.00    +0.000 C 
ATOM      8  C   UNL     1     113.375 124.825 137.055  0.00  0.00    +0.000 C 
ATOM      9  C   UNL     1     113.248 125.564 136.709  0.00  0.00    +0.000 C 
ENDROOT
BRANCH   9  10
ATOM     10  O   UNL     1     113.795 126.171 136.822  0.00  0.00    +0.000 OA
BRANCH  10  14
ATOM     11  O   UNL     1     112.360 128.457 137.915  0.00  0.00    +0.000 OA
ATOM     12  O   UNL     1     113.747 128.719 135.394  0.00  0.00    +0.000 OA
ATOM     13  O   UNL     1     113.025 129.830 135.966  0.00  0.00    +0.000 OA
ATOM     14  C   UNL     1     113.554 126.958 136.767  0.00  0.00    +0.000 A 
ATOM     15  C   UNL     1     112.117 129.244 137.863  0.00  0.00    +0.000 C 
ATOM     16  C   UNL     1     112.824 128.128 137.318  0.00  0.00    +0.000 A 
ATOM     17  C   UNL     1     113.070 127.307 137.385  0.00  0.00    +0.000 A 
ATOM     18  C   UNL     1     113.046 128.585 136.668  0.00  0.00    +0.000 A 
ATOM     19  C   UNL     1     112.339 129.701 137.213  0.00  0.00    +0.000 C 
ATOM     20  C   UNL     1     113.785 127.435 136.089  0.00  0.00    +0.000 A 
ATOM     21  C   UNL     1     112.803 129.372 136.616  0.00  0.00    +0.000 C 
ATOM     22  C   UNL     1     113.530 128.254 136.040  0.00  0.00    +0.000 A 
BRANCH  15  25
ATOM     23  O   UNL     1     111.904 130.662 140.334  0.00  0.00    +0.000 OA
ATOM     24  O   UNL     1     110.259 130.563 140.250  0.00  0.00    +0.000 OA
ATOM     25  C   UNL     1     111.652 129.574 138.460  0.00  0.00    +0.000 A 
ATOM     26  C   UNL     1     112.011 129.953 139.098  0.00  0.00    +0.000 A 
ATOM     27  C   UNL     1     110.830 129.524 138.417  0.00  0.00    +0.000 A 
ATOM     28  C   UNL     1     111.546 130.283 139.696  0.00  0.00    +0.000 A 
ATOM     29  C   UNL     1     110.366 129.854 139.014  0.00  0.00    +0.000 A 
ATOM     30  C   UNL     1     110.724 130.233 139.654  0.00  0.00    +0.000 A 
ENDBRANCH  15  25
ENDBRANCH  10  14
ENDBRANCH   9  10
BRANCH   7  31
ATOM     31  C   UNL     1     111.354 125.217 135.681  0.00  0.00    +0.000 C 
BRANCH  31  32
ATOM     32  O   UNL     1     110.902 125.897 135.797  0.00  0.00    +0.000 OA
BRANCH  32  34
ATOM     33  O   UNL     1     110.157 125.606 134.613  0.00  0.00    +0.000 OA
ATOM     34  C   UNL     1     110.323 126.106 135.248  0.00  0.00    +0.000 C 
BRANCH  34  38
ATOM     35  O   UNL     1     109.996 128.874 134.617  0.00  0.00    +0.000 OA
ATOM     36  O   UNL     1     108.163 127.587 136.392  0.00  0.00    +0.000 OA
ATOM     37  O   UNL     1     108.665 128.939 135.590  0.00  0.00    +0.000 OA
ATOM     38  C   UNL     1     109.908 126.814 135.334  0.00  0.00    +0.000 A 
ATOM     39  C   UNL     1     109.243 126.846 135.820  0.00  0.00    +0.000 A 
ATOM     40  C   UNL     1     110.159 127.490 134.933  0.00  0.00    +0.000 A 
ATOM     41  C   UNL     1     109.745 128.198 135.018  0.00  0.00    +0.000 A 
ATOM     42  C   UNL     1     108.828 127.554 135.906  0.00  0.00    +0.000 A 
ATOM     43  C   UNL     1     109.080 128.230 135.505  0.00  0.00    +0.000 A 
ENDBRANCH  34  38
ENDBRANCH  32  34
ENDBRANCH  31  32
ENDBRANCH   7  31
TORSDOF 7
ENDMDL
MODEL 4
REMARK VINA RESULT:      -9.9      2.328      3.295
REMARK  Name = 74819398
REMARK  7 active torsions:
REMARK  status: ('A' for Active; 'I' for Inactive)
REMARK    1  A    between atoms: O_2  and  C_20
REMARK    2  A    between atoms: O_2  and  C_22
REMARK    3  A    between atoms: O_6  and  C_21
REMARK    4  A    between atoms: O_6  and  C_32
REMARK    5  A    between atoms: C_18  and  C_21
REMARK    6  A    between atoms: C_23  and  C_31
REMARK    7  A    between atoms: C_32  and  C_35
REMARK                            x       y       z     vdW  Elec       q    Type
REMARK                         _______ _______ _______ _____ _____    ______ ____
ROOT
ATOM      1  O   UNL     1     109.856 128.987 136.501  0.00  0.00    +0.000 OA
ATOM      2  O   UNL     1     108.325 130.332 137.283  0.00  0.00    +0.000 OA
ATOM      3  O   UNL     1     108.253 130.681 135.672  0.00  0.00    +0.000 OA
ATOM      4  O   UNL     1     109.250 129.900 134.614  0.00  0.00    +0.000 OA
ATOM      5  C   UNL     1     108.824 129.942 136.755  0.00  0.00    +0.000 C 
ATOM      6  C   UNL     1     108.788 130.116 135.949  0.00  0.00    +0.000 C 
ATOM      7  C   UNL     1     109.358 129.377 137.031  0.00  0.00    +0.000 C 
ATOM      8  C   UNL     1     109.286 129.726 135.420  0.00  0.00    +0.000 C 
ATOM      9  C   UNL     1     109.820 129.161 135.696  0.00  0.00    +0.000 C 
ENDROOT
BRANCH   9  10
ATOM     10  O   UNL     1     110.319 128.771 135.166  0.00  0.00    +0.000 OA
BRANCH  10  14
ATOM     11  O   UNL     1     112.039 126.589 136.041  0.00  0.00    +0.000 OA
ATOM     12  O   UNL     1     109.483 125.992 134.833  0.00  0.00    +0.000 OA
ATOM     13  O   UNL     1     110.362 124.937 135.278  0.00  0.00    +0.000 OA
ATOM     14  C   UNL     1     110.462 127.963 135.254  0.00  0.00    +0.000 A 
ATOM     15  C   UNL     1     112.185 125.782 136.130  0.00  0.00    +0.000 C 
ATOM     16  C   UNL     1     111.334 126.846 135.697  0.00  0.00    +0.000 A 
ATOM     17  C   UNL     1     111.194 127.689 135.611  0.00  0.00    +0.000 A 
ATOM     18  C   UNL     1     110.774 126.296 135.443  0.00  0.00    +0.000 A 
ATOM     19  C   UNL     1     111.626 125.232 135.875  0.00  0.00    +0.000 C 
ATOM     20  C   UNL     1     109.879 127.389 134.989  0.00  0.00    +0.000 A 
ATOM     21  C   UNL     1     110.921 125.489 135.532  0.00  0.00    +0.000 C 
ATOM     22  C   UNL     1     110.036 126.550 135.084  0.00  0.00    +0.000 A 
BRANCH  15  25
ATOM     23  O   UNL     1     113.712 123.734 137.410  0.00  0.00    +0.000 OA
ATOM     24  O   UNL     1     115.005 124.755 137.502  0.00  0.00    +0.000 OA
ATOM     25  C   UNL     1     112.890 125.526 136.473  0.00  0.00    +0.000 A 
ATOM     26  C   UNL     1     112.948 124.758 136.770  0.00  0.00    +0.000 A 
ATOM     27  C   UNL     1     113.537 126.036 136.519  0.00  0.00    +0.000 A 
ATOM     28  C   UNL     1     113.653 124.501 137.113  0.00  0.00    +0.000 A 
ATOM     29  C   UNL     1     114.241 125.779 136.862  0.00  0.00    +0.000 A 
ATOM     30  C   UNL     1     114.300 125.012 137.159  0.00  0.00    +0.000 A 
ENDBRANCH  15  25
ENDBRANCH  10  14
ENDBRANCH   9  10
BRANCH   7  31
ATOM     31  C   UNL     1     109.394 129.203 137.836  0.00  0.00    +0.000 C 
BRANCH  31  32
ATOM     32  O   UNL     1     109.997 128.721 138.128  0.00  0.00    +0.000 OA
BRANCH  32  34
ATOM     33  O   UNL     1     109.376 128.701 139.414  0.00  0.00    +0.000 OA
ATOM     34  C   UNL     1     109.947 128.415 138.892  0.00  0.00    +0.000 C 
BRANCH  34  38
ATOM     35  O   UNL     1     112.555 127.612 139.743  0.00  0.00    +0.000 OA
ATOM     36  O   UNL     1     110.470 125.672 139.500  0.00  0.00    +0.000 OA
ATOM     37  O   UNL     1     112.034 126.051 139.865  0.00  0.00    +0.000 OA
ATOM     38  C   UNL     1     110.468 127.823 139.135  0.00  0.00    +0.000 A 
ATOM     39  C   UNL     1     110.208 127.044 139.196  0.00  0.00    +0.000 A 
ATOM     40  C   UNL     1     111.250 128.013 139.317  0.00  0.00    +0.000 A 
ATOM     41  C   UNL     1     111.773 127.422 139.560  0.00  0.00    +0.000 A 
ATOM     42  C   UNL     1     110.730 126.453 139.439  0.00  0.00    +0.000 A 
ATOM     43  C   UNL     1     111.512 126.642 139.621  0.00  0.00    +0.000 A 
ENDBRANCH  34  38
ENDBRANCH  32  34
ENDBRANCH  31  32
ENDBRANCH   7  31
TORSDOF 7
ENDMDL
MODEL 5
REMARK VINA RESULT:      -9.9      2.157      4.292
REMARK  Name = 74819398
REMARK  7 active torsions:
REMARK  status: ('A' for Active; 'I' for Inactive)
REMARK    1  A    between atoms: O_2  and  C_20
REMARK    2  A    between atoms: O_2  and  C_22
REMARK    3  A    between atoms: O_6  and  C_21
REMARK    4  A    between atoms: O_6  and  C_32
REMARK    5  A    between atoms: C_18  and  C_21
REMARK    6  A    between atoms: C_23  and  C_31
REMARK    7  A    between atoms: C_32  and  C_35
REMARK                            x       y       z     vdW  Elec       q    Type
REMARK                         _______ _______ _______ _____ _____    ______ ____
ROOT
ATOM      1  O   UNL     1     113.408 129.190 139.173  0.00  0.00    +0.000 OA
ATOM      2  O   UNL     1     114.493 128.454 140.919  0.00  0.00    +0.000 OA
ATOM      3  O   UNL     1     114.945 130.041 140.916  0.00  0.00    +0.000 OA
ATOM      4  O   UNL     1     114.372 131.060 139.752  0.00  0.00    +0.000 OA
ATOM      5  C   UNL     1     114.206 128.963 140.336  0.00  0.00    +0.000 C 
ATOM      6  C   UNL     1     114.433 129.757 140.335  0.00  0.00    +0.000 C 
ATOM      7  C   UNL     1     113.694 128.679 139.755  0.00  0.00    +0.000 C 
ATOM      8  C   UNL     1     114.146 130.266 139.753  0.00  0.00    +0.000 C 
ATOM      9  C   UNL     1     113.634 129.982 139.172  0.00  0.00    +0.000 C 
ENDROOT
BRANCH   9  10
ATOM     10  O   UNL     1     113.347 130.493 138.590  0.00  0.00    +0.000 OA
BRANCH  10  14
ATOM     11  O   UNL     1     111.268 129.432 136.849  0.00  0.00    +0.000 OA
ATOM     12  O   UNL     1     113.963 129.708 135.844  0.00  0.00    +0.000 OA
ATOM     13  O   UNL     1     112.907 129.187 135.011  0.00  0.00    +0.000 OA
ATOM     14  C   UNL     1     113.110 130.192 137.859  0.00  0.00    +0.000 A 
ATOM     15  C   UNL     1     111.027 129.131 136.119  0.00  0.00    +0.000 C 
ATOM     16  C   UNL     1     112.055 129.651 136.966  0.00  0.00    +0.000 A 
ATOM     17  C   UNL     1     112.293 129.962 137.731  0.00  0.00    +0.000 A 
ATOM     18  C   UNL     1     112.602 129.569 136.354  0.00  0.00    +0.000 A 
ATOM     19  C   UNL     1     111.574 129.049 135.507  0.00  0.00    +0.000 C 
ATOM     20  C   UNL     1     113.680 130.107 137.221  0.00  0.00    +0.000 A 
ATOM     21  C   UNL     1     112.360 129.269 135.624  0.00  0.00    +0.000 C 
ATOM     22  C   UNL     1     113.423 129.794 136.463  0.00  0.00    +0.000 A 
BRANCH  15  25
ATOM     23  O   UNL     1     108.311 129.847 135.600  0.00  0.00    +0.000 OA
ATOM     24  O   UNL     1     107.880 128.255 135.650  0.00  0.00    +0.000 OA
ATOM     25  C   UNL     1     110.240 128.912 136.002  0.00  0.00    +0.000 A 
ATOM     26  C   UNL     1     109.669 129.489 135.860  0.00  0.00    +0.000 A 
ATOM     27  C   UNL     1     110.026 128.116 136.027  0.00  0.00    +0.000 A 
ATOM     28  C   UNL     1     108.882 129.271 135.742  0.00  0.00    +0.000 A 
ATOM     29  C   UNL     1     109.239 127.897 135.910  0.00  0.00    +0.000 A 
ATOM     30  C   UNL     1     108.667 128.474 135.767  0.00  0.00    +0.000 A 
ENDBRANCH  15  25
ENDBRANCH  10  14
ENDBRANCH   9  10
BRANCH   7  31
ATOM     31  C   UNL     1     113.468 127.886 139.757  0.00  0.00    +0.000 C 
BRANCH  31  32
ATOM     32  O   UNL     1     113.615 127.414 139.096  0.00  0.00    +0.000 OA
BRANCH  32  34
ATOM     33  O   UNL     1     112.777 126.393 139.638  0.00  0.00    +0.000 OA
ATOM     34  C   UNL     1     113.258 126.674 139.030  0.00  0.00    +0.000 C 
BRANCH  34  38
ATOM     35  O   UNL     1     114.882 124.855 137.540  0.00  0.00    +0.000 OA
ATOM     36  O   UNL     1     112.377 125.732 136.480  0.00  0.00    +0.000 OA
ATOM     37  O   UNL     1     113.754 124.833 136.336  0.00  0.00    +0.000 OA
ATOM     38  C   UNL     1     113.381 126.214 138.356  0.00  0.00    +0.000 A 
ATOM     39  C   UNL     1     112.818 126.203 137.755  0.00  0.00    +0.000 A 
ATOM     40  C   UNL     1     114.070 125.764 138.285  0.00  0.00    +0.000 A 
ATOM     41  C   UNL     1     114.194 125.304 137.611  0.00  0.00    +0.000 A 
ATOM     42  C   UNL     1     112.941 125.743 137.082  0.00  0.00    +0.000 A 
ATOM     43  C   UNL     1     113.629 125.294 137.010  0.00  0.00    +0.000 A 
ENDBRANCH  34  38
ENDBRANCH  32  34
ENDBRANCH  31  32
ENDBRANCH   7  31
TORSDOF 7
ENDMDL
MODEL 6
REMARK VINA RESULT:      -9.8      1.997      5.093
REMARK  Name = 74819398
REMARK  7 active torsions:
REMARK  status: ('A' for Active; 'I' for Inactive)
REMARK    1  A    between atoms: O_2  and  C_20
REMARK    2  A    between atoms: O_2  and  C_22
REMARK    3  A    between atoms: O_6  and  C_21
REMARK    4  A    between atoms: O_6  and  C_32
REMARK    5  A    between atoms: C_18  and  C_21
REMARK    6  A    between atoms: C_23  and  C_31
REMARK    7  A    between atoms: C_32  and  C_35
REMARK                            x       y       z     vdW  Elec       q    Type
REMARK                         _______ _______ _______ _____ _____    ______ ____
ROOT
ATOM      1  O   UNL     1     111.477 126.449 137.339  0.00  0.00    +0.000 OA
ATOM      2  O   UNL     1     111.595 124.366 137.984  0.00  0.00    +0.000 OA
ATOM      3  O   UNL     1     111.407 124.179 136.355  0.00  0.00    +0.000 OA
ATOM      4  O   UNL     1     111.266 125.504 135.383  0.00  0.00    +0.000 OA
ATOM      5  C   UNL     1     111.525 125.029 137.498  0.00  0.00    +0.000 C 
ATOM      6  C   UNL     1     111.431 124.935 136.683  0.00  0.00    +0.000 C 
ATOM      7  C   UNL     1     111.548 125.786 137.826  0.00  0.00    +0.000 C 
ATOM      8  C   UNL     1     111.360 125.598 136.198  0.00  0.00    +0.000 C 
ATOM      9  C   UNL     1     111.384 126.355 136.526  0.00  0.00    +0.000 C 
ENDROOT
BRANCH   9  10
ATOM     10  O   UNL     1     111.313 127.018 136.039  0.00  0.00    +0.000 OA
BRANCH  10  14
ATOM     11  O   UNL     1     111.306 129.755 137.033  0.00  0.00    +0.000 OA
ATOM     12  O   UNL     1     113.796 128.548 136.201  0.00  0.00    +0.000 OA
ATOM     13  O   UNL     1     113.753 129.902 136.699  0.00  0.00    +0.000 OA
ATOM     14  C   UNL     1     111.717 127.712 136.227  0.00  0.00    +0.000 A 
ATOM     15  C   UNL     1     111.706 130.451 137.222  0.00  0.00    +0.000 C 
ATOM     16  C   UNL     1     111.720 129.108 136.733  0.00  0.00    +0.000 A 
ATOM     17  C   UNL     1     111.291 128.389 136.540  0.00  0.00    +0.000 A 
ATOM     18  C   UNL     1     112.536 129.156 136.621  0.00  0.00    +0.000 A 
ATOM     19  C   UNL     1     112.522 130.499 137.111  0.00  0.00    +0.000 C 
ATOM     20  C   UNL     1     112.567 127.763 136.111  0.00  0.00    +0.000 A 
ATOM     21  C   UNL     1     112.937 129.852 136.811  0.00  0.00    +0.000 C 
ATOM     22  C   UNL     1     112.980 128.490 136.309  0.00  0.00    +0.000 A 
BRANCH  15  25
ATOM     23  O   UNL     1     110.434 131.774 139.412  0.00  0.00    +0.000 OA
ATOM     24  O   UNL     1     110.049 133.038 138.424  0.00  0.00    +0.000 OA
ATOM     25  C   UNL     1     111.292 131.098 137.523  0.00  0.00    +0.000 A 
ATOM     26  C   UNL     1     111.070 131.112 138.317  0.00  0.00    +0.000 A 
ATOM     27  C   UNL     1     111.100 131.730 137.029  0.00  0.00    +0.000 A 
ATOM     28  C   UNL     1     110.655 131.759 138.618  0.00  0.00    +0.000 A 
ATOM     29  C   UNL     1     110.685 132.376 137.330  0.00  0.00    +0.000 A 
ATOM     30  C   UNL     1     110.463 132.391 138.124  0.00  0.00    +0.000 A 
ENDBRANCH  15  25
ENDBRANCH  10  14
ENDBRANCH   9  10
BRANCH   7  31
ATOM     31  C   UNL     1     111.642 125.880 138.640  0.00  0.00    +0.000 C 
BRANCH  31  32
ATOM     32  O   UNL     1     112.243 126.362 138.934  0.00  0.00    +0.000 OA
BRANCH  32  34
ATOM     33  O   UNL     1     111.698 126.245 140.249  0.00  0.00    +0.000 OA
ATOM     34  C   UNL     1     112.256 126.565 139.733  0.00  0.00    +0.000 C 
BRANCH  34  38
ATOM     35  O   UNL     1     113.099 129.234 140.312  0.00  0.00    +0.000 OA
ATOM     36  O   UNL     1     114.841 127.035 140.857  0.00  0.00    +0.000 OA
ATOM     37  O   UNL     1     114.541 128.658 140.869  0.00  0.00    +0.000 OA
ATOM     38  C   UNL     1     112.828 127.088 140.017  0.00  0.00    +0.000 A 
ATOM     39  C   UNL     1     113.549 126.800 140.295  0.00  0.00    +0.000 A 
ATOM     40  C   UNL     1     112.678 127.899 140.023  0.00  0.00    +0.000 A 
ATOM     41  C   UNL     1     113.249 128.423 140.307  0.00  0.00    +0.000 A 
ATOM     42  C   UNL     1     114.120 127.323 140.579  0.00  0.00    +0.000 A 
ATOM     43  C   UNL     1     113.970 128.134 140.585  0.00  0.00    +0.000 A 
ENDBRANCH  34  38
ENDBRANCH  32  34
ENDBRANCH  31  32
ENDBRANCH   7  31
TORSDOF 7
ENDMDL
MODEL 7
REMARK VINA RESULT:      -9.8      1.358      3.024
REMARK  Name = 74819398
REMARK  7 active torsions:
REMARK  status: ('A' for Active; 'I' for Inactive)
REMARK    1  A    between atoms: O_2  and  C_20
REMARK    2  A    between atoms: O_2  and  C_22
REMARK    3  A    between atoms: O_6  and  C_21
REMARK    4  A    between atoms: O_6  and  C_32
REMARK    5  A    between atoms: C_18  and  C_21
REMARK    6  A    between atoms: C_23  and  C_31
REMARK    7  A    between atoms: C_32  and  C_35
REMARK                            x       y       z     vdW  Elec       q    Type
REMARK                         _______ _______ _______ _____ _____    ______ ____
ROOT
ATOM      1  O   UNL     1     110.314 130.221 136.331  0.00  0.00    +0.000 OA
ATOM      2  O   UNL     1     108.487 130.979 137.254  0.00  0.00    +0.000 OA
ATOM      3  O   UNL     1     107.915 130.490 135.785  0.00  0.00    +0.000 OA
ATOM      4  O   UNL     1     108.943 129.822 134.681  0.00  0.00    +0.000 OA
ATOM      5  C   UNL     1     109.001 130.645 136.702  0.00  0.00    +0.000 C 
ATOM      6  C   UNL     1     108.715 130.401 135.967  0.00  0.00    +0.000 C 
ATOM      7  C   UNL     1     109.801 130.556 136.884  0.00  0.00    +0.000 C 
ATOM      8  C   UNL     1     109.229 130.067 135.415  0.00  0.00    +0.000 C 
ATOM      9  C   UNL     1     110.029 129.977 135.597  0.00  0.00    +0.000 C 
ENDROOT
BRANCH   9  10
ATOM     10  O   UNL     1     110.542 129.643 135.045  0.00  0.00    +0.000 OA
BRANCH  10  14
ATOM     11  O   UNL     1     111.549 127.137 136.136  0.00  0.00    +0.000 OA
ATOM     12  O   UNL     1     113.401 129.265 135.511  0.00  0.00    +0.000 OA
ATOM     13  O   UNL     1     113.863 128.010 136.053  0.00  0.00    +0.000 OA
ATOM     14  C   UNL     1     111.172 129.174 135.298  0.00  0.00    +0.000 A 
ATOM     15  C   UNL     1     112.177 126.666 136.390  0.00  0.00    +0.000 C 
ATOM     16  C   UNL     1     111.692 127.900 135.854  0.00  0.00    +0.000 A 
ATOM     17  C   UNL     1     111.030 128.380 135.592  0.00  0.00    +0.000 A 
ATOM     18  C   UNL     1     112.464 128.191 135.826  0.00  0.00    +0.000 A 
ATOM     19  C   UNL     1     112.948 126.957 136.363  0.00  0.00    +0.000 C 
ATOM     20  C   UNL     1     111.976 129.478 135.269  0.00  0.00    +0.000 A 
ATOM     21  C   UNL     1     113.091 127.719 136.081  0.00  0.00    +0.000 C 
ATOM     22  C   UNL     1     112.626 128.982 135.535  0.00  0.00    +0.000 A 
BRANCH  15  25
ATOM     23  O   UNL     1     111.306 124.925 138.481  0.00  0.00    +0.000 OA
ATOM     24  O   UNL     1     111.603 123.618 137.518  0.00  0.00    +0.000 OA
ATOM     25  C   UNL     1     112.033 125.904 136.672  0.00  0.00    +0.000 A 
ATOM     26  C   UNL     1     111.741 125.796 137.436  0.00  0.00    +0.000 A 
ATOM     27  C   UNL     1     112.182 125.251 136.190  0.00  0.00    +0.000 A 
ATOM     28  C   UNL     1     111.598 125.033 137.718  0.00  0.00    +0.000 A 
ATOM     29  C   UNL     1     112.039 124.490 136.473  0.00  0.00    +0.000 A 
ATOM     30  C   UNL     1     111.747 124.380 137.236  0.00  0.00    +0.000 A 
ENDBRANCH  15  25
ENDBRANCH  10  14
ENDBRANCH   9  10
BRANCH   7  31
ATOM     31  C   UNL     1     110.086 130.800 137.618  0.00  0.00    +0.000 C 
BRANCH  31  32
ATOM     32  O   UNL     1     110.514 130.276 138.090  0.00  0.00    +0.000 OA
BRANCH  32  34
ATOM     33  O   UNL     1     110.868 131.303 139.017  0.00  0.00    +0.000 OA
ATOM     34  C   UNL     1     111.013 130.564 138.680  0.00  0.00    +0.000 C 
BRANCH  34  38
ATOM     35  O   UNL     1     112.050 128.191 139.887  0.00  0.00    +0.000 OA
ATOM     36  O   UNL     1     113.834 130.237 138.993  0.00  0.00    +0.000 OA
ATOM     37  O   UNL     1     113.586 128.763 139.694  0.00  0.00    +0.000 OA
ATOM     38  C   UNL     1     111.656 130.114 138.933  0.00  0.00    +0.000 A 
ATOM     39  C   UNL     1     112.423 130.400 138.837  0.00  0.00    +0.000 A 
ATOM     40  C   UNL     1     111.532 129.378 139.283  0.00  0.00    +0.000 A 
ATOM     41  C   UNL     1     112.175 128.927 139.537  0.00  0.00    +0.000 A 
ATOM     42  C   UNL     1     113.066 129.951 139.090  0.00  0.00    +0.000 A 
ATOM     43  C   UNL     1     112.942 129.214 139.440  0.00  0.00    +0.000 A 
ENDBRANCH  34  38
ENDBRANCH  32  34
ENDBRANCH  31  32
ENDBRANCH   7  31
TORSDOF 7
ENDMDL
MODEL 8
REMARK VINA RESULT:      -9.7      1.939      4.683
REMARK  Name = 74819398
REMARK  7 active torsions:
REMARK  status: ('A' for Active; 'I' for Inactive)
REMARK    1  A    between atoms: O_2  and  C_20
REMARK    2  A    between atoms: O_2  and  C_22
REMARK    3  A    between atoms: O_6  and  C_21
REMARK    4  A    between atoms: O_6  and  C_32
REMARK    5  A    between atoms: C_18  and  C_21
REMARK    6  A    between atoms: C_23  and  C_31
REMARK    7  A    between atoms: C_32  and  C_35
REMARK                            x       y       z     vdW  Elec       q    Type
REMARK                         _______ _______ _______ _____ _____    ______ ____
ROOT
ATOM      1  O   UNL     1     112.668 127.496 138.666  0.00  0.00    +0.000 OA
ATOM      2  O   UNL     1     112.337 126.337 140.486  0.00  0.00    +0.000 OA
ATOM      3  O   UNL     1     113.048 127.692 141.104  0.00  0.00    +0.000 OA
ATOM      4  O   UNL     1     113.506 128.916 140.096  0.00  0.00    +0.000 OA
ATOM      5  C   UNL     1     112.566 126.949 139.982  0.00  0.00    +0.000 C 
ATOM      6  C   UNL     1     112.922 127.627 140.291  0.00  0.00    +0.000 C 
ATOM      7  C   UNL     1     112.439 126.883 139.169  0.00  0.00    +0.000 C 
ATOM      8  C   UNL     1     113.150 128.238 139.787  0.00  0.00    +0.000 C 
ATOM      9  C   UNL     1     113.024 128.172 138.974  0.00  0.00    +0.000 C 
ENDROOT
BRANCH   9  10
ATOM     10  O   UNL     1     113.253 128.785 138.471  0.00  0.00    +0.000 OA
BRANCH  10  14
ATOM     11  O   UNL     1     111.059 129.677 136.776  0.00  0.00    +0.000 OA
ATOM     12  O   UNL     1     113.322 128.332 135.586  0.00  0.00    +0.000 OA
ATOM     13  O   UNL     1     112.217 128.788 134.778  0.00  0.00    +0.000 OA
ATOM     14  C   UNL     1     112.908 128.856 137.725  0.00  0.00    +0.000 A 
ATOM     15  C   UNL     1     110.711 129.750 136.032  0.00  0.00    +0.000 C 
ATOM     16  C   UNL     1     111.793 129.308 136.855  0.00  0.00    +0.000 A 
ATOM     17  C   UNL     1     112.144 129.239 137.636  0.00  0.00    +0.000 A 
ATOM     18  C   UNL     1     112.179 129.012 136.189  0.00  0.00    +0.000 A 
ATOM     19  C   UNL     1     111.097 129.453 135.366  0.00  0.00    +0.000 C 
ATOM     20  C   UNL     1     113.311 128.547 137.030  0.00  0.00    +0.000 A 
ATOM     21  C   UNL     1     111.831 129.085 135.445  0.00  0.00    +0.000 C 
ATOM     22  C   UNL     1     112.943 128.626 136.258  0.00  0.00    +0.000 A 
BRANCH  15  25
ATOM     23  O   UNL     1     107.857 129.608 136.040  0.00  0.00    +0.000 OA
ATOM     24  O   UNL     1     107.775 131.224 135.716  0.00  0.00    +0.000 OA
ATOM     25  C   UNL     1     109.977 130.119 135.953  0.00  0.00    +0.000 A 
ATOM     26  C   UNL     1     109.285 129.679 136.036  0.00  0.00    +0.000 A 
ATOM     27  C   UNL     1     109.937 130.927 135.791  0.00  0.00    +0.000 A 
ATOM     28  C   UNL     1     108.550 130.047 135.957  0.00  0.00    +0.000 A 
ATOM     29  C   UNL     1     109.203 131.294 135.712  0.00  0.00    +0.000 A 
ATOM     30  C   UNL     1     108.509 130.855 135.795  0.00  0.00    +0.000 A 
ENDBRANCH  15  25
ENDBRANCH  10  14
ENDBRANCH   9  10
BRANCH   7  31
ATOM     31  C   UNL     1     112.084 126.206 138.861  0.00  0.00    +0.000 C 
BRANCH  31  32
ATOM     32  O   UNL     1     111.448 126.275 138.339  0.00  0.00    +0.000 OA
BRANCH  32  34
ATOM     33  O   UNL     1     111.327 124.858 138.207  0.00  0.00    +0.000 OA
ATOM     34  C   UNL     1     111.190 125.617 137.915  0.00  0.00    +0.000 C 
BRANCH  34  38
ATOM     35  O   UNL     1     111.090 125.289 135.077  0.00  0.00    +0.000 OA
ATOM     36  O   UNL     1     108.918 126.543 136.448  0.00  0.00    +0.000 OA
ATOM     37  O   UNL     1     109.609 126.016 135.045  0.00  0.00    +0.000 OA
ATOM     38  C   UNL     1     110.794 125.717 137.197  0.00  0.00    +0.000 A 
ATOM     39  C   UNL     1     110.054 126.080 137.181  0.00  0.00    +0.000 A 
ATOM     40  C   UNL     1     111.140 125.453 136.496  0.00  0.00    +0.000 A 
ATOM     41  C   UNL     1     110.745 125.553 135.779  0.00  0.00    +0.000 A 
ATOM     42  C   UNL     1     109.659 126.180 136.465  0.00  0.00    +0.000 A 
ATOM     43  C   UNL     1     110.005 125.916 135.763  0.00  0.00    +0.000 A 
ENDBRANCH  34  38
ENDBRANCH  32  34
ENDBRANCH  31  32
ENDBRANCH   7  31
TORSDOF 7
ENDMDL
MODEL 9
REMARK VINA RESULT:      -9.7      1.906      4.123
REMARK  Name = 74819398
REMARK  7 active torsions:
REMARK  status: ('A' for Active; 'I' for Inactive)
REMARK    1  A    between atoms: O_2  and  C_20
REMARK    2  A    between atoms: O_2  and  C_22
REMARK    3  A    between atoms: O_6  and  C_21
REMARK    4  A    between atoms: O_6  and  C_32
REMARK    5  A    between atoms: C_18  and  C_21
REMARK    6  A    between atoms: C_23  and  C_31
REMARK    7  A    between atoms: C_32  and  C_35
REMARK                            x       y       z     vdW  Elec       q    Type
REMARK                         _______ _______ _______ _____ _____    ______ ____
ROOT
ATOM      1  O   UNL     1     113.149 128.471 139.722  0.00  0.00    +0.000 OA
ATOM      2  O   UNL     1     113.285 130.445 140.644  0.00  0.00    +0.000 OA
ATOM      3  O   UNL     1     112.679 129.557 141.896  0.00  0.00    +0.000 OA
ATOM      4  O   UNL     1     112.386 127.945 141.699  0.00  0.00    +0.000 OA
ATOM      5  C   UNL     1     113.139 129.639 140.545  0.00  0.00    +0.000 C 
ATOM      6  C   UNL     1     112.835 129.195 141.171  0.00  0.00    +0.000 C 
ATOM      7  C   UNL     1     113.295 129.277 139.820  0.00  0.00    +0.000 C 
ATOM      8  C   UNL     1     112.689 128.389 141.072  0.00  0.00    +0.000 C 
ATOM      9  C   UNL     1     112.846 128.027 140.348  0.00  0.00    +0.000 C 
ENDROOT
BRANCH   9  10
ATOM     10  O   UNL     1     112.699 127.221 140.250  0.00  0.00    +0.000 OA
BRANCH  10  14
ATOM     11  O   UNL     1     111.834 126.339 137.612  0.00  0.00    +0.000 OA
ATOM     12  O   UNL     1     114.560 125.870 138.448  0.00  0.00    +0.000 OA
ATOM     13  O   UNL     1     114.096 125.448 137.149  0.00  0.00    +0.000 OA
ATOM     14  C   UNL     1     112.862 126.857 139.527  0.00  0.00    +0.000 A 
ATOM     15  C   UNL     1     111.994 125.976 136.888  0.00  0.00    +0.000 C 
ATOM     16  C   UNL     1     112.428 126.405 138.181  0.00  0.00    +0.000 A 
ATOM     17  C   UNL     1     112.249 126.785 138.930  0.00  0.00    +0.000 A 
ATOM     18  C   UNL     1     113.182 126.108 138.027  0.00  0.00    +0.000 A 
ATOM     19  C   UNL     1     112.748 125.679 136.734  0.00  0.00    +0.000 C 
ATOM     20  C   UNL     1     113.648 126.547 139.366  0.00  0.00    +0.000 A 
ATOM     21  C   UNL     1     113.342 125.745 137.304  0.00  0.00    +0.000 C 
ATOM     22  C   UNL     1     113.809 126.170 138.611  0.00  0.00    +0.000 A 
BRANCH  15  25
ATOM     23  O   UNL     1     110.079 127.201 135.158  0.00  0.00    +0.000 OA
ATOM     24  O   UNL     1     109.619 125.713 134.612  0.00  0.00    +0.000 OA
ATOM     25  C   UNL     1     111.400 125.910 136.319  0.00  0.00    +0.000 A 
ATOM     26  C   UNL     1     111.037 126.589 136.024  0.00  0.00    +0.000 A 
ATOM     27  C   UNL     1     111.171 125.166 136.047  0.00  0.00    +0.000 A 
ATOM     28  C   UNL     1     110.443 126.524 135.454  0.00  0.00    +0.000 A 
ATOM     29  C   UNL     1     110.577 125.101 135.478  0.00  0.00    +0.000 A 
ATOM     30  C   UNL     1     110.213 125.779 135.181  0.00  0.00    +0.000 A 
ENDBRANCH  15  25
ENDBRANCH  10  14
ENDBRANCH   9  10
BRANCH   7  31
ATOM     31  C   UNL     1     113.598 129.720 139.195  0.00  0.00    +0.000 C 
BRANCH  31  32
ATOM     32  O   UNL     1     113.286 129.632 138.436  0.00  0.00    +0.000 OA
BRANCH  32  34
ATOM     33  O   UNL     1     114.189 130.613 137.926  0.00  0.00    +0.000 OA
ATOM     34  C   UNL     1     113.643 130.009 137.796  0.00  0.00    +0.000 C 
BRANCH  34  38
ATOM     35  O   UNL     1     111.810 129.975 135.603  0.00  0.00    +0.000 OA
ATOM     36  O   UNL     1     114.347 128.681 135.365  0.00  0.00    +0.000 OA
ATOM     37  O   UNL     1     112.891 129.101 134.713  0.00  0.00    +0.000 OA
ATOM     38  C   UNL     1     113.456 129.781 137.025  0.00  0.00    +0.000 A 
ATOM     39  C   UNL     1     113.995 129.345 136.580  0.00  0.00    +0.000 A 
ATOM     40  C   UNL     1     112.728 129.992 136.699  0.00  0.00    +0.000 A 
ATOM     41  C   UNL     1     112.539 129.765 135.929  0.00  0.00    +0.000 A 
ATOM     42  C   UNL     1     113.808 129.118 135.810  0.00  0.00    +0.000 A 
ATOM     43  C   UNL     1     113.079 129.328 135.485  0.00  0.00    +0.000 A 
ENDBRANCH  34  38
ENDBRANCH  32  34
ENDBRANCH  31  32
ENDBRANCH   7  31
TORSDOF 7
ENDMDL
MODEL 10
REMARK VINA RESULT:      -9.7      2.309      5.294
REMARK  Name = 74819398
REMARK  7 active torsions:
REMARK  status: ('A' for Active; 'I' for Inactive)
REMARK    1  A    between atoms: O_2  and  C_20
REMARK    2  A    between atoms: O_2  and  C_22
REMARK    3  A    between atoms: O_6  and  C_21
REMARK    4  A    between atoms: O_6  and  C_32
REMARK    5  A    between atoms: C_18  and  C_21
REMARK    6  A    between atoms: C_23  and  C_31
REMARK    7  A    between atoms: C_32  and  C_35
REMARK                            x       y       z     vdW  Elec       q    Type
REMARK                         _______ _______ _______ _____ _____    ______ ____
ROOT
ATOM      1  O   UNL     1     112.439 126.836 137.345  0.00  0.00    +0.000 OA
ATOM      2  O   UNL     1     111.196 126.284 135.638  0.00  0.00    +0.000 OA
ATOM      3  O   UNL     1     111.786 124.809 136.084  0.00  0.00    +0.000 OA
ATOM      4  O   UNL     1     112.812 124.686 137.371  0.00  0.00    +0.000 OA
ATOM      5  C   UNL     1     111.709 126.223 136.282  0.00  0.00    +0.000 C 
ATOM      6  C   UNL     1     112.004 125.485 136.505  0.00  0.00    +0.000 C 
ATOM      7  C   UNL     1     111.927 126.899 136.702  0.00  0.00    +0.000 C 
ATOM      8  C   UNL     1     112.516 125.424 137.148  0.00  0.00    +0.000 C 
ATOM      9  C   UNL     1     112.734 126.100 137.568  0.00  0.00    +0.000 C 
ENDROOT
BRANCH   9  10
ATOM     10  O   UNL     1     113.247 126.037 138.212  0.00  0.00    +0.000 OA
BRANCH  10  14
ATOM     11  O   UNL     1     113.735 128.366 139.892  0.00  0.00    +0.000 OA
ATOM     12  O   UNL     1     111.852 126.354 140.758  0.00  0.00    +0.000 OA
ATOM     13  O   UNL     1     112.119 127.521 141.564  0.00  0.00    +0.000 OA
ATOM     14  C   UNL     1     113.099 126.467 138.900  0.00  0.00    +0.000 A 
ATOM     15  C   UNL     1     113.589 128.798 140.579  0.00  0.00    +0.000 C 
ATOM     16  C   UNL     1     113.343 127.652 139.761  0.00  0.00    +0.000 A 
ATOM     17  C   UNL     1     113.504 127.211 139.042  0.00  0.00    +0.000 A 
ATOM     18  C   UNL     1     112.804 127.370 140.319  0.00  0.00    +0.000 A 
ATOM     19  C   UNL     1     113.050 128.516 141.136  0.00  0.00    +0.000 C 
ATOM     20  C   UNL     1     112.537 126.173 139.481  0.00  0.00    +0.000 A 
ATOM     21  C   UNL     1     112.658 127.802 141.006  0.00  0.00    +0.000 C 
ATOM     22  C   UNL     1     112.389 126.628 140.195  0.00  0.00    +0.000 A 
BRANCH  15  25
ATOM     23  O   UNL     1     113.683 131.385 141.788  0.00  0.00    +0.000 OA
ATOM     24  O   UNL     1     115.158 131.654 141.100  0.00  0.00    +0.000 OA
ATOM     25  C   UNL     1     113.982 129.512 140.709  0.00  0.00    +0.000 A 
ATOM     26  C   UNL     1     113.636 130.091 141.184  0.00  0.00    +0.000 A 
ATOM     27  C   UNL     1     114.719 129.646 140.365  0.00  0.00    +0.000 A 
ATOM     28  C   UNL     1     114.028 130.806 141.314  0.00  0.00    +0.000 A 
ATOM     29  C   UNL     1     115.111 130.360 140.495  0.00  0.00    +0.000 A 
ATOM     30  C   UNL     1     114.766 130.940 140.970  0.00  0.00    +0.000 A 
ENDBRANCH  15  25
ENDBRANCH  10  14
ENDBRANCH   9  10
BRANCH   7  31
ATOM     31  C   UNL     1     111.632 127.636 136.479  0.00  0.00    +0.000 C 
BRANCH  31  32
ATOM     32  O   UNL     1     111.460 128.203 137.053  0.00  0.00    +0.000 OA
BRANCH  32  34
ATOM     33  O   UNL     1     111.115 129.152 136.042  0.00  0.00    +0.000 OA
ATOM     34  C   UNL     1     111.292 128.979 136.829  0.00  0.00    +0.000 C 
BRANCH  34  38
ATOM     35  O   UNL     1     112.494 131.333 137.916  0.00  0.00    +0.000 OA
ATOM     36  O   UNL     1     110.139 130.246 139.117  0.00  0.00    +0.000 OA
ATOM     37  O   UNL     1     111.325 131.393 139.079  0.00  0.00    +0.000 OA
ATOM     38  C   UNL     1     111.299 129.582 137.392  0.00  0.00    +0.000 A 
ATOM     39  C   UNL     1     110.715 129.612 137.973  0.00  0.00    +0.000 A 
ATOM     40  C   UNL     1     111.892 130.156 137.373  0.00  0.00    +0.000 A 
ATOM     41  C   UNL     1     111.901 130.759 137.935  0.00  0.00    +0.000 A 
ATOM     42  C   UNL     1     110.723 130.215 138.535  0.00  0.00    +0.000 A 
ATOM     43  C   UNL     1     111.316 130.789 138.516  0.00  0.00    +0.000 A 
ENDBRANCH  34  38
ENDBRANCH  32  34
ENDBRANCH  31  32
ENDBRANCH   7  31
TORSDOF 7
ENDMDL
