MODEL 1
REMARK VINA RESULT:      -9.4      0.000      0.000
REMARK  Name = 13245583
REMARK  4 active torsions:
REMARK  status: ('A' for Active; 'I' for Inactive)
REMARK    1  A    between atoms: O_2  and  C_14
REMARK    2  A    between atoms: O_2  and  C_16
REMARK    3  A    between atoms: C_13  and  C_15
REMARK    4  A    between atoms: C_17  and  C_21
REMARK                            x       y       z     vdW  Elec       q    Type
REMARK                         _______ _______ _______ _____ _____    ______ ____
ROOT
ATOM      1  O   UNL     1     105.603 124.472 147.729  0.00  0.00    +0.000 OA
ATOM      2  O   UNL     1     107.043 125.609 146.068  0.00  0.00    +0.000 OA
ATOM      3  O   UNL     1     108.166 125.573 146.974  0.00  0.00    +0.000 OA
ATOM      4  O   UNL     1     107.823 124.363 149.611  0.00  0.00    +0.000 OA
ATOM      5  C   UNL     1     105.775 125.065 146.441  0.00  0.00    +0.000 A 
ATOM      6  C   UNL     1     105.295 124.686 146.994  0.00  0.00    +0.000 A 
ATOM      7  C   UNL     1     106.563 125.230 146.622  0.00  0.00    +0.000 A 
ATOM      8  C   UNL     1     106.871 125.016 147.357  0.00  0.00    +0.000 A 
ATOM      9  C   UNL     1     106.390 124.637 147.911  0.00  0.00    +0.000 A 
ATOM     10  C   UNL     1     107.692 125.193 147.534  0.00  0.00    +0.000 A 
ATOM     11  C   UNL     1     106.698 124.409 148.679  0.00  0.00    +0.000 A 
ATOM     12  C   UNL     1     108.019 124.973 148.298  0.00  0.00    +0.000 A 
ATOM     13  C   UNL     1     107.518 124.578 148.874  0.00  0.00    +0.000 A 
ENDROOT
BRANCH   6  15
ATOM     14  O   UNL     1     102.144 124.026 146.269  0.00  0.00    +0.000 OA
ATOM     15  C   UNL     1     104.507 124.521 146.813  0.00  0.00    +0.000 A 
ATOM     16  C   UNL     1     103.902 124.952 147.173  0.00  0.00    +0.000 A 
ATOM     17  C   UNL     1     104.325 123.926 146.272  0.00  0.00    +0.000 A 
ATOM     18  C   UNL     1     103.115 124.787 146.991  0.00  0.00    +0.000 A 
ATOM     19  C   UNL     1     103.537 123.761 146.091  0.00  0.00    +0.000 A 
ATOM     20  C   UNL     1     102.932 124.191 146.450  0.00  0.00    +0.000 A 
ENDBRANCH   6  15
BRANCH   5  21
ATOM     21  O   UNL     1     105.467 125.279 145.706  0.00  0.00    +0.000 OA
BRANCH  21  28
ATOM     22  O   UNL     1     105.365 126.720 145.978  0.00  0.00    +0.000 OA
ATOM     23  O   UNL     1     105.563 127.687 144.085  0.00  0.00    +0.000 OA
ATOM     24  O   UNL     1     105.654 125.895 144.030  0.00  0.00    +0.000 OA
ATOM     25  C   UNL     1     105.504 127.178 144.731  0.00  0.00    +0.000 C 
ATOM     26  C   UNL     1     105.545 126.355 144.706  0.00  0.00    +0.000 C 
ATOM     27  C   UNL     1     105.392 127.404 145.517  0.00  0.00    +0.000 C 
ATOM     28  C   UNL     1     105.460 126.072 145.477  0.00  0.00    +0.000 C 
BRANCH  27  30
ATOM     29  O   UNL     1     105.193 128.319 146.597  0.00  0.00    +0.000 OA
ATOM     30  C   UNL     1     105.320 128.178 145.794  0.00  0.00    +0.000 C 
ENDBRANCH  27  30
ENDBRANCH  21  28
ENDBRANCH   5  21
TORSDOF 4
ENDMDL
MODEL 2
REMARK VINA RESULT:      -9.0     10.129     11.841
REMARK  Name = 13245583
REMARK  4 active torsions:
REMARK  status: ('A' for Active; 'I' for Inactive)
REMARK    1  A    between atoms: O_2  and  C_14
REMARK    2  A    between atoms: O_2  and  C_16
REMARK    3  A    between atoms: C_13  and  C_15
REMARK    4  A    between atoms: C_17  and  C_21
REMARK                            x       y       z     vdW  Elec       q    Type
REMARK                         _______ _______ _______ _____ _____    ______ ____
ROOT
ATOM      1  O   UNL     1     113.654 126.237 138.550  0.00  0.00    +0.000 OA
ATOM      2  O   UNL     1     111.322 125.440 138.319  0.00  0.00    +0.000 OA
ATOM      3  O   UNL     1     110.964 126.031 139.586  0.00  0.00    +0.000 OA
ATOM      4  O   UNL     1     113.005 127.454 141.115  0.00  0.00    +0.000 OA
ATOM      5  C   UNL     1     112.652 125.542 137.806  0.00  0.00    +0.000 A 
ATOM      6  C   UNL     1     113.429 125.807 137.883  0.00  0.00    +0.000 A 
ATOM      7  C   UNL     1     112.100 125.706 138.396  0.00  0.00    +0.000 A 
ATOM      8  C   UNL     1     112.324 126.136 139.063  0.00  0.00    +0.000 A 
ATOM      9  C   UNL     1     113.102 126.401 139.140  0.00  0.00    +0.000 A 
ATOM     10  C   UNL     1     111.740 126.300 139.671  0.00  0.00    +0.000 A 
ATOM     11  C   UNL     1     113.349 126.850 139.830  0.00  0.00    +0.000 A 
ATOM     12  C   UNL     1     111.968 126.747 140.369  0.00  0.00    +0.000 A 
ATOM     13  C   UNL     1     112.778 127.024 140.448  0.00  0.00    +0.000 A 
ENDROOT
BRANCH   6  15
ATOM     14  O   UNL     1     115.639 125.150 135.521  0.00  0.00    +0.000 OA
ATOM     15  C   UNL     1     113.982 125.643 137.292  0.00  0.00    +0.000 A 
ATOM     16  C   UNL     1     114.200 126.231 136.757  0.00  0.00    +0.000 A 
ATOM     17  C   UNL     1     114.315 124.891 137.238  0.00  0.00    +0.000 A 
ATOM     18  C   UNL     1     114.752 126.067 136.166  0.00  0.00    +0.000 A 
ATOM     19  C   UNL     1     114.868 124.727 136.648  0.00  0.00    +0.000 A 
ATOM     20  C   UNL     1     115.086 125.315 136.112  0.00  0.00    +0.000 A 
ENDBRANCH   6  15
BRANCH   5  21
ATOM     21  O   UNL     1     112.427 125.112 137.138  0.00  0.00    +0.000 OA
BRANCH  21  28
ATOM     22  O   UNL     1     111.655 126.201 136.523  0.00  0.00    +0.000 OA
ATOM     23  O   UNL     1     110.254 125.258 135.217  0.00  0.00    +0.000 OA
ATOM     24  O   UNL     1     111.335 124.132 136.104  0.00  0.00    +0.000 OA
ATOM     25  C   UNL     1     110.842 125.472 135.753  0.00  0.00    +0.000 C 
ATOM     26  C   UNL     1     111.339 124.955 136.161  0.00  0.00    +0.000 C 
ATOM     27  C   UNL     1     111.037 126.243 135.977  0.00  0.00    +0.000 C 
ATOM     28  C   UNL     1     111.841 125.406 136.637  0.00  0.00    +0.000 C 
BRANCH  27  30
ATOM     29  O   UNL     1     111.100 127.641 135.690  0.00  0.00    +0.000 OA
ATOM     30  C   UNL     1     110.678 126.933 135.702  0.00  0.00    +0.000 C 
ENDBRANCH  27  30
ENDBRANCH  21  28
ENDBRANCH   5  21
TORSDOF 4
ENDMDL
MODEL 3
REMARK VINA RESULT:      -8.9      1.473      3.918
REMARK  Name = 13245583
REMARK  4 active torsions:
REMARK  status: ('A' for Active; 'I' for Inactive)
REMARK    1  A    between atoms: O_2  and  C_14
REMARK    2  A    between atoms: O_2  and  C_16
REMARK    3  A    between atoms: C_13  and  C_15
REMARK    4  A    between atoms: C_17  and  C_21
REMARK                            x       y       z     vdW  Elec       q    Type
REMARK                         _______ _______ _______ _____ _____    ______ ____
ROOT
ATOM      1  O   UNL     1     103.752 125.607 147.448  0.00  0.00    +0.000 OA
ATOM      2  O   UNL     1     105.703 124.604 146.302  0.00  0.00    +0.000 OA
ATOM      3  O   UNL     1     104.900 123.496 145.843  0.00  0.00    +0.000 OA
ATOM      4  O   UNL     1     102.069 123.403 146.558  0.00  0.00    +0.000 OA
ATOM      5  C   UNL     1     105.136 125.648 147.096  0.00  0.00    +0.000 A 
ATOM      6  C   UNL     1     104.485 125.983 147.478  0.00  0.00    +0.000 A 
ATOM      7  C   UNL     1     105.052 124.938 146.685  0.00  0.00    +0.000 A 
ATOM      8  C   UNL     1     104.318 124.563 146.654  0.00  0.00    +0.000 A 
ATOM      9  C   UNL     1     103.668 124.897 147.037  0.00  0.00    +0.000 A 
ATOM     10  C   UNL     1     104.244 123.824 146.223  0.00  0.00    +0.000 A 
ATOM     11  C   UNL     1     102.898 124.517 147.013  0.00  0.00    +0.000 A 
ATOM     12  C   UNL     1     103.482 123.428 146.188  0.00  0.00    +0.000 A 
ATOM     13  C   UNL     1     102.805 123.777 146.586  0.00  0.00    +0.000 A 
ENDROOT
BRANCH   6  15
ATOM     14  O   UNL     1     104.820 128.823 149.125  0.00  0.00    +0.000 OA
ATOM     15  C   UNL     1     104.569 126.693 147.890  0.00  0.00    +0.000 A 
ATOM     16  C   UNL     1     104.580 126.692 148.715  0.00  0.00    +0.000 A 
ATOM     17  C   UNL     1     104.642 127.403 147.477  0.00  0.00    +0.000 A 
ATOM     18  C   UNL     1     104.664 127.402 149.127  0.00  0.00    +0.000 A 
ATOM     19  C   UNL     1     104.725 128.113 147.889  0.00  0.00    +0.000 A 
ATOM     20  C   UNL     1     104.736 128.113 148.713  0.00  0.00    +0.000 A 
ENDBRANCH   6  15
BRANCH   5  21
ATOM     21  O   UNL     1     105.869 126.024 147.126  0.00  0.00    +0.000 OA
BRANCH  21  28
ATOM     22  O   UNL     1     106.482 125.110 148.101  0.00  0.00    +0.000 OA
ATOM     23  O   UNL     1     108.580 125.161 147.712  0.00  0.00    +0.000 OA
ATOM     24  O   UNL     1     107.588 126.207 146.643  0.00  0.00    +0.000 OA
ATOM     25  C   UNL     1     107.760 125.246 147.742  0.00  0.00    +0.000 C 
ATOM     26  C   UNL     1     107.305 125.727 147.250  0.00  0.00    +0.000 C 
ATOM     27  C   UNL     1     107.252 124.865 148.268  0.00  0.00    +0.000 C 
ATOM     28  C   UNL     1     106.514 125.643 147.473  0.00  0.00    +0.000 C 
BRANCH  27  30
ATOM     29  O   UNL     1     106.950 124.147 149.466  0.00  0.00    +0.000 OA
ATOM     30  C   UNL     1     107.475 124.332 148.858  0.00  0.00    +0.000 C 
ENDBRANCH  27  30
ENDBRANCH  21  28
ENDBRANCH   5  21
TORSDOF 4
ENDMDL
MODEL 4
REMARK VINA RESULT:      -8.8     10.746     12.708
REMARK  Name = 13245583
REMARK  4 active torsions:
REMARK  status: ('A' for Active; 'I' for Inactive)
REMARK    1  A    between atoms: O_2  and  C_14
REMARK    2  A    between atoms: O_2  and  C_16
REMARK    3  A    between atoms: C_13  and  C_15
REMARK    4  A    between atoms: C_17  and  C_21
REMARK                            x       y       z     vdW  Elec       q    Type
REMARK                         _______ _______ _______ _____ _____    ______ ____
ROOT
ATOM      1  O   UNL     1     111.908 125.776 136.016  0.00  0.00    +0.000 OA
ATOM      2  O   UNL     1     111.815 128.230 135.704  0.00  0.00    +0.000 OA
ATOM      3  O   UNL     1     110.548 128.125 135.023  0.00  0.00    +0.000 OA
ATOM      4  O   UNL     1     109.352 125.486 134.650  0.00  0.00    +0.000 OA
ATOM      5  C   UNL     1     112.489 127.070 136.196  0.00  0.00    +0.000 A 
ATOM      6  C   UNL     1     112.520 126.251 136.300  0.00  0.00    +0.000 A 
ATOM      7  C   UNL     1     111.846 127.412 135.808  0.00  0.00    +0.000 A 
ATOM      8  C   UNL     1     111.234 126.937 135.524  0.00  0.00    +0.000 A 
ATOM      9  C   UNL     1     111.265 126.119 135.628  0.00  0.00    +0.000 A 
ATOM     10  C   UNL     1     110.570 127.305 135.122  0.00  0.00    +0.000 A 
ATOM     11  C   UNL     1     110.635 125.613 135.338  0.00  0.00    +0.000 A 
ATOM     12  C   UNL     1     109.930 126.816 134.824  0.00  0.00    +0.000 A 
ATOM     13  C   UNL     1     109.963 125.964 134.933  0.00  0.00    +0.000 A 
ENDROOT
BRANCH   6  15
ATOM     14  O   UNL     1     115.090 124.882 137.850  0.00  0.00    +0.000 OA
ATOM     15  C   UNL     1     113.162 125.909 136.687  0.00  0.00    +0.000 A 
ATOM     16  C   UNL     1     113.080 125.641 137.463  0.00  0.00    +0.000 A 
ATOM     17  C   UNL     1     113.886 125.835 136.299  0.00  0.00    +0.000 A 
ATOM     18  C   UNL     1     113.723 125.298 137.851  0.00  0.00    +0.000 A 
ATOM     19  C   UNL     1     114.529 125.493 136.687  0.00  0.00    +0.000 A 
ATOM     20  C   UNL     1     114.448 125.224 137.463  0.00  0.00    +0.000 A 
ENDBRANCH   6  15
BRANCH   5  21
ATOM     21  O   UNL     1     113.100 127.545 136.480  0.00  0.00    +0.000 OA
BRANCH  21  28
ATOM     22  O   UNL     1     112.364 128.095 137.627  0.00  0.00    +0.000 OA
ATOM     23  O   UNL     1     113.221 130.014 138.004  0.00  0.00    +0.000 OA
ATOM     24  O   UNL     1     113.952 129.117 136.631  0.00  0.00    +0.000 OA
ATOM     25  C   UNL     1     112.998 129.266 137.740  0.00  0.00    +0.000 C 
ATOM     26  C   UNL     1     113.333 128.853 137.109  0.00  0.00    +0.000 C 
ATOM     27  C   UNL     1     112.398 128.797 138.060  0.00  0.00    +0.000 C 
ATOM     28  C   UNL     1     112.942 128.130 137.039  0.00  0.00    +0.000 C 
BRANCH  27  30
ATOM     29  O   UNL     1     111.504 128.407 139.105  0.00  0.00    +0.000 OA
ATOM     30  C   UNL     1     111.918 128.996 138.701  0.00  0.00    +0.000 C 
ENDBRANCH  27  30
ENDBRANCH  21  28
ENDBRANCH   5  21
TORSDOF 4
ENDMDL
MODEL 5
REMARK VINA RESULT:      -8.7      1.498      3.553
REMARK  Name = 13245583
REMARK  4 active torsions:
REMARK  status: ('A' for Active; 'I' for Inactive)
REMARK    1  A    between atoms: O_2  and  C_14
REMARK    2  A    between atoms: O_2  and  C_16
REMARK    3  A    between atoms: C_13  and  C_15
REMARK    4  A    between atoms: C_17  and  C_21
REMARK                            x       y       z     vdW  Elec       q    Type
REMARK                         _______ _______ _______ _____ _____    ______ ____
ROOT
ATOM      1  O   UNL     1     103.344 124.618 147.465  0.00  0.00    +0.000 OA
ATOM      2  O   UNL     1     104.950 123.784 145.775  0.00  0.00    +0.000 OA
ATOM      3  O   UNL     1     103.957 122.891 145.230  0.00  0.00    +0.000 OA
ATOM      4  O   UNL     1     101.289 122.840 146.417  0.00  0.00    +0.000 OA
ATOM      5  C   UNL     1     104.648 124.639 146.880  0.00  0.00    +0.000 A 
ATOM      6  C   UNL     1     104.113 124.917 147.444  0.00  0.00    +0.000 A 
ATOM      7  C   UNL     1     104.414 124.062 146.339  0.00  0.00    +0.000 A 
ATOM      8  C   UNL     1     103.646 123.763 146.359  0.00  0.00    +0.000 A 
ATOM      9  C   UNL     1     103.111 124.041 146.923  0.00  0.00    +0.000 A 
ATOM     10  C   UNL     1     103.415 123.163 145.790  0.00  0.00    +0.000 A 
ATOM     11  C   UNL     1     102.308 123.738 146.956  0.00  0.00    +0.000 A 
ATOM     12  C   UNL     1     102.615 122.848 145.807  0.00  0.00    +0.000 A 
ATOM     13  C   UNL     1     102.058 123.138 146.394  0.00  0.00    +0.000 A 
ENDROOT
BRANCH   6  15
ATOM     14  O   UNL     1     105.047 127.223 149.611  0.00  0.00    +0.000 OA
ATOM     15  C   UNL     1     104.346 125.493 147.986  0.00  0.00    +0.000 A 
ATOM     16  C   UNL     1     104.859 125.296 148.601  0.00  0.00    +0.000 A 
ATOM     17  C   UNL     1     104.067 126.265 147.912  0.00  0.00    +0.000 A 
ATOM     18  C   UNL     1     105.093 125.873 149.143  0.00  0.00    +0.000 A 
ATOM     19  C   UNL     1     104.301 126.842 148.453  0.00  0.00    +0.000 A 
ATOM     20  C   UNL     1     104.813 126.646 149.069  0.00  0.00    +0.000 A 
ENDBRANCH   6  15
BRANCH   5  21
ATOM     21  O   UNL     1     105.417 124.938 146.860  0.00  0.00    +0.000 OA
BRANCH  21  28
ATOM     22  O   UNL     1     105.232 125.764 145.658  0.00  0.00    +0.000 OA
ATOM     23  O   UNL     1     107.166 125.942 144.770  0.00  0.00    +0.000 OA
ATOM     24  O   UNL     1     107.114 124.966 146.275  0.00  0.00    +0.000 OA
ATOM     25  C   UNL     1     106.495 125.785 145.223  0.00  0.00    +0.000 C 
ATOM     26  C   UNL     1     106.471 125.337 145.915  0.00  0.00    +0.000 C 
ATOM     27  C   UNL     1     105.729 126.049 145.064  0.00  0.00    +0.000 C 
ATOM     28  C   UNL     1     105.690 125.324 146.183  0.00  0.00    +0.000 C 
BRANCH  27  30
ATOM     29  O   UNL     1     104.952 127.123 144.530  0.00  0.00    +0.000 OA
ATOM     30  C   UNL     1     105.501 126.517 144.423  0.00  0.00    +0.000 C 
ENDBRANCH  27  30
ENDBRANCH  21  28
ENDBRANCH   5  21
TORSDOF 4
ENDMDL
MODEL 6
REMARK VINA RESULT:      -8.7      1.475      3.940
REMARK  Name = 13245583
REMARK  4 active torsions:
REMARK  status: ('A' for Active; 'I' for Inactive)
REMARK    1  A    between atoms: O_2  and  C_14
REMARK    2  A    between atoms: O_2  and  C_16
REMARK    3  A    between atoms: C_13  and  C_15
REMARK    4  A    between atoms: C_17  and  C_21
REMARK                            x       y       z     vdW  Elec       q    Type
REMARK                         _______ _______ _______ _____ _____    ______ ____
ROOT
ATOM      1  O   UNL     1     105.079 124.177 147.092  0.00  0.00    +0.000 OA
ATOM      2  O   UNL     1     103.525 125.799 148.131  0.00  0.00    +0.000 OA
ATOM      3  O   UNL     1     102.398 125.183 147.475  0.00  0.00    +0.000 OA
ATOM      4  O   UNL     1     102.851 122.881 145.735  0.00  0.00    +0.000 OA
ATOM      5  C   UNL     1     104.852 125.302 147.942  0.00  0.00    +0.000 A 
ATOM      6  C   UNL     1     105.370 124.761 147.596  0.00  0.00    +0.000 A 
ATOM      7  C   UNL     1     104.043 125.258 147.784  0.00  0.00    +0.000 A 
ATOM      8  C   UNL     1     103.752 124.673 147.280  0.00  0.00    +0.000 A 
ATOM      9  C   UNL     1     104.271 124.132 146.934  0.00  0.00    +0.000 A 
ATOM     10  C   UNL     1     102.909 124.637 147.124  0.00  0.00    +0.000 A 
ATOM     11  C   UNL     1     103.981 123.519 146.408  0.00  0.00    +0.000 A 
ATOM     12  C   UNL     1     102.600 124.030 146.600  0.00  0.00    +0.000 A 
ATOM     13  C   UNL     1     103.140 123.467 146.240  0.00  0.00    +0.000 A 
ENDROOT
BRANCH   6  15
ATOM     14  O   UNL     1     108.604 124.939 148.226  0.00  0.00    +0.000 OA
ATOM     15  C   UNL     1     106.179 124.806 147.753  0.00  0.00    +0.000 A 
ATOM     16  C   UNL     1     106.694 125.103 147.182  0.00  0.00    +0.000 A 
ATOM     17  C   UNL     1     106.471 124.553 148.482  0.00  0.00    +0.000 A 
ATOM     18  C   UNL     1     107.503 125.147 147.339  0.00  0.00    +0.000 A 
ATOM     19  C   UNL     1     107.279 124.598 148.639  0.00  0.00    +0.000 A 
ATOM     20  C   UNL     1     107.796 124.894 148.068  0.00  0.00    +0.000 A 
ENDBRANCH   6  15
BRANCH   5  21
ATOM     21  O   UNL     1     105.143 125.887 148.446  0.00  0.00    +0.000 OA
BRANCH  21  28
ATOM     22  O   UNL     1     104.994 126.996 147.491  0.00  0.00    +0.000 OA
ATOM     23  O   UNL     1     104.799 128.762 148.674  0.00  0.00    +0.000 OA
ATOM     24  O   UNL     1     104.997 127.244 149.612  0.00  0.00    +0.000 OA
ATOM     25  C   UNL     1     104.886 128.005 148.359  0.00  0.00    +0.000 C 
ATOM     26  C   UNL     1     104.977 127.308 148.790  0.00  0.00    +0.000 C 
ATOM     27  C   UNL     1     104.896 127.813 147.556  0.00  0.00    +0.000 C 
ATOM     28  C   UNL     1     105.044 126.684 148.253  0.00  0.00    +0.000 C 
BRANCH  27  30
ATOM     29  O   UNL     1     105.194 128.187 146.210  0.00  0.00    +0.000 OA
ATOM     30  C   UNL     1     104.822 128.344 146.929  0.00  0.00    +0.000 C 
ENDBRANCH  27  30
ENDBRANCH  21  28
ENDBRANCH   5  21
TORSDOF 4
ENDMDL
MODEL 7
REMARK VINA RESULT:      -8.6     10.331     12.255
REMARK  Name = 13245583
REMARK  4 active torsions:
REMARK  status: ('A' for Active; 'I' for Inactive)
REMARK    1  A    between atoms: O_2  and  C_14
REMARK    2  A    between atoms: O_2  and  C_16
REMARK    3  A    between atoms: C_13  and  C_15
REMARK    4  A    between atoms: C_17  and  C_21
REMARK                            x       y       z     vdW  Elec       q    Type
REMARK                         _______ _______ _______ _____ _____    ______ ____
ROOT
ATOM      1  O   UNL     1     113.600 127.221 136.411  0.00  0.00    +0.000 OA
ATOM      2  O   UNL     1     112.348 128.307 138.250  0.00  0.00    +0.000 OA
ATOM      3  O   UNL     1     112.726 129.615 137.773  0.00  0.00    +0.000 OA
ATOM      4  O   UNL     1     114.403 129.828 135.391  0.00  0.00    +0.000 OA
ATOM      5  C   UNL     1     112.780 127.122 137.577  0.00  0.00    +0.000 A 
ATOM      6  C   UNL     1     113.197 126.760 136.964  0.00  0.00    +0.000 A 
ATOM      7  C   UNL     1     112.765 127.945 137.637  0.00  0.00    +0.000 A 
ATOM      8  C   UNL     1     113.168 128.406 137.084  0.00  0.00    +0.000 A 
ATOM      9  C   UNL     1     113.586 128.044 136.471  0.00  0.00    +0.000 A 
ATOM     10  C   UNL     1     113.146 129.262 137.157  0.00  0.00    +0.000 A 
ATOM     11  C   UNL     1     114.010 128.512 135.889  0.00  0.00    +0.000 A 
ATOM     12  C   UNL     1     113.564 129.747 136.584  0.00  0.00    +0.000 A 
ATOM     13  C   UNL     1     113.999 129.369 135.946  0.00  0.00    +0.000 A 
ENDROOT
BRANCH   6  15
ATOM     14  O   UNL     1     113.254 123.470 136.725  0.00  0.00    +0.000 OA
ATOM     15  C   UNL     1     113.211 125.938 136.904  0.00  0.00    +0.000 A 
ATOM     16  C   UNL     1     113.892 125.521 137.115  0.00  0.00    +0.000 A 
ATOM     17  C   UNL     1     112.546 125.533 136.634  0.00  0.00    +0.000 A 
ATOM     18  C   UNL     1     113.906 124.698 137.055  0.00  0.00    +0.000 A 
ATOM     19  C   UNL     1     112.560 124.710 136.575  0.00  0.00    +0.000 A 
ATOM     20  C   UNL     1     113.240 124.292 136.785  0.00  0.00    +0.000 A 
ENDBRANCH   6  15
BRANCH   5  21
ATOM     21  O   UNL     1     112.377 126.661 138.130  0.00  0.00    +0.000 OA
BRANCH  21  28
ATOM     22  O   UNL     1     113.322 126.911 139.227  0.00  0.00    +0.000 OA
ATOM     23  O   UNL     1     112.237 126.538 141.028  0.00  0.00    +0.000 OA
ATOM     24  O   UNL     1     111.297 126.302 139.518  0.00  0.00    +0.000 OA
ATOM     25  C   UNL     1     112.519 126.643 140.260  0.00  0.00    +0.000 C 
ATOM     26  C   UNL     1     112.086 126.534 139.566  0.00  0.00    +0.000 C 
ATOM     27  C   UNL     1     113.283 126.876 140.051  0.00  0.00    +0.000 C 
ATOM     28  C   UNL     1     112.583 126.700 138.928  0.00  0.00    +0.000 C 
BRANCH  27  30
ATOM     29  O   UNL     1     114.678 126.882 140.358  0.00  0.00    +0.000 OA
ATOM     30  C   UNL     1     113.899 127.043 140.574  0.00  0.00    +0.000 C 
ENDBRANCH  27  30
ENDBRANCH  21  28
ENDBRANCH   5  21
TORSDOF 4
ENDMDL
MODEL 8
REMARK VINA RESULT:      -8.6     11.020     13.075
REMARK  Name = 13245583
REMARK  4 active torsions:
REMARK  status: ('A' for Active; 'I' for Inactive)
REMARK    1  A    between atoms: O_2  and  C_14
REMARK    2  A    between atoms: O_2  and  C_16
REMARK    3  A    between atoms: C_13  and  C_15
REMARK    4  A    between atoms: C_17  and  C_21
REMARK                            x       y       z     vdW  Elec       q    Type
REMARK                         _______ _______ _______ _____ _____    ______ ____
ROOT
ATOM      1  O   UNL     1     114.134 127.492 136.106  0.00  0.00    +0.000 OA
ATOM      2  O   UNL     1     111.889 128.339 136.711  0.00  0.00    +0.000 OA
ATOM      3  O   UNL     1     112.133 129.574 136.005  0.00  0.00    +0.000 OA
ATOM      4  O   UNL     1     114.697 129.957 134.661  0.00  0.00    +0.000 OA
ATOM      5  C   UNL     1     112.878 127.309 136.761  0.00  0.00    +0.000 A 
ATOM      6  C   UNL     1     113.627 127.026 136.560  0.00  0.00    +0.000 A 
ATOM      7  C   UNL     1     112.638 128.057 136.509  0.00  0.00    +0.000 A 
ATOM      8  C   UNL     1     113.145 128.522 136.055  0.00  0.00    +0.000 A 
ATOM      9  C   UNL     1     113.894 128.240 135.853  0.00  0.00    +0.000 A 
ATOM     10  C   UNL     1     112.883 129.299 135.798  0.00  0.00    +0.000 A 
ATOM     11  C   UNL     1     114.432 128.714 135.381  0.00  0.00    +0.000 A 
ATOM     12  C   UNL     1     113.407 129.789 135.325  0.00  0.00    +0.000 A 
ATOM     13  C   UNL     1     114.187 129.493 135.115  0.00  0.00    +0.000 A 
ENDROOT
BRANCH   6  15
ATOM     14  O   UNL     1     114.589 124.036 137.569  0.00  0.00    +0.000 OA
ATOM     15  C   UNL     1     113.867 126.279 136.812  0.00  0.00    +0.000 A 
ATOM     16  C   UNL     1     113.918 125.658 136.271  0.00  0.00    +0.000 A 
ATOM     17  C   UNL     1     114.057 126.153 137.604  0.00  0.00    +0.000 A 
ATOM     18  C   UNL     1     114.158 124.910 136.524  0.00  0.00    +0.000 A 
ATOM     19  C   UNL     1     114.298 125.405 137.857  0.00  0.00    +0.000 A 
ATOM     20  C   UNL     1     114.348 124.784 137.317  0.00  0.00    +0.000 A 
ENDBRANCH   6  15
BRANCH   5  21
ATOM     21  O   UNL     1     112.371 126.844 137.216  0.00  0.00    +0.000 OA
BRANCH  21  28
ATOM     22  O   UNL     1     111.464 126.465 136.122  0.00  0.00    +0.000 OA
ATOM     23  O   UNL     1     109.563 126.124 137.031  0.00  0.00    +0.000 OA
ATOM     24  O   UNL     1     110.867 126.606 138.166  0.00  0.00    +0.000 OA
ATOM     25  C   UNL     1     110.345 126.289 136.829  0.00  0.00    +0.000 C 
ATOM     26  C   UNL     1     110.945 126.510 137.351  0.00  0.00    +0.000 C 
ATOM     27  C   UNL     1     110.666 126.261 136.069  0.00  0.00    +0.000 C 
ATOM     28  C   UNL     1     111.636 126.619 136.914  0.00  0.00    +0.000 C 
BRANCH  27  30
ATOM     29  O   UNL     1     110.679 125.859 134.698  0.00  0.00    +0.000 OA
ATOM     30  C   UNL     1     110.260 126.063 135.378  0.00  0.00    +0.000 C 
ENDBRANCH  27  30
ENDBRANCH  21  28
ENDBRANCH   5  21
TORSDOF 4
ENDMDL
MODEL 9
REMARK VINA RESULT:      -8.5      9.999     12.132
REMARK  Name = 13245583
REMARK  4 active torsions:
REMARK  status: ('A' for Active; 'I' for Inactive)
REMARK    1  A    between atoms: O_2  and  C_14
REMARK    2  A    between atoms: O_2  and  C_16
REMARK    3  A    between atoms: C_13  and  C_15
REMARK    4  A    between atoms: C_17  and  C_21
REMARK                            x       y       z     vdW  Elec       q    Type
REMARK                         _______ _______ _______ _____ _____    ______ ____
ROOT
ATOM      1  O   UNL     1     111.906 125.695 136.040  0.00  0.00    +0.000 OA
ATOM      2  O   UNL     1     111.263 127.831 137.113  0.00  0.00    +0.000 OA
ATOM      3  O   UNL     1     109.997 127.830 136.423  0.00  0.00    +0.000 OA
ATOM      4  O   UNL     1     109.369 125.626 134.612  0.00  0.00    +0.000 OA
ATOM      5  C   UNL     1     112.209 126.776 136.925  0.00  0.00    +0.000 A 
ATOM      6  C   UNL     1     112.423 126.064 136.567  0.00  0.00    +0.000 A 
ATOM      7  C   UNL     1     111.478 127.119 136.755  0.00  0.00    +0.000 A 
ATOM      8  C   UNL     1     110.961 126.751 136.228  0.00  0.00    +0.000 A 
ATOM      9  C   UNL     1     111.175 126.039 135.871  0.00  0.00    +0.000 A 
ATOM     10  C   UNL     1     110.203 127.118 136.060  0.00  0.00    +0.000 A 
ATOM     11  C   UNL     1     110.647 125.645 135.320  0.00  0.00    +0.000 A 
ATOM     12  C   UNL     1     109.660 126.739 135.512  0.00  0.00    +0.000 A 
ATOM     13  C   UNL     1     109.884 125.997 135.140  0.00  0.00    +0.000 A 
ENDROOT
BRANCH   6  15
ATOM     14  O   UNL     1     115.346 124.692 137.244  0.00  0.00    +0.000 OA
ATOM     15  C   UNL     1     113.154 125.721 136.736  0.00  0.00    +0.000 A 
ATOM     16  C   UNL     1     113.192 125.042 137.204  0.00  0.00    +0.000 A 
ATOM     17  C   UNL     1     113.845 126.056 136.438  0.00  0.00    +0.000 A 
ATOM     18  C   UNL     1     113.923 124.699 137.373  0.00  0.00    +0.000 A 
ATOM     19  C   UNL     1     114.576 125.713 136.607  0.00  0.00    +0.000 A 
ATOM     20  C   UNL     1     114.615 125.035 137.075  0.00  0.00    +0.000 A 
ENDBRANCH   6  15
BRANCH   5  21
ATOM     21  O   UNL     1     112.725 127.144 137.451  0.00  0.00    +0.000 OA
BRANCH  21  28
ATOM     22  O   UNL     1     112.006 126.766 138.676  0.00  0.00    +0.000 OA
ATOM     23  O   UNL     1     112.462 128.278 140.112  0.00  0.00    +0.000 OA
ATOM     24  O   UNL     1     113.229 128.507 138.506  0.00  0.00    +0.000 OA
ATOM     25  C   UNL     1     112.380 127.780 139.461  0.00  0.00    +0.000 C 
ATOM     26  C   UNL     1     112.732 127.885 138.722  0.00  0.00    +0.000 C 
ATOM     27  C   UNL     1     111.931 127.088 139.433  0.00  0.00    +0.000 C 
ATOM     28  C   UNL     1     112.501 127.258 138.237  0.00  0.00    +0.000 C 
BRANCH  27  30
ATOM     29  O   UNL     1     111.294 125.972 140.057  0.00  0.00    +0.000 OA
ATOM     30  C   UNL     1     111.485 126.774 140.052  0.00  0.00    +0.000 C 
ENDBRANCH  27  30
ENDBRANCH  21  28
ENDBRANCH   5  21
TORSDOF 4
ENDMDL
MODEL 10
REMARK VINA RESULT:      -8.5      9.289     11.103
REMARK  Name = 13245583
REMARK  4 active torsions:
REMARK  status: ('A' for Active; 'I' for Inactive)
REMARK    1  A    between atoms: O_2  and  C_14
REMARK    2  A    between atoms: O_2  and  C_16
REMARK    3  A    between atoms: C_13  and  C_15
REMARK    4  A    between atoms: C_17  and  C_21
REMARK                            x       y       z     vdW  Elec       q    Type
REMARK                         _______ _______ _______ _____ _____    ______ ____
ROOT
ATOM      1  O   UNL     1     113.741 126.252 138.299  0.00  0.00    +0.000 OA
ATOM      2  O   UNL     1     111.729 124.862 137.916  0.00  0.00    +0.000 OA
ATOM      3  O   UNL     1     112.353 124.221 136.784  0.00  0.00    +0.000 OA
ATOM      4  O   UNL     1     115.063 125.001 136.026  0.00  0.00    +0.000 OA
ATOM      5  C   UNL     1     112.415 125.867 138.666  0.00  0.00    +0.000 A 
ATOM      6  C   UNL     1     113.086 126.330 138.794  0.00  0.00    +0.000 A 
ATOM      7  C   UNL     1     112.400 125.325 138.044  0.00  0.00    +0.000 A 
ATOM      8  C   UNL     1     113.056 125.247 137.549  0.00  0.00    +0.000 A 
ATOM      9  C   UNL     1     113.726 125.711 137.677  0.00  0.00    +0.000 A 
ATOM     10  C   UNL     1     113.028 124.680 136.905  0.00  0.00    +0.000 A 
ATOM     11  C   UNL     1     114.415 125.639 137.169  0.00  0.00    +0.000 A 
ATOM     12  C   UNL     1     113.708 124.594 136.386  0.00  0.00    +0.000 A 
ATOM     13  C   UNL     1     114.406 125.077 136.519  0.00  0.00    +0.000 A 
ENDROOT
BRANCH   6  15
ATOM     14  O   UNL     1     113.146 128.495 141.283  0.00  0.00    +0.000 OA
ATOM     15  C   UNL     1     113.101 126.872 139.416  0.00  0.00    +0.000 A 
ATOM     16  C   UNL     1     113.033 127.679 139.262  0.00  0.00    +0.000 A 
ATOM     17  C   UNL     1     113.184 126.605 140.192  0.00  0.00    +0.000 A 
ATOM     18  C   UNL     1     113.048 128.221 139.884  0.00  0.00    +0.000 A 
ATOM     19  C   UNL     1     113.199 127.146 140.815  0.00  0.00    +0.000 A 
ATOM     20  C   UNL     1     113.131 127.954 140.661  0.00  0.00    +0.000 A 
ENDBRANCH   6  15
BRANCH   5  21
ATOM     21  O   UNL     1     111.760 125.945 139.161  0.00  0.00    +0.000 OA
BRANCH  21  28
ATOM     22  O   UNL     1     110.917 126.653 138.187  0.00  0.00    +0.000 OA
ATOM     23  O   UNL     1     108.900 126.239 138.751  0.00  0.00    +0.000 OA
ATOM     24  O   UNL     1     110.146 125.480 139.795  0.00  0.00    +0.000 OA
ATOM     25  C   UNL     1     109.716 126.307 138.659  0.00  0.00    +0.000 C 
ATOM     26  C   UNL     1     110.289 125.959 139.139  0.00  0.00    +0.000 C 
ATOM     27  C   UNL     1     110.104 126.737 138.070  0.00  0.00    +0.000 C 
ATOM     28  C   UNL     1     111.031 126.173 138.847  0.00  0.00    +0.000 C 
BRANCH  27  30
ATOM     29  O   UNL     1     110.158 127.776 137.090  0.00  0.00    +0.000 OA
ATOM     30  C   UNL     1     109.742 127.174 137.471  0.00  0.00    +0.000 C 
ENDBRANCH  27  30
ENDBRANCH  21  28
ENDBRANCH   5  21
TORSDOF 4
ENDMDL
