MODEL 1
REMARK VINA RESULT:      -9.4      0.000      0.000
REMARK  Name = 44258145
REMARK  6 active torsions:
REMARK  status: ('A' for Active; 'I' for Inactive)
REMARK    1  A    between atoms: S_1  and  O_10
REMARK    2  A    between atoms: O_3  and  C_20
REMARK    3  A    between atoms: O_3  and  C_22
REMARK    4  A    between atoms: O_10  and  C_35
REMARK    5  A    between atoms: C_19  and  C_21
REMARK    6  A    between atoms: C_25  and  C_28
REMARK                            x       y       z     vdW  Elec       q    Type
REMARK                         _______ _______ _______ _____ _____    ______ ____
ROOT
ATOM      1  O   UNL     1     111.213 124.330 135.761  0.00  0.00    +0.000 OA
ATOM      2  C   UNL     1     110.807 125.491 136.489  0.00  0.00    +0.000 A 
ATOM      3  C   UNL     1     110.469 126.243 136.503  0.00  0.00    +0.000 A 
ATOM      4  C   UNL     1     110.875 125.083 135.775  0.00  0.00    +0.000 A 
ATOM      5  C   UNL     1     110.200 126.588 135.803  0.00  0.00    +0.000 A 
ATOM      6  C   UNL     1     110.606 125.427 135.075  0.00  0.00    +0.000 A 
ATOM      7  C   UNL     1     110.269 126.180 135.090  0.00  0.00    +0.000 A 
ENDROOT
BRANCH   5  11
ATOM      8  O   UNL     1     110.344 128.007 135.883  0.00  0.00    +0.000 OA
ATOM      9  O   UNL     1     107.888 128.267 135.733  0.00  0.00    +0.000 OA
ATOM     10  O   UNL     1     108.006 129.703 135.811  0.00  0.00    +0.000 OA
ATOM     11  C   UNL     1     109.862 127.341 135.818  0.00  0.00    +0.000 A 
ATOM     12  C   UNL     1     110.008 128.760 135.898  0.00  0.00    +0.000 A 
ATOM     13  C   UNL     1     109.188 128.847 135.848  0.00  0.00    +0.000 A 
ATOM     14  C   UNL     1     109.044 127.427 135.768  0.00  0.00    +0.000 A 
ATOM     15  C   UNL     1     108.706 128.180 135.783  0.00  0.00    +0.000 A 
ATOM     16  C   UNL     1     108.826 129.625 135.862  0.00  0.00    +0.000 A 
ATOM     17  C   UNL     1     110.520 129.446 135.965  0.00  0.00    +0.000 A 
ATOM     18  C   UNL     1     110.175 130.233 135.981  0.00  0.00    +0.000 A 
ATOM     19  C   UNL     1     109.323 130.324 135.929  0.00  0.00    +0.000 A 
BRANCH  18  20
ATOM     20  O   UNL     1     110.660 130.898 136.046  0.00  0.00    +0.000 OA
BRANCH  20  21
ATOM     21  S   UNL     1     110.808 131.230 136.787  0.00  0.00    +0.000 S 
ATOM     22  O   UNL     1     110.956 131.562 137.527  0.00  0.00    +0.000 OA
ATOM     23  O   UNL     1     110.171 131.745 136.684  0.00  0.00    +0.000 OA
ATOM     24  O   UNL     1     111.444 130.716 136.890  0.00  0.00    +0.000 OA
ENDBRANCH  20  21
ENDBRANCH  18  20
ENDBRANCH   5  11
BRANCH   2  25
ATOM     25  O   UNL     1     111.076 125.146 137.189  0.00  0.00    +0.000 OA
BRANCH  25  34
ATOM     26  O   UNL     1     112.320 125.841 137.296  0.00  0.00    +0.000 OA
ATOM     27  O   UNL     1     111.974 126.084 139.735  0.00  0.00    +0.000 OA
ATOM     28  O   UNL     1     113.334 126.697 139.030  0.00  0.00    +0.000 OA
ATOM     29  O   UNL     1     110.845 125.309 138.815  0.00  0.00    +0.000 OA
ATOM     30  C   UNL     1     112.089 126.003 138.922  0.00  0.00    +0.000 C 
ATOM     31  C   UNL     1     112.769 126.309 138.569  0.00  0.00    +0.000 C 
ATOM     32  C   UNL     1     111.524 125.615 138.461  0.00  0.00    +0.000 C 
ATOM     33  C   UNL     1     112.884 126.228 137.756  0.00  0.00    +0.000 C 
ATOM     34  C   UNL     1     111.640 125.534 137.649  0.00  0.00    +0.000 C 
BRANCH  33  36
ATOM     35  O   UNL     1     114.044 126.050 136.940  0.00  0.00    +0.000 OA
ATOM     36  C   UNL     1     113.565 126.535 137.404  0.00  0.00    +0.000 C 
ENDBRANCH  33  36
ENDBRANCH  25  34
ENDBRANCH   2  25
TORSDOF 6
ENDMDL
MODEL 2
REMARK VINA RESULT:      -9.3      2.390      3.807
REMARK  Name = 44258145
REMARK  6 active torsions:
REMARK  status: ('A' for Active; 'I' for Inactive)
REMARK    1  A    between atoms: S_1  and  O_10
REMARK    2  A    between atoms: O_3  and  C_20
REMARK    3  A    between atoms: O_3  and  C_22
REMARK    4  A    between atoms: O_10  and  C_35
REMARK    5  A    between atoms: C_19  and  C_21
REMARK    6  A    between atoms: C_25  and  C_28
REMARK                            x       y       z     vdW  Elec       q    Type
REMARK                         _______ _______ _______ _____ _____    ______ ____
ROOT
ATOM      1  O   UNL     1     112.577 124.606 136.444  0.00  0.00    +0.000 OA
ATOM      2  C   UNL     1     112.147 125.968 136.456  0.00  0.00    +0.000 A 
ATOM      3  C   UNL     1     112.322 126.772 136.520  0.00  0.00    +0.000 A 
ATOM      4  C   UNL     1     112.752 125.409 136.509  0.00  0.00    +0.000 A 
ATOM      5  C   UNL     1     113.100 127.017 136.639  0.00  0.00    +0.000 A 
ATOM      6  C   UNL     1     113.531 125.654 136.628  0.00  0.00    +0.000 A 
ATOM      7  C   UNL     1     113.704 126.458 136.692  0.00  0.00    +0.000 A 
ENDROOT
BRANCH   5  11
ATOM      8  O   UNL     1     113.206 128.199 137.433  0.00  0.00    +0.000 OA
ATOM      9  O   UNL     1     113.930 129.475 135.441  0.00  0.00    +0.000 OA
ATOM     10  O   UNL     1     114.045 130.684 136.220  0.00  0.00    +0.000 OA
ATOM     11  C   UNL     1     113.274 127.821 136.704  0.00  0.00    +0.000 A 
ATOM     12  C   UNL     1     113.380 129.003 137.499  0.00  0.00    +0.000 A 
ATOM     13  C   UNL     1     113.621 129.429 136.834  0.00  0.00    +0.000 A 
ATOM     14  C   UNL     1     113.515 128.246 136.040  0.00  0.00    +0.000 A 
ATOM     15  C   UNL     1     113.689 129.050 136.104  0.00  0.00    +0.000 A 
ATOM     16  C   UNL     1     113.804 130.266 136.890  0.00  0.00    +0.000 A 
ATOM     17  C   UNL     1     113.305 129.386 138.265  0.00  0.00    +0.000 A 
ATOM     18  C   UNL     1     113.485 130.223 138.339  0.00  0.00    +0.000 A 
ATOM     19  C   UNL     1     113.736 130.666 137.648  0.00  0.00    +0.000 A 
BRANCH  18  20
ATOM     20  O   UNL     1     113.416 130.599 139.070  0.00  0.00    +0.000 OA
BRANCH  20  21
ATOM     21  S   UNL     1     113.963 130.443 139.668  0.00  0.00    +0.000 S 
ATOM     22  O   UNL     1     114.510 130.288 140.265  0.00  0.00    +0.000 OA
ATOM     23  O   UNL     1     113.451 129.882 139.991  0.00  0.00    +0.000 OA
ATOM     24  O   UNL     1     114.475 131.004 139.345  0.00  0.00    +0.000 OA
ENDBRANCH  20  21
ENDBRANCH  18  20
ENDBRANCH   5  11
BRANCH   2  25
ATOM     25  O   UNL     1     111.368 125.723 136.337  0.00  0.00    +0.000 OA
BRANCH  25  34
ATOM     26  O   UNL     1     110.881 125.838 137.676  0.00  0.00    +0.000 OA
ATOM     27  O   UNL     1     108.801 126.880 136.831  0.00  0.00    +0.000 OA
ATOM     28  O   UNL     1     109.008 126.647 138.451  0.00  0.00    +0.000 OA
ATOM     29  O   UNL     1     109.981 126.418 135.774  0.00  0.00    +0.000 OA
ATOM     30  C   UNL     1     109.495 126.533 137.113  0.00  0.00    +0.000 C 
ATOM     31  C   UNL     1     109.599 126.416 137.922  0.00  0.00    +0.000 C 
ATOM     32  C   UNL     1     110.085 126.301 136.584  0.00  0.00    +0.000 C 
ATOM     33  C   UNL     1     110.292 126.069 138.204  0.00  0.00    +0.000 C 
ATOM     34  C   UNL     1     110.778 125.954 136.865  0.00  0.00    +0.000 C 
BRANCH  33  36
ATOM     35  O   UNL     1     110.726 125.251 139.292  0.00  0.00    +0.000 OA
ATOM     36  C   UNL     1     110.395 125.953 139.015  0.00  0.00    +0.000 C 
ENDBRANCH  33  36
ENDBRANCH  25  34
ENDBRANCH   2  25
TORSDOF 6
ENDMDL
MODEL 3
REMARK VINA RESULT:      -9.1      8.577     10.999
REMARK  Name = 44258145
REMARK  6 active torsions:
REMARK  status: ('A' for Active; 'I' for Inactive)
REMARK    1  A    between atoms: S_1  and  O_10
REMARK    2  A    between atoms: O_3  and  C_20
REMARK    3  A    between atoms: O_3  and  C_22
REMARK    4  A    between atoms: O_10  and  C_35
REMARK    5  A    between atoms: C_19  and  C_21
REMARK    6  A    between atoms: C_25  and  C_28
REMARK                            x       y       z     vdW  Elec       q    Type
REMARK                         _______ _______ _______ _____ _____    ______ ____
ROOT
ATOM      1  O   UNL     1     100.736 133.436 142.079  0.00  0.00    +0.000 OA
ATOM      2  C   UNL     1     101.915 132.814 141.566  0.00  0.00    +0.000 A 
ATOM      3  C   UNL     1     102.369 132.137 141.440  0.00  0.00    +0.000 A 
ATOM      4  C   UNL     1     101.189 132.758 141.954  0.00  0.00    +0.000 A 
ATOM      5  C   UNL     1     102.096 131.403 141.702  0.00  0.00    +0.000 A 
ATOM      6  C   UNL     1     100.916 132.025 142.215  0.00  0.00    +0.000 A 
ATOM      7  C   UNL     1     101.370 131.347 142.089  0.00  0.00    +0.000 A 
ENDROOT
BRANCH   5  11
ATOM      8  O   UNL     1     103.146 130.524 142.109  0.00  0.00    +0.000 OA
ATOM      9  O   UNL     1     102.723 129.100 140.130  0.00  0.00    +0.000 OA
ATOM     10  O   UNL     1     103.778 128.196 140.520  0.00  0.00    +0.000 OA
ATOM     11  C   UNL     1     102.550 130.726 141.575  0.00  0.00    +0.000 A 
ATOM     12  C   UNL     1     103.600 129.847 141.984  0.00  0.00    +0.000 A 
ATOM     13  C   UNL     1     103.459 129.372 141.324  0.00  0.00    +0.000 A 
ATOM     14  C   UNL     1     102.410 130.251 140.916  0.00  0.00    +0.000 A 
ATOM     15  C   UNL     1     102.864 129.574 140.790  0.00  0.00    +0.000 A 
ATOM     16  C   UNL     1     103.925 128.665 141.182  0.00  0.00    +0.000 A 
ATOM     17  C   UNL     1     104.217 129.647 142.548  0.00  0.00    +0.000 A 
ATOM     18  C   UNL     1     104.694 128.943 142.422  0.00  0.00    +0.000 A 
ATOM     19  C   UNL     1     104.548 128.449 141.735  0.00  0.00    +0.000 A 
BRANCH  18  20
ATOM     20  O   UNL     1     105.288 128.743 142.958  0.00  0.00    +0.000 OA
BRANCH  20  21
ATOM     21  S   UNL     1     105.209 128.073 143.433  0.00  0.00    +0.000 S 
ATOM     22  O   UNL     1     105.129 127.404 143.907  0.00  0.00    +0.000 OA
ATOM     23  O   UNL     1     104.785 128.516 143.986  0.00  0.00    +0.000 OA
ATOM     24  O   UNL     1     105.632 127.631 142.880  0.00  0.00    +0.000 OA
ENDBRANCH  20  21
ENDBRANCH  18  20
ENDBRANCH   5  11
BRANCH   2  25
ATOM     25  O   UNL     1     102.188 133.548 141.304  0.00  0.00    +0.000 OA
BRANCH  25  34
ATOM     26  O   UNL     1     103.114 133.832 142.355  0.00  0.00    +0.000 OA
ATOM     27  O   UNL     1     104.750 134.655 140.691  0.00  0.00    +0.000 OA
ATOM     28  O   UNL     1     105.130 134.664 142.297  0.00  0.00    +0.000 OA
ATOM     29  O   UNL     1     103.279 134.097 140.195  0.00  0.00    +0.000 OA
ATOM     30  C   UNL     1     104.205 134.381 141.246  0.00  0.00    +0.000 C 
ATOM     31  C   UNL     1     104.394 134.385 142.049  0.00  0.00    +0.000 C 
ATOM     32  C   UNL     1     103.468 134.101 140.998  0.00  0.00    +0.000 C 
ATOM     33  C   UNL     1     103.849 134.111 142.603  0.00  0.00    +0.000 C 
ATOM     34  C   UNL     1     102.923 133.827 141.552  0.00  0.00    +0.000 C 
BRANCH  33  36
ATOM     35  O   UNL     1     103.506 134.421 143.955  0.00  0.00    +0.000 OA
ATOM     36  C   UNL     1     104.039 134.116 143.406  0.00  0.00    +0.000 C 
ENDBRANCH  33  36
ENDBRANCH  25  34
ENDBRANCH   2  25
TORSDOF 6
ENDMDL
MODEL 4
REMARK VINA RESULT:      -9.1      2.605      5.270
REMARK  Name = 44258145
REMARK  6 active torsions:
REMARK  status: ('A' for Active; 'I' for Inactive)
REMARK    1  A    between atoms: S_1  and  O_10
REMARK    2  A    between atoms: O_3  and  C_20
REMARK    3  A    between atoms: O_3  and  C_22
REMARK    4  A    between atoms: O_10  and  C_35
REMARK    5  A    between atoms: C_19  and  C_21
REMARK    6  A    between atoms: C_25  and  C_28
REMARK                            x       y       z     vdW  Elec       q    Type
REMARK                         _______ _______ _______ _____ _____    ______ ____
ROOT
ATOM      1  O   UNL     1     114.592 130.944 135.637  0.00  0.00    +0.000 OA
ATOM      2  C   UNL     1     114.067 129.952 136.521  0.00  0.00    +0.000 A 
ATOM      3  C   UNL     1     113.786 129.187 136.650  0.00  0.00    +0.000 A 
ATOM      4  C   UNL     1     114.311 130.179 135.766  0.00  0.00    +0.000 A 
ATOM      5  C   UNL     1     113.750 128.649 136.025  0.00  0.00    +0.000 A 
ATOM      6  C   UNL     1     114.275 129.642 135.141  0.00  0.00    +0.000 A 
ATOM      7  C   UNL     1     113.994 128.877 135.271  0.00  0.00    +0.000 A 
ENDROOT
BRANCH   5  11
ATOM      8  O   UNL     1     112.666 127.719 136.059  0.00  0.00    +0.000 OA
ATOM      9  O   UNL     1     114.228 125.923 136.738  0.00  0.00    +0.000 OA
ATOM     10  O   UNL     1     113.152 124.963 136.780  0.00  0.00    +0.000 OA
ATOM     11  C   UNL     1     113.469 127.884 136.155  0.00  0.00    +0.000 A 
ATOM     12  C   UNL     1     112.384 126.954 136.189  0.00  0.00    +0.000 A 
ATOM     13  C   UNL     1     112.906 126.355 136.415  0.00  0.00    +0.000 A 
ATOM     14  C   UNL     1     113.989 127.286 136.381  0.00  0.00    +0.000 A 
ATOM     15  C   UNL     1     113.708 126.521 136.511  0.00  0.00    +0.000 A 
ATOM     16  C   UNL     1     112.625 125.556 136.554  0.00  0.00    +0.000 A 
ATOM     17  C   UNL     1     111.547 126.794 136.086  0.00  0.00    +0.000 A 
ATOM     18  C   UNL     1     111.248 126.000 136.220  0.00  0.00    +0.000 A 
ATOM     19  C   UNL     1     111.790 125.376 136.455  0.00  0.00    +0.000 A 
BRANCH  18  20
ATOM     20  O   UNL     1     110.445 125.836 136.123  0.00  0.00    +0.000 OA
BRANCH  20  21
ATOM     21  S   UNL     1     110.111 125.836 135.367  0.00  0.00    +0.000 S 
ATOM     22  O   UNL     1     109.778 125.835 134.614  0.00  0.00    +0.000 OA
ATOM     23  O   UNL     1     110.422 125.083 135.231  0.00  0.00    +0.000 OA
ATOM     24  O   UNL     1     109.802 126.588 135.504  0.00  0.00    +0.000 OA
ENDBRANCH  20  21
ENDBRANCH  18  20
ENDBRANCH   5  11
BRANCH   2  25
ATOM     25  O   UNL     1     114.104 130.489 137.146  0.00  0.00    +0.000 OA
BRANCH  25  34
ATOM     26  O   UNL     1     112.722 130.828 137.278  0.00  0.00    +0.000 OA
ATOM     27  O   UNL     1     112.892 130.564 139.733  0.00  0.00    +0.000 OA
ATOM     28  O   UNL     1     111.453 130.991 139.047  0.00  0.00    +0.000 OA
ATOM     29  O   UNL     1     114.217 130.313 138.783  0.00  0.00    +0.000 OA
ATOM     30  C   UNL     1     112.835 130.652 138.915  0.00  0.00    +0.000 C 
ATOM     31  C   UNL     1     112.116 130.865 138.571  0.00  0.00    +0.000 C 
ATOM     32  C   UNL     1     113.498 130.526 138.439  0.00  0.00    +0.000 C 
ATOM     33  C   UNL     1     112.059 130.953 137.753  0.00  0.00    +0.000 C 
ATOM     34  C   UNL     1     113.441 130.614 137.621  0.00  0.00    +0.000 C 
BRANCH  33  36
ATOM     35  O   UNL     1     111.318 131.738 136.817  0.00  0.00    +0.000 OA
ATOM     36  C   UNL     1     111.340 131.166 137.411  0.00  0.00    +0.000 C 
ENDBRANCH  33  36
ENDBRANCH  25  34
ENDBRANCH   2  25
TORSDOF 6
ENDMDL
MODEL 5
REMARK VINA RESULT:      -9.1      2.605      5.271
REMARK  Name = 44258145
REMARK  6 active torsions:
REMARK  status: ('A' for Active; 'I' for Inactive)
REMARK    1  A    between atoms: S_1  and  O_10
REMARK    2  A    between atoms: O_3  and  C_20
REMARK    3  A    between atoms: O_3  and  C_22
REMARK    4  A    between atoms: O_10  and  C_35
REMARK    5  A    between atoms: C_19  and  C_21
REMARK    6  A    between atoms: C_25  and  C_28
REMARK                            x       y       z     vdW  Elec       q    Type
REMARK                         _______ _______ _______ _____ _____    ______ ____
ROOT
ATOM      1  O   UNL     1     108.254 130.951 135.123  0.00  0.00    +0.000 OA
ATOM      2  C   UNL     1     109.284 130.520 136.016  0.00  0.00    +0.000 A 
ATOM      3  C   UNL     1     110.012 130.154 136.143  0.00  0.00    +0.000 A 
ATOM      4  C   UNL     1     108.982 130.584 135.250  0.00  0.00    +0.000 A 
ATOM      5  C   UNL     1     110.438 129.850 135.505  0.00  0.00    +0.000 A 
ATOM      6  C   UNL     1     109.408 130.281 134.612  0.00  0.00    +0.000 A 
ATOM      7  C   UNL     1     110.136 129.914 134.740  0.00  0.00    +0.000 A 
ENDROOT
BRANCH   5  11
ATOM      8  O   UNL     1     111.849 129.940 135.708  0.00  0.00    +0.000 OA
ATOM      9  O   UNL     1     111.984 127.474 135.867  0.00  0.00    +0.000 OA
ATOM     10  O   UNL     1     113.411 127.537 136.074  0.00  0.00    +0.000 OA
ATOM     11  C   UNL     1     111.166 129.484 135.633  0.00  0.00    +0.000 A 
ATOM     12  C   UNL     1     112.578 129.575 135.836  0.00  0.00    +0.000 A 
ATOM     13  C   UNL     1     112.623 128.752 135.889  0.00  0.00    +0.000 A 
ATOM     14  C   UNL     1     111.211 128.662 135.686  0.00  0.00    +0.000 A 
ATOM     15  C   UNL     1     111.939 128.296 135.814  0.00  0.00    +0.000 A 
ATOM     16  C   UNL     1     113.375 128.359 136.022  0.00  0.00    +0.000 A 
ATOM     17  C   UNL     1     113.282 130.060 135.912  0.00  0.00    +0.000 A 
ATOM     18  C   UNL     1     114.044 129.685 136.045  0.00  0.00    +0.000 A 
ATOM     19  C   UNL     1     114.091 128.829 136.101  0.00  0.00    +0.000 A 
BRANCH  18  20
ATOM     20  O   UNL     1     114.725 130.143 136.120  0.00  0.00    +0.000 OA
BRANCH  20  21
ATOM     21  S   UNL     1     115.007 130.573 135.473  0.00  0.00    +0.000 S 
ATOM     22  O   UNL     1     115.289 131.001 134.828  0.00  0.00    +0.000 OA
ATOM     23  O   UNL     1     115.331 129.882 135.156  0.00  0.00    +0.000 OA
ATOM     24  O   UNL     1     114.684 131.262 135.791  0.00  0.00    +0.000 OA
ENDBRANCH  20  21
ENDBRANCH  18  20
ENDBRANCH   5  11
BRANCH   2  25
ATOM     25  O   UNL     1     108.857 130.824 136.654  0.00  0.00    +0.000 OA
BRANCH  25  34
ATOM     26  O   UNL     1     109.639 132.002 136.860  0.00  0.00    +0.000 OA
ATOM     27  O   UNL     1     109.411 131.724 139.309  0.00  0.00    +0.000 OA
ATOM     28  O   UNL     1     110.269 132.995 138.699  0.00  0.00    +0.000 OA
ATOM     29  O   UNL     1     108.705 130.639 138.286  0.00  0.00    +0.000 OA
ATOM     30  C   UNL     1     109.487 131.817 138.493  0.00  0.00    +0.000 C 
ATOM     31  C   UNL     1     109.916 132.452 138.187  0.00  0.00    +0.000 C 
ATOM     32  C   UNL     1     109.134 131.274 137.981  0.00  0.00    +0.000 C 
ATOM     33  C   UNL     1     109.992 132.544 137.371  0.00  0.00    +0.000 C 
ATOM     34  C   UNL     1     109.210 131.366 137.165  0.00  0.00    +0.000 C 
BRANCH  33  36
ATOM     35  O   UNL     1     110.225 133.497 136.332  0.00  0.00    +0.000 OA
ATOM     36  C   UNL     1     110.421 133.180 137.067  0.00  0.00    +0.000 C 
ENDBRANCH  33  36
ENDBRANCH  25  34
ENDBRANCH   2  25
TORSDOF 6
ENDMDL
MODEL 6
REMARK VINA RESULT:      -9.0      1.982      5.464
REMARK  Name = 44258145
REMARK  6 active torsions:
REMARK  status: ('A' for Active; 'I' for Inactive)
REMARK    1  A    between atoms: S_1  and  O_10
REMARK    2  A    between atoms: O_3  and  C_20
REMARK    3  A    between atoms: O_3  and  C_22
REMARK    4  A    between atoms: O_10  and  C_35
REMARK    5  A    between atoms: C_19  and  C_21
REMARK    6  A    between atoms: C_25  and  C_28
REMARK                            x       y       z     vdW  Elec       q    Type
REMARK                         _______ _______ _______ _____ _____    ______ ____
ROOT
ATOM      1  O   UNL     1     108.320 131.085 135.049  0.00  0.00    +0.000 OA
ATOM      2  C   UNL     1     109.192 130.487 136.010  0.00  0.00    +0.000 A 
ATOM      3  C   UNL     1     109.841 130.010 136.186  0.00  0.00    +0.000 A 
ATOM      4  C   UNL     1     108.969 130.607 135.225  0.00  0.00    +0.000 A 
ATOM      5  C   UNL     1     110.267 129.652 135.577  0.00  0.00    +0.000 A 
ATOM      6  C   UNL     1     109.395 130.249 134.615  0.00  0.00    +0.000 A 
ATOM      7  C   UNL     1     110.044 129.771 134.792  0.00  0.00    +0.000 A 
ENDROOT
BRANCH   5  11
ATOM      8  O   UNL     1     110.800 128.405 136.028  0.00  0.00    +0.000 OA
ATOM      9  O   UNL     1     113.097 129.278 135.735  0.00  0.00    +0.000 OA
ATOM     10  O   UNL     1     113.660 128.029 136.187  0.00  0.00    +0.000 OA
ATOM     11  C   UNL     1     110.917 129.174 135.753  0.00  0.00    +0.000 A 
ATOM     12  C   UNL     1     111.448 127.927 136.205  0.00  0.00    +0.000 A 
ATOM     13  C   UNL     1     112.214 128.218 136.107  0.00  0.00    +0.000 A 
ATOM     14  C   UNL     1     111.682 129.465 135.656  0.00  0.00    +0.000 A 
ATOM     15  C   UNL     1     112.331 128.987 135.832  0.00  0.00    +0.000 A 
ATOM     16  C   UNL     1     112.897 127.730 136.288  0.00  0.00    +0.000 A 
ATOM     17  C   UNL     1     111.313 127.127 136.490  0.00  0.00    +0.000 A 
ATOM     18  C   UNL     1     111.985 126.625 136.676  0.00  0.00    +0.000 A 
ATOM     19  C   UNL     1     112.782 126.928 136.574  0.00  0.00    +0.000 A 
BRANCH  18  20
ATOM     20  O   UNL     1     111.865 125.856 136.950  0.00  0.00    +0.000 OA
BRANCH  20  21
ATOM     21  S   UNL     1     111.537 125.286 136.452  0.00  0.00    +0.000 S 
ATOM     22  O   UNL     1     111.210 124.716 135.954  0.00  0.00    +0.000 OA
ATOM     23  O   UNL     1     112.278 125.159 136.109  0.00  0.00    +0.000 OA
ATOM     24  O   UNL     1     110.798 125.413 136.794  0.00  0.00    +0.000 OA
ENDBRANCH  20  21
ENDBRANCH  18  20
ENDBRANCH   5  11
BRANCH   2  25
ATOM     25  O   UNL     1     108.766 130.845 136.620  0.00  0.00    +0.000 OA
BRANCH  25  34
ATOM     26  O   UNL     1     109.629 131.956 136.872  0.00  0.00    +0.000 OA
ATOM     27  O   UNL     1     109.339 131.627 139.308  0.00  0.00    +0.000 OA
ATOM     28  O   UNL     1     110.298 132.847 138.749  0.00  0.00    +0.000 OA
ATOM     29  O   UNL     1     108.573 130.625 138.244  0.00  0.00    +0.000 OA
ATOM     30  C   UNL     1     109.436 131.736 138.496  0.00  0.00    +0.000 C 
ATOM     31  C   UNL     1     109.915 132.346 138.216  0.00  0.00    +0.000 C 
ATOM     32  C   UNL     1     109.053 131.235 137.963  0.00  0.00    +0.000 C 
ATOM     33  C   UNL     1     110.011 132.456 137.404  0.00  0.00    +0.000 C 
ATOM     34  C   UNL     1     109.149 131.345 137.151  0.00  0.00    +0.000 C 
BRANCH  33  36
ATOM     35  O   UNL     1     110.285 133.473 136.438  0.00  0.00    +0.000 OA
ATOM     36  C   UNL     1     110.491 133.067 137.125  0.00  0.00    +0.000 C 
ENDBRANCH  33  36
ENDBRANCH  25  34
ENDBRANCH   2  25
TORSDOF 6
ENDMDL
MODEL 7
REMARK VINA RESULT:      -9.0      2.570      4.966
REMARK  Name = 44258145
REMARK  6 active torsions:
REMARK  status: ('A' for Active; 'I' for Inactive)
REMARK    1  A    between atoms: S_1  and  O_10
REMARK    2  A    between atoms: O_3  and  C_20
REMARK    3  A    between atoms: O_3  and  C_22
REMARK    4  A    between atoms: O_10  and  C_35
REMARK    5  A    between atoms: C_19  and  C_21
REMARK    6  A    between atoms: C_25  and  C_28
REMARK                            x       y       z     vdW  Elec       q    Type
REMARK                         _______ _______ _______ _____ _____    ______ ____
ROOT
ATOM      1  O   UNL     1     114.607 130.394 135.893  0.00  0.00    +0.000 OA
ATOM      2  C   UNL     1     113.296 129.898 136.171  0.00  0.00    +0.000 A 
ATOM      3  C   UNL     1     112.735 129.295 136.122  0.00  0.00    +0.000 A 
ATOM      4  C   UNL     1     114.047 129.791 135.844  0.00  0.00    +0.000 A 
ATOM      5  C   UNL     1     112.924 128.586 135.746  0.00  0.00    +0.000 A 
ATOM      6  C   UNL     1     114.235 129.081 135.468  0.00  0.00    +0.000 A 
ATOM      7  C   UNL     1     113.673 128.479 135.419  0.00  0.00    +0.000 A 
ENDROOT
BRANCH   5  11
ATOM      8  O   UNL     1     112.442 127.307 136.163  0.00  0.00    +0.000 OA
ATOM      9  O   UNL     1     110.519 127.527 134.621  0.00  0.00    +0.000 OA
ATOM     10  O   UNL     1     110.011 126.239 135.025  0.00  0.00    +0.000 OA
ATOM     11  C   UNL     1     112.362 127.983 135.697  0.00  0.00    +0.000 A 
ATOM     12  C   UNL     1     111.881 126.704 136.115  0.00  0.00    +0.000 A 
ATOM     13  C   UNL     1     111.239 126.778 135.601  0.00  0.00    +0.000 A 
ATOM     14  C   UNL     1     111.722 128.056 135.184  0.00  0.00    +0.000 A 
ATOM     15  C   UNL     1     111.160 127.454 135.135  0.00  0.00    +0.000 A 
ATOM     16  C   UNL     1     110.649 126.158 135.542  0.00  0.00    +0.000 A 
ATOM     17  C   UNL     1     111.975 126.005 136.606  0.00  0.00    +0.000 A 
ATOM     18  C   UNL     1     111.393 125.374 136.560  0.00  0.00    +0.000 A 
ATOM     19  C   UNL     1     110.726 125.450 136.025  0.00  0.00    +0.000 A 
BRANCH  18  20
ATOM     20  O   UNL     1     111.475 124.699 137.027  0.00  0.00    +0.000 OA
BRANCH  20  21
ATOM     21  S   UNL     1     112.069 124.150 136.860  0.00  0.00    +0.000 S 
ATOM     22  O   UNL     1     112.662 123.602 136.692  0.00  0.00    +0.000 OA
ATOM     23  O   UNL     1     112.552 124.499 137.431  0.00  0.00    +0.000 OA
ATOM     24  O   UNL     1     111.586 123.803 136.289  0.00  0.00    +0.000 OA
ENDBRANCH  20  21
ENDBRANCH  18  20
ENDBRANCH   5  11
BRANCH   2  25
ATOM     25  O   UNL     1     113.108 130.608 136.547  0.00  0.00    +0.000 OA
BRANCH  25  34
ATOM     26  O   UNL     1     113.255 130.206 137.911  0.00  0.00    +0.000 OA
ATOM     27  O   UNL     1     111.150 131.376 138.483  0.00  0.00    +0.000 OA
ATOM     28  O   UNL     1     111.999 130.584 139.655  0.00  0.00    +0.000 OA
ATOM     29  O   UNL     1     111.705 131.388 136.929  0.00  0.00    +0.000 OA
ATOM     30  C   UNL     1     111.852 130.986 138.292  0.00  0.00    +0.000 C 
ATOM     31  C   UNL     1     112.276 130.590 138.878  0.00  0.00    +0.000 C 
ATOM     32  C   UNL     1     112.129 130.992 137.514  0.00  0.00    +0.000 C 
ATOM     33  C   UNL     1     112.978 130.200 138.687  0.00  0.00    +0.000 C 
ATOM     34  C   UNL     1     112.831 130.602 137.324  0.00  0.00    +0.000 C 
BRANCH  33  36
ATOM     35  O   UNL     1     114.198 129.978 139.397  0.00  0.00    +0.000 OA
ATOM     36  C   UNL     1     113.402 129.804 139.274  0.00  0.00    +0.000 C 
ENDBRANCH  33  36
ENDBRANCH  25  34
ENDBRANCH   2  25
TORSDOF 6
ENDMDL
MODEL 8
REMARK VINA RESULT:      -9.0      2.887      4.914
REMARK  Name = 44258145
REMARK  6 active torsions:
REMARK  status: ('A' for Active; 'I' for Inactive)
REMARK    1  A    between atoms: S_1  and  O_10
REMARK    2  A    between atoms: O_3  and  C_20
REMARK    3  A    between atoms: O_3  and  C_22
REMARK    4  A    between atoms: O_10  and  C_35
REMARK    5  A    between atoms: C_19  and  C_21
REMARK    6  A    between atoms: C_25  and  C_28
REMARK                            x       y       z     vdW  Elec       q    Type
REMARK                         _______ _______ _______ _____ _____    ______ ____
ROOT
ATOM      1  O   UNL     1     113.828 125.293 136.938  0.00  0.00    +0.000 OA
ATOM      2  C   UNL     1     113.146 126.414 137.504  0.00  0.00    +0.000 A 
ATOM      3  C   UNL     1     113.028 126.937 138.131  0.00  0.00    +0.000 A 
ATOM      4  C   UNL     1     113.711 125.816 137.566  0.00  0.00    +0.000 A 
ATOM      5  C   UNL     1     113.475 126.861 138.820  0.00  0.00    +0.000 A 
ATOM      6  C   UNL     1     114.158 125.740 138.255  0.00  0.00    +0.000 A 
ATOM      7  C   UNL     1     114.040 126.264 138.882  0.00  0.00    +0.000 A 
ENDROOT
BRANCH   5  11
ATOM      8  O   UNL     1     113.631 128.161 139.394  0.00  0.00    +0.000 OA
ATOM      9  O   UNL     1     112.455 127.403 141.434  0.00  0.00    +0.000 OA
ATOM     10  O   UNL     1     112.599 128.707 142.036  0.00  0.00    +0.000 OA
ATOM     11  C   UNL     1     113.357 127.385 139.448  0.00  0.00    +0.000 A 
ATOM     12  C   UNL     1     113.514 128.685 140.020  0.00  0.00    +0.000 A 
ATOM     13  C   UNL     1     113.121 128.432 140.701  0.00  0.00    +0.000 A 
ATOM     14  C   UNL     1     112.965 127.132 140.127  0.00  0.00    +0.000 A 
ATOM     15  C   UNL     1     112.847 127.656 140.755  0.00  0.00    +0.000 A 
ATOM     16  C   UNL     1     112.992 128.967 141.359  0.00  0.00    +0.000 A 
ATOM     17  C   UNL     1     113.804 129.490 139.952  0.00  0.00    +0.000 A 
ATOM     18  C   UNL     1     113.684 130.040 140.601  0.00  0.00    +0.000 A 
ATOM     19  C   UNL     1     113.276 129.778 141.310  0.00  0.00    +0.000 A 
BRANCH  18  20
ATOM     20  O   UNL     1     113.959 130.816 140.544  0.00  0.00    +0.000 OA
BRANCH  20  21
ATOM     21  S   UNL     1     114.650 131.039 140.937  0.00  0.00    +0.000 S 
ATOM     22  O   UNL     1     115.340 131.262 141.328  0.00  0.00    +0.000 OA
ATOM     23  O   UNL     1     115.101 130.718 140.324  0.00  0.00    +0.000 OA
ATOM     24  O   UNL     1     114.199 131.360 141.548  0.00  0.00    +0.000 OA
ENDBRANCH  20  21
ENDBRANCH  18  20
ENDBRANCH   5  11
BRANCH   2  25
ATOM     25  O   UNL     1     112.699 126.490 136.814  0.00  0.00    +0.000 OA
BRANCH  25  34
ATOM     26  O   UNL     1     113.352 127.626 136.245  0.00  0.00    +0.000 OA
ATOM     27  O   UNL     1     111.154 128.578 135.622  0.00  0.00    +0.000 OA
ATOM     28  O   UNL     1     112.541 129.397 135.260  0.00  0.00    +0.000 OA
ATOM     29  O   UNL     1     111.234 127.124 136.399  0.00  0.00    +0.000 OA
ATOM     30  C   UNL     1     111.887 128.261 135.829  0.00  0.00    +0.000 C 
ATOM     31  C   UNL     1     112.580 128.669 135.649  0.00  0.00    +0.000 C 
ATOM     32  C   UNL     1     111.927 127.533 136.218  0.00  0.00    +0.000 C 
ATOM     33  C   UNL     1     113.313 128.352 135.857  0.00  0.00    +0.000 C 
ATOM     34  C   UNL     1     112.659 127.216 136.426  0.00  0.00    +0.000 C 
BRANCH  33  36
ATOM     35  O   UNL     1     114.649 128.363 135.350  0.00  0.00    +0.000 OA
ATOM     36  C   UNL     1     114.006 128.762 135.676  0.00  0.00    +0.000 C 
ENDBRANCH  33  36
ENDBRANCH  25  34
ENDBRANCH   2  25
TORSDOF 6
ENDMDL
MODEL 9
REMARK VINA RESULT:      -8.9      1.585      4.947
REMARK  Name = 44258145
REMARK  6 active torsions:
REMARK  status: ('A' for Active; 'I' for Inactive)
REMARK    1  A    between atoms: S_1  and  O_10
REMARK    2  A    between atoms: O_3  and  C_20
REMARK    3  A    between atoms: O_3  and  C_22
REMARK    4  A    between atoms: O_10  and  C_35
REMARK    5  A    between atoms: C_19  and  C_21
REMARK    6  A    between atoms: C_25  and  C_28
REMARK                            x       y       z     vdW  Elec       q    Type
REMARK                         _______ _______ _______ _____ _____    ______ ____
ROOT
ATOM      1  O   UNL     1     110.323 125.530 134.612  0.00  0.00    +0.000 OA
ATOM      2  C   UNL     1     111.081 126.403 135.453  0.00  0.00    +0.000 A 
ATOM      3  C   UNL     1     111.511 126.532 136.144  0.00  0.00    +0.000 A 
ATOM      4  C   UNL     1     110.754 125.659 135.304  0.00  0.00    +0.000 A 
ATOM      5  C   UNL     1     111.616 125.920 136.686  0.00  0.00    +0.000 A 
ATOM      6  C   UNL     1     110.859 125.046 135.846  0.00  0.00    +0.000 A 
ATOM      7  C   UNL     1     111.290 125.177 136.537  0.00  0.00    +0.000 A 
ENDROOT
BRANCH   5  11
ATOM      8  O   UNL     1     111.661 126.297 138.064  0.00  0.00    +0.000 OA
ATOM      9  O   UNL     1     114.111 125.951 138.080  0.00  0.00    +0.000 OA
ATOM     10  O   UNL     1     114.184 126.328 139.471  0.00  0.00    +0.000 OA
ATOM     11  C   UNL     1     112.048 126.050 137.377  0.00  0.00    +0.000 A 
ATOM     12  C   UNL     1     112.091 126.428 138.755  0.00  0.00    +0.000 A 
ATOM     13  C   UNL     1     112.909 126.312 138.760  0.00  0.00    +0.000 A 
ATOM     14  C   UNL     1     112.864 125.935 137.383  0.00  0.00    +0.000 A 
ATOM     15  C   UNL     1     113.295 126.066 138.074  0.00  0.00    +0.000 A 
ATOM     16  C   UNL     1     113.368 126.445 139.474  0.00  0.00    +0.000 A 
ATOM     17  C   UNL     1     111.677 126.684 139.463  0.00  0.00    +0.000 A 
ATOM     18  C   UNL     1     112.121 126.822 140.186  0.00  0.00    +0.000 A 
ATOM     19  C   UNL     1     112.971 126.702 140.192  0.00  0.00    +0.000 A 
BRANCH  18  20
ATOM     20  O   UNL     1     111.732 127.068 140.871  0.00  0.00    +0.000 OA
BRANCH  20  21
ATOM     21  S   UNL     1     111.123 126.609 141.189  0.00  0.00    +0.000 S 
ATOM     22  O   UNL     1     110.517 126.151 141.506  0.00  0.00    +0.000 OA
ATOM     23  O   UNL     1     110.573 127.181 140.960  0.00  0.00    +0.000 OA
ATOM     24  O   UNL     1     111.674 126.039 141.417  0.00  0.00    +0.000 OA
ENDBRANCH  20  21
ENDBRANCH  18  20
ENDBRANCH   5  11
BRANCH   2  25
ATOM     25  O   UNL     1     110.976 127.016 134.910  0.00  0.00    +0.000 OA
BRANCH  25  34
ATOM     26  O   UNL     1     109.889 127.724 135.510  0.00  0.00    +0.000 OA
ATOM     27  O   UNL     1     111.088 129.861 135.160  0.00  0.00    +0.000 OA
ATOM     28  O   UNL     1     109.602 129.857 135.877  0.00  0.00    +0.000 OA
ATOM     29  O   UNL     1     111.775 128.440 134.677  0.00  0.00    +0.000 OA
ATOM     30  C   UNL     1     110.689 129.148 135.277  0.00  0.00    +0.000 C 
ATOM     31  C   UNL     1     109.946 129.146 135.635  0.00  0.00    +0.000 C 
ATOM     32  C   UNL     1     111.032 128.438 135.035  0.00  0.00    +0.000 C 
ATOM     33  C   UNL     1     109.546 128.433 135.752  0.00  0.00    +0.000 C 
ATOM     34  C   UNL     1     110.632 127.725 135.152  0.00  0.00    +0.000 C 
BRANCH  33  36
ATOM     35  O   UNL     1     108.185 127.998 135.779  0.00  0.00    +0.000 OA
ATOM     36  C   UNL     1     108.803 128.432 136.110  0.00  0.00    +0.000 C 
ENDBRANCH  33  36
ENDBRANCH  25  34
ENDBRANCH   2  25
TORSDOF 6
ENDMDL
MODEL 10
REMARK VINA RESULT:      -8.9      2.347      5.152
REMARK  Name = 44258145
REMARK  6 active torsions:
REMARK  status: ('A' for Active; 'I' for Inactive)
REMARK    1  A    between atoms: S_1  and  O_10
REMARK    2  A    between atoms: O_3  and  C_20
REMARK    3  A    between atoms: O_3  and  C_22
REMARK    4  A    between atoms: O_10  and  C_35
REMARK    5  A    between atoms: C_19  and  C_21
REMARK    6  A    between atoms: C_25  and  C_28
REMARK                            x       y       z     vdW  Elec       q    Type
REMARK                         _______ _______ _______ _____ _____    ______ ____
ROOT
ATOM      1  O   UNL     1     114.513 125.457 136.220  0.00  0.00    +0.000 OA
ATOM      2  C   UNL     1     113.624 126.311 136.941  0.00  0.00    +0.000 A 
ATOM      3  C   UNL     1     113.295 126.560 137.656  0.00  0.00    +0.000 A 
ATOM      4  C   UNL     1     114.185 125.706 136.935  0.00  0.00    +0.000 A 
ATOM      5  C   UNL     1     113.527 126.205 138.363  0.00  0.00    +0.000 A 
ATOM      6  C   UNL     1     114.417 125.350 137.642  0.00  0.00    +0.000 A 
ATOM      7  C   UNL     1     114.087 125.600 138.356  0.00  0.00    +0.000 A 
ENDROOT
BRANCH   5  11
ATOM      8  O   UNL     1     112.391 126.353 139.217  0.00  0.00    +0.000 OA
ATOM      9  O   UNL     1     113.820 127.408 140.939  0.00  0.00    +0.000 OA
ATOM     10  O   UNL     1     112.689 127.569 141.820  0.00  0.00    +0.000 OA
ATOM     11  C   UNL     1     113.197 126.455 139.077  0.00  0.00    +0.000 A 
ATOM     12  C   UNL     1     112.060 126.602 139.930  0.00  0.00    +0.000 A 
ATOM     13  C   UNL     1     112.537 126.954 140.505  0.00  0.00    +0.000 A 
ATOM     14  C   UNL     1     113.674 126.806 139.651  0.00  0.00    +0.000 A 
ATOM     15  C   UNL     1     113.344 127.056 140.365  0.00  0.00    +0.000 A 
ATOM     16  C   UNL     1     112.206 127.218 141.251  0.00  0.00    +0.000 A 
ATOM     17  C   UNL     1     111.219 126.490 140.064  0.00  0.00    +0.000 A 
ATOM     18  C   UNL     1     110.870 126.748 140.805  0.00  0.00    +0.000 A 
ATOM     19  C   UNL     1     111.366 127.115 141.403  0.00  0.00    +0.000 A 
BRANCH  18  20
ATOM     20  O   UNL     1     110.063 126.645 140.942  0.00  0.00    +0.000 OA
BRANCH  20  21
ATOM     21  S   UNL     1     109.737 125.886 140.941  0.00  0.00    +0.000 S 
ATOM     22  O   UNL     1     109.412 125.129 140.940  0.00  0.00    +0.000 OA
ATOM     23  O   UNL     1     109.437 126.016 140.183  0.00  0.00    +0.000 OA
ATOM     24  O   UNL     1     110.037 125.757 141.699  0.00  0.00    +0.000 OA
ENDBRANCH  20  21
ENDBRANCH  18  20
ENDBRANCH   5  11
BRANCH   2  25
ATOM     25  O   UNL     1     113.392 126.667 136.234  0.00  0.00    +0.000 OA
BRANCH  25  34
ATOM     26  O   UNL     1     112.114 126.053 136.056  0.00  0.00    +0.000 OA
ATOM     27  O   UNL     1     111.142 128.249 135.457  0.00  0.00    +0.000 OA
ATOM     28  O   UNL     1     110.188 126.903 135.478  0.00  0.00    +0.000 OA
ATOM     29  O   UNL     1     112.744 128.131 135.835  0.00  0.00    +0.000 OA
ATOM     30  C   UNL     1     111.466 127.517 135.657  0.00  0.00    +0.000 C 
ATOM     31  C   UNL     1     110.990 126.844 135.667  0.00  0.00    +0.000 C 
ATOM     32  C   UNL     1     112.268 127.458 135.846  0.00  0.00    +0.000 C 
ATOM     33  C   UNL     1     111.314 126.112 135.867  0.00  0.00    +0.000 C 
ATOM     34  C   UNL     1     112.592 126.726 136.045  0.00  0.00    +0.000 C 
BRANCH  33  36
ATOM     35  O   UNL     1     111.153 124.704 135.681  0.00  0.00    +0.000 OA
ATOM     36  C   UNL     1     110.836 125.439 135.877  0.00  0.00    +0.000 C 
ENDBRANCH  33  36
ENDBRANCH  25  34
ENDBRANCH   2  25
TORSDOF 6
ENDMDL
