MODEL 1
REMARK VINA RESULT:     -10.8      0.000      0.000
REMARK  Name = 44258493
REMARK  11 active torsions:
REMARK  status: ('A' for Active; 'I' for Inactive)
REMARK    1  A    between atoms: O_1  and  C_20
REMARK    2  A    between atoms: O_1  and  C_22
REMARK    3  A    between atoms: O_5  and  C_26
REMARK    4  A    between atoms: O_5  and  C_32
REMARK    5  A    between atoms: O_10  and  C_31
REMARK    6  A    between atoms: O_10  and  C_35
REMARK    7  A    between atoms: C_27  and  C_30
REMARK    8  A    between atoms: C_29  and  C_31
REMARK    9  A    between atoms: C_35  and  C_39
REMARK   10  A    between atoms: C_41  and  C_44
REMARK   11  A    between atoms: C_43  and  C_45
REMARK                            x       y       z     vdW  Elec       q    Type
REMARK                         _______ _______ _______ _____ _____    ______ ____
ROOT
ATOM      1  O   UNL     1     110.395 127.090 138.556  0.00  0.00    +0.000 OA
ATOM      2  O   UNL     1     110.078 125.809 136.462  0.00  0.00    +0.000 OA
ATOM      3  O   UNL     1     109.468 127.336 136.595  0.00  0.00    +0.000 OA
ATOM      4  C   UNL     1     110.594 125.899 137.791  0.00  0.00    +0.000 C 
ATOM      5  C   UNL     1     110.183 126.236 137.160  0.00  0.00    +0.000 C 
ATOM      6  C   UNL     1     109.879 126.999 137.226  0.00  0.00    +0.000 C 
ATOM      7  C   UNL     1     110.700 126.326 138.489  0.00  0.00    +0.000 C 
ATOM      8  C   UNL     1     109.984 127.426 137.924  0.00  0.00    +0.000 C 
ENDROOT
BRANCH   8  10
ATOM      9  O   UNL     1     109.114 128.359 138.568  0.00  0.00    +0.000 OA
ATOM     10  C   UNL     1     109.679 128.190 137.991  0.00  0.00    +0.000 C 
ENDBRANCH   8  10
BRANCH   4  11
ATOM     11  O   UNL     1     110.899 125.136 137.725  0.00  0.00    +0.000 OA
BRANCH  11  16
ATOM     12  O   UNL     1     112.032 125.648 137.020  0.00  0.00    +0.000 OA
ATOM     13  O   UNL     1     111.547 123.620 137.663  0.00  0.00    +0.000 OA
ATOM     14  O   UNL     1     113.004 123.374 136.927  0.00  0.00    +0.000 OA
ATOM     15  O   UNL     1     113.812 124.645 136.254  0.00  0.00    +0.000 OA
ATOM     16  C   UNL     1     111.627 125.013 137.357  0.00  0.00    +0.000 C 
ATOM     17  C   UNL     1     111.952 124.255 137.326  0.00  0.00    +0.000 C 
ATOM     18  C   UNL     1     112.680 124.132 136.958  0.00  0.00    +0.000 C 
ATOM     19  C   UNL     1     113.084 124.768 136.622  0.00  0.00    +0.000 C 
ATOM     20  C   UNL     1     112.760 125.526 136.652  0.00  0.00    +0.000 C 
BRANCH  20  21
ATOM     21  C   UNL     1     113.164 126.162 136.316  0.00  0.00    +0.000 C 
BRANCH  21  22
ATOM     22  O   UNL     1     113.373 126.810 136.781  0.00  0.00    +0.000 OA
BRANCH  22  24
ATOM     23  O   UNL     1     114.253 127.462 135.866  0.00  0.00    +0.000 OA
ATOM     24  C   UNL     1     113.650 127.501 136.427  0.00  0.00    +0.000 C 
BRANCH  24  25
ATOM     25  C   UNL     1     113.323 128.230 136.632  0.00  0.00    +0.000 C 
ATOM     26  C   UNL     1     113.813 128.846 136.879  0.00  0.00    +0.000 C 
BRANCH  26  28
ATOM     27  O   UNL     1     112.508 131.763 137.702  0.00  0.00    +0.000 OA
ATOM     28  C   UNL     1     113.487 129.575 137.085  0.00  0.00    +0.000 A 
ATOM     29  C   UNL     1     113.961 130.250 137.103  0.00  0.00    +0.000 A 
ATOM     30  C   UNL     1     112.685 129.631 137.272  0.00  0.00    +0.000 A 
ATOM     31  C   UNL     1     113.635 130.979 137.309  0.00  0.00    +0.000 A 
ATOM     32  C   UNL     1     112.358 130.360 137.478  0.00  0.00    +0.000 A 
ATOM     33  C   UNL     1     112.834 131.034 137.496  0.00  0.00    +0.000 A 
ENDBRANCH  26  28
ENDBRANCH  24  25
ENDBRANCH  22  24
ENDBRANCH  21  22
ENDBRANCH  20  21
ENDBRANCH  11  16
ENDBRANCH   4  11
BRANCH   7  34
ATOM     34  O   UNL     1     111.110 125.990 139.121  0.00  0.00    +0.000 OA
BRANCH  34  39
ATOM     35  O   UNL     1     110.336 125.746 140.557  0.00  0.00    +0.000 OA
ATOM     36  O   UNL     1     112.690 128.093 140.296  0.00  0.00    +0.000 OA
ATOM     37  O   UNL     1     110.725 126.664 141.871  0.00  0.00    +0.000 OA
ATOM     38  O   UNL     1     111.496 127.711 142.497  0.00  0.00    +0.000 OA
ATOM     39  C   UNL     1     111.305 126.449 139.778  0.00  0.00    +0.000 A 
ATOM     40  C   UNL     1     110.918 126.327 140.495  0.00  0.00    +0.000 A 
ATOM     41  C   UNL     1     111.888 127.031 139.716  0.00  0.00    +0.000 A 
ATOM     42  C   UNL     1     112.082 127.490 140.373  0.00  0.00    +0.000 A 
ATOM     43  C   UNL     1     111.113 126.786 141.152  0.00  0.00    +0.000 A 
ATOM     44  C   UNL     1     111.695 127.368 141.092  0.00  0.00    +0.000 A 
ATOM     45  C   UNL     1     111.889 127.840 141.783  0.00  0.00    +0.000 A 
ATOM     46  C   UNL     1     112.898 128.574 140.978  0.00  0.00    +0.000 A 
ATOM     47  C   UNL     1     112.494 128.447 141.725  0.00  0.00    +0.000 A 
BRANCH  46  50
ATOM     48  O   UNL     1     113.710 131.304 141.216  0.00  0.00    +0.000 OA
ATOM     49  O   UNL     1     115.229 130.895 140.718  0.00  0.00    +0.000 OA
ATOM     50  C   UNL     1     113.480 129.155 140.913  0.00  0.00    +0.000 A 
ATOM     51  C   UNL     1     113.303 129.939 141.097  0.00  0.00    +0.000 A 
ATOM     52  C   UNL     1     114.239 128.950 140.665  0.00  0.00    +0.000 A 
ATOM     53  C   UNL     1     113.887 130.519 141.032  0.00  0.00    +0.000 A 
ATOM     54  C   UNL     1     114.823 129.530 140.600  0.00  0.00    +0.000 A 
ATOM     55  C   UNL     1     114.646 130.315 140.783  0.00  0.00    +0.000 A 
ENDBRANCH  46  50
ENDBRANCH  34  39
ENDBRANCH   7  34
TORSDOF 11
ENDMDL
MODEL 2
REMARK VINA RESULT:     -10.5      6.811      9.866
REMARK  Name = 44258493
REMARK  11 active torsions:
REMARK  status: ('A' for Active; 'I' for Inactive)
REMARK    1  A    between atoms: O_1  and  C_20
REMARK    2  A    between atoms: O_1  and  C_22
REMARK    3  A    between atoms: O_5  and  C_26
REMARK    4  A    between atoms: O_5  and  C_32
REMARK    5  A    between atoms: O_10  and  C_31
REMARK    6  A    between atoms: O_10  and  C_35
REMARK    7  A    between atoms: C_27  and  C_30
REMARK    8  A    between atoms: C_29  and  C_31
REMARK    9  A    between atoms: C_35  and  C_39
REMARK   10  A    between atoms: C_41  and  C_44
REMARK   11  A    between atoms: C_43  and  C_45
REMARK                            x       y       z     vdW  Elec       q    Type
REMARK                         _______ _______ _______ _____ _____    ______ ____
ROOT
ATOM      1  O   UNL     1     105.857 128.899 142.029  0.00  0.00    +0.000 OA
ATOM      2  O   UNL     1     106.668 128.717 144.360  0.00  0.00    +0.000 OA
ATOM      3  O   UNL     1     107.551 129.546 143.241  0.00  0.00    +0.000 OA
ATOM      4  C   UNL     1     105.684 128.423 143.366  0.00  0.00    +0.000 C 
ATOM      5  C   UNL     1     106.397 128.778 143.583  0.00  0.00    +0.000 C 
ATOM      6  C   UNL     1     106.839 129.192 143.024  0.00  0.00    +0.000 C 
ATOM      7  C   UNL     1     105.414 128.484 142.589  0.00  0.00    +0.000 C 
ATOM      8  C   UNL     1     106.569 129.253 142.247  0.00  0.00    +0.000 C 
ENDROOT
BRANCH   8  10
ATOM      9  O   UNL     1     107.216 129.305 140.974  0.00  0.00    +0.000 OA
ATOM     10  C   UNL     1     107.011 129.667 141.687  0.00  0.00    +0.000 C 
ENDBRANCH   8  10
BRANCH   4  11
ATOM     11  O   UNL     1     105.242 128.009 143.925  0.00  0.00    +0.000 OA
BRANCH  11  16
ATOM     12  O   UNL     1     105.791 126.730 143.596  0.00  0.00    +0.000 OA
ATOM     13  O   UNL     1     105.068 127.530 145.494  0.00  0.00    +0.000 OA
ATOM     14  O   UNL     1     105.529 126.013 145.950  0.00  0.00    +0.000 OA
ATOM     15  O   UNL     1     106.165 124.974 144.837  0.00  0.00    +0.000 OA
ATOM     16  C   UNL     1     105.473 127.250 144.153  0.00  0.00    +0.000 C 
ATOM     17  C   UNL     1     105.386 127.011 144.938  0.00  0.00    +0.000 C 
ATOM     18  C   UNL     1     105.616 126.252 145.166  0.00  0.00    +0.000 C 
ATOM     19  C   UNL     1     105.934 125.733 144.609  0.00  0.00    +0.000 C 
ATOM     20  C   UNL     1     106.021 125.972 143.824  0.00  0.00    +0.000 C 
BRANCH  20  21
ATOM     21  C   UNL     1     106.339 125.453 143.267  0.00  0.00    +0.000 C 
BRANCH  21  22
ATOM     22  O   UNL     1     105.878 125.197 142.633  0.00  0.00    +0.000 OA
BRANCH  22  24
ATOM     23  O   UNL     1     106.990 124.512 142.057  0.00  0.00    +0.000 OA
ATOM     24  C   UNL     1     106.233 124.831 141.985  0.00  0.00    +0.000 C 
BRANCH  24  25
ATOM     25  C   UNL     1     105.832 124.784 141.265  0.00  0.00    +0.000 C 
ATOM     26  C   UNL     1     105.614 124.049 140.962  0.00  0.00    +0.000 C 
BRANCH  26  28
ATOM     27  O   UNL     1     104.010 123.862 138.084  0.00  0.00    +0.000 OA
ATOM     28  C   UNL     1     105.213 124.003 140.242  0.00  0.00    +0.000 A 
ATOM     29  C   UNL     1     104.537 123.536 140.176  0.00  0.00    +0.000 A 
ATOM     30  C   UNL     1     105.489 124.423 139.588  0.00  0.00    +0.000 A 
ATOM     31  C   UNL     1     104.136 123.489 139.457  0.00  0.00    +0.000 A 
ATOM     32  C   UNL     1     105.088 124.377 138.868  0.00  0.00    +0.000 A 
ATOM     33  C   UNL     1     104.411 123.909 138.804  0.00  0.00    +0.000 A 
ENDBRANCH  26  28
ENDBRANCH  24  25
ENDBRANCH  22  24
ENDBRANCH  21  22
ENDBRANCH  20  21
ENDBRANCH  11  16
ENDBRANCH   4  11
BRANCH   7  34
ATOM     34  O   UNL     1     104.702 128.130 142.370  0.00  0.00    +0.000 OA
BRANCH  34  39
ATOM     35  O   UNL     1     104.340 127.514 140.883  0.00  0.00    +0.000 OA
ATOM     36  O   UNL     1     102.955 130.372 141.900  0.00  0.00    +0.000 OA
ATOM     37  O   UNL     1     103.290 128.314 139.892  0.00  0.00    +0.000 OA
ATOM     38  O   UNL     1     102.406 129.420 139.618  0.00  0.00    +0.000 OA
ATOM     39  C   UNL     1     104.177 128.529 141.875  0.00  0.00    +0.000 A 
ATOM     40  C   UNL     1     103.996 128.222 141.132  0.00  0.00    +0.000 A 
ATOM     41  C   UNL     1     103.833 129.237 142.125  0.00  0.00    +0.000 A 
ATOM     42  C   UNL     1     103.307 129.636 141.629  0.00  0.00    +0.000 A 
ATOM     43  C   UNL     1     103.471 128.621 140.637  0.00  0.00    +0.000 A 
ATOM     44  C   UNL     1     103.126 129.329 140.885  0.00  0.00    +0.000 A 
ATOM     45  C   UNL     1     102.581 129.735 140.360  0.00  0.00    +0.000 A 
ATOM     46  C   UNL     1     102.407 130.793 141.388  0.00  0.00    +0.000 A 
ATOM     47  C   UNL     1     102.219 130.472 140.614  0.00  0.00    +0.000 A 
BRANCH  46  50
ATOM     48  O   UNL     1     102.438 133.648 141.527  0.00  0.00    +0.000 OA
ATOM     49  O   UNL     1     101.036 133.620 142.397  0.00  0.00    +0.000 OA
ATOM     50  C   UNL     1     102.065 131.500 141.640  0.00  0.00    +0.000 A 
ATOM     51  C   UNL     1     102.423 132.220 141.457  0.00  0.00    +0.000 A 
ATOM     52  C   UNL     1     101.364 131.486 142.075  0.00  0.00    +0.000 A 
ATOM     53  C   UNL     1     102.080 132.927 141.709  0.00  0.00    +0.000 A 
ATOM     54  C   UNL     1     101.021 132.193 142.327  0.00  0.00    +0.000 A 
ATOM     55  C   UNL     1     101.379 132.913 142.144  0.00  0.00    +0.000 A 
ENDBRANCH  46  50
ENDBRANCH  34  39
ENDBRANCH   7  34
TORSDOF 11
ENDMDL
MODEL 3
REMARK VINA RESULT:     -10.2      1.583      3.669
REMARK  Name = 44258493
REMARK  11 active torsions:
REMARK  status: ('A' for Active; 'I' for Inactive)
REMARK    1  A    between atoms: O_1  and  C_20
REMARK    2  A    between atoms: O_1  and  C_22
REMARK    3  A    between atoms: O_5  and  C_26
REMARK    4  A    between atoms: O_5  and  C_32
REMARK    5  A    between atoms: O_10  and  C_31
REMARK    6  A    between atoms: O_10  and  C_35
REMARK    7  A    between atoms: C_27  and  C_30
REMARK    8  A    between atoms: C_29  and  C_31
REMARK    9  A    between atoms: C_35  and  C_39
REMARK   10  A    between atoms: C_41  and  C_44
REMARK   11  A    between atoms: C_43  and  C_45
REMARK                            x       y       z     vdW  Elec       q    Type
REMARK                         _______ _______ _______ _____ _____    ______ ____
ROOT
ATOM      1  O   UNL     1     110.059 127.001 138.124  0.00  0.00    +0.000 OA
ATOM      2  O   UNL     1     111.175 124.843 138.600  0.00  0.00    +0.000 OA
ATOM      3  O   UNL     1     110.727 125.832 139.842  0.00  0.00    +0.000 OA
ATOM      4  C   UNL     1     110.655 125.787 137.661  0.00  0.00    +0.000 C 
ATOM      5  C   UNL     1     110.803 125.563 138.441  0.00  0.00    +0.000 C 
ATOM      6  C   UNL     1     110.579 126.056 139.062  0.00  0.00    +0.000 C 
ATOM      7  C   UNL     1     110.283 126.506 137.503  0.00  0.00    +0.000 C 
ATOM      8  C   UNL     1     110.207 126.775 138.904  0.00  0.00    +0.000 C 
ENDROOT
BRANCH   8  10
ATOM      9  O   UNL     1     109.185 127.350 139.721  0.00  0.00    +0.000 OA
ATOM     10  C   UNL     1     109.983 127.270 139.525  0.00  0.00    +0.000 C 
ENDBRANCH   8  10
BRANCH   4  11
ATOM     11  O   UNL     1     110.879 125.293 137.040  0.00  0.00    +0.000 OA
BRANCH  11  16
ATOM     12  O   UNL     1     112.174 125.868 136.859  0.00  0.00    +0.000 OA
ATOM     13  O   UNL     1     111.478 123.814 136.621  0.00  0.00    +0.000 OA
ATOM     14  O   UNL     1     113.073 123.650 136.231  0.00  0.00    +0.000 OA
ATOM     15  O   UNL     1     114.068 124.966 136.260  0.00  0.00    +0.000 OA
ATOM     16  C   UNL     1     111.676 125.211 136.845  0.00  0.00    +0.000 C 
ATOM     17  C   UNL     1     111.976 124.471 136.635  0.00  0.00    +0.000 C 
ATOM     18  C   UNL     1     112.774 124.389 136.440  0.00  0.00    +0.000 C 
ATOM     19  C   UNL     1     113.271 125.048 136.455  0.00  0.00    +0.000 C 
ATOM     20  C   UNL     1     112.972 125.787 136.664  0.00  0.00    +0.000 C 
BRANCH  20  21
ATOM     21  C   UNL     1     113.469 126.445 136.679  0.00  0.00    +0.000 C 
BRANCH  21  22
ATOM     22  O   UNL     1     113.183 127.183 136.446  0.00  0.00    +0.000 OA
BRANCH  22  24
ATOM     23  O   UNL     1     114.169 128.061 135.903  0.00  0.00    +0.000 OA
ATOM     24  C   UNL     1     113.660 127.852 136.517  0.00  0.00    +0.000 C 
BRANCH  24  25
ATOM     25  C   UNL     1     113.627 128.312 137.202  0.00  0.00    +0.000 C 
ATOM     26  C   UNL     1     113.394 129.101 137.157  0.00  0.00    +0.000 C 
BRANCH  26  28
ATOM     27  O   UNL     1     113.264 130.940 139.894  0.00  0.00    +0.000 OA
ATOM     28  C   UNL     1     113.361 129.561 137.841  0.00  0.00    +0.000 A 
ATOM     29  C   UNL     1     112.914 129.309 138.487  0.00  0.00    +0.000 A 
ATOM     30  C   UNL     1     113.776 130.274 137.880  0.00  0.00    +0.000 A 
ATOM     31  C   UNL     1     112.882 129.769 139.171  0.00  0.00    +0.000 A 
ATOM     32  C   UNL     1     113.744 130.733 138.564  0.00  0.00    +0.000 A 
ATOM     33  C   UNL     1     113.296 130.480 139.209  0.00  0.00    +0.000 A 
ENDBRANCH  26  28
ENDBRANCH  24  25
ENDBRANCH  22  24
ENDBRANCH  21  22
ENDBRANCH  20  21
ENDBRANCH  11  16
ENDBRANCH   4  11
BRANCH   7  34
ATOM     34  O   UNL     1     110.135 126.731 136.723  0.00  0.00    +0.000 OA
BRANCH  34  39
ATOM     35  O   UNL     1     108.710 126.719 135.890  0.00  0.00    +0.000 OA
ATOM     36  O   UNL     1     110.016 129.601 136.941  0.00  0.00    +0.000 OA
ATOM     37  O   UNL     1     107.927 128.136 135.575  0.00  0.00    +0.000 OA
ATOM     38  O   UNL     1     107.831 129.573 135.662  0.00  0.00    +0.000 OA
ATOM     39  C   UNL     1     109.743 127.440 136.565  0.00  0.00    +0.000 A 
ATOM     40  C   UNL     1     109.031 127.433 136.149  0.00  0.00    +0.000 A 
ATOM     41  C   UNL     1     110.064 128.155 136.824  0.00  0.00    +0.000 A 
ATOM     42  C   UNL     1     109.672 128.863 136.667  0.00  0.00    +0.000 A 
ATOM     43  C   UNL     1     108.639 128.142 135.991  0.00  0.00    +0.000 A 
ATOM     44  C   UNL     1     108.959 128.857 136.250  0.00  0.00    +0.000 A 
ATOM     45  C   UNL     1     108.542 129.589 136.079  0.00  0.00    +0.000 A 
ATOM     46  C   UNL     1     109.612 130.343 136.780  0.00  0.00    +0.000 A 
ATOM     47  C   UNL     1     108.871 130.336 136.346  0.00  0.00    +0.000 A 
BRANCH  46  50
ATOM     48  O   UNL     1     109.979 132.290 138.840  0.00  0.00    +0.000 OA
ATOM     49  O   UNL     1     110.907 133.195 137.818  0.00  0.00    +0.000 OA
ATOM     50  C   UNL     1     109.935 131.056 137.040  0.00  0.00    +0.000 A 
ATOM     51  C   UNL     1     109.795 131.316 137.810  0.00  0.00    +0.000 A 
ATOM     52  C   UNL     1     110.399 131.508 136.529  0.00  0.00    +0.000 A 
ATOM     53  C   UNL     1     110.119 132.029 138.069  0.00  0.00    +0.000 A 
ATOM     54  C   UNL     1     110.723 132.221 136.789  0.00  0.00    +0.000 A 
ATOM     55  C   UNL     1     110.583 132.482 137.559  0.00  0.00    +0.000 A 
ENDBRANCH  46  50
ENDBRANCH  34  39
ENDBRANCH   7  34
TORSDOF 11
ENDMDL
MODEL 4
REMARK VINA RESULT:     -10.2      2.032      5.258
REMARK  Name = 44258493
REMARK  11 active torsions:
REMARK  status: ('A' for Active; 'I' for Inactive)
REMARK    1  A    between atoms: O_1  and  C_20
REMARK    2  A    between atoms: O_1  and  C_22
REMARK    3  A    between atoms: O_5  and  C_26
REMARK    4  A    between atoms: O_5  and  C_32
REMARK    5  A    between atoms: O_10  and  C_31
REMARK    6  A    between atoms: O_10  and  C_35
REMARK    7  A    between atoms: C_27  and  C_30
REMARK    8  A    between atoms: C_29  and  C_31
REMARK    9  A    between atoms: C_35  and  C_39
REMARK   10  A    between atoms: C_41  and  C_44
REMARK   11  A    between atoms: C_43  and  C_45
REMARK                            x       y       z     vdW  Elec       q    Type
REMARK                         _______ _______ _______ _____ _____    ______ ____
ROOT
ATOM      1  O   UNL     1     111.794 126.633 138.973  0.00  0.00    +0.000 OA
ATOM      2  O   UNL     1     111.508 126.443 141.424  0.00  0.00    +0.000 OA
ATOM      3  O   UNL     1     112.737 127.353 140.805  0.00  0.00    +0.000 OA
ATOM      4  C   UNL     1     111.084 126.115 140.100  0.00  0.00    +0.000 C 
ATOM      5  C   UNL     1     111.603 126.507 140.607  0.00  0.00    +0.000 C 
ATOM      6  C   UNL     1     112.218 126.961 140.298  0.00  0.00    +0.000 C 
ATOM      7  C   UNL     1     111.179 126.178 139.283  0.00  0.00    +0.000 C 
ATOM      8  C   UNL     1     112.313 127.024 139.481  0.00  0.00    +0.000 C 
ENDROOT
BRANCH   8  10
ATOM      9  O   UNL     1     113.518 127.120 138.719  0.00  0.00    +0.000 OA
ATOM     10  C   UNL     1     112.927 127.479 139.171  0.00  0.00    +0.000 C 
ENDBRANCH   8  10
BRANCH   4  11
ATOM     11  O   UNL     1     110.469 125.660 140.410  0.00  0.00    +0.000 OA
BRANCH  11  16
ATOM     12  O   UNL     1     109.697 126.844 140.617  0.00  0.00    +0.000 OA
ATOM     13  O   UNL     1     109.234 124.749 141.016  0.00  0.00    +0.000 OA
ATOM     14  O   UNL     1     107.845 125.478 141.526  0.00  0.00    +0.000 OA
ATOM     15  O   UNL     1     107.690 127.118 141.430  0.00  0.00    +0.000 OA
ATOM     16  C   UNL     1     109.775 126.024 140.665  0.00  0.00    +0.000 C 
ATOM     17  C   UNL     1     109.157 125.569 140.968  0.00  0.00    +0.000 C 
ATOM     18  C   UNL     1     108.462 125.933 141.223  0.00  0.00    +0.000 C 
ATOM     19  C   UNL     1     108.385 126.753 141.175  0.00  0.00    +0.000 C 
ATOM     20  C   UNL     1     109.002 127.209 140.872  0.00  0.00    +0.000 C 
BRANCH  20  21
ATOM     21  C   UNL     1     108.925 128.029 140.824  0.00  0.00    +0.000 C 
BRANCH  21  22
ATOM     22  O   UNL     1     109.005 128.408 140.095  0.00  0.00    +0.000 OA
BRANCH  22  24
ATOM     23  O   UNL     1     108.322 129.633 140.364  0.00  0.00    +0.000 OA
ATOM     24  C   UNL     1     108.972 129.231 140.052  0.00  0.00    +0.000 C 
BRANCH  24  25
ATOM     25  C   UNL     1     109.587 129.651 139.697  0.00  0.00    +0.000 C 
ATOM     26  C   UNL     1     109.441 130.107 139.026  0.00  0.00    +0.000 C 
BRANCH  26  28
ATOM     27  O   UNL     1     111.901 131.788 137.608  0.00  0.00    +0.000 OA
ATOM     28  C   UNL     1     110.056 130.527 138.671  0.00  0.00    +0.000 A 
ATOM     29  C   UNL     1     110.809 130.194 138.622  0.00  0.00    +0.000 A 
ATOM     30  C   UNL     1     109.918 131.281 138.365  0.00  0.00    +0.000 A 
ATOM     31  C   UNL     1     111.424 130.615 138.268  0.00  0.00    +0.000 A 
ATOM     32  C   UNL     1     110.533 131.702 138.011  0.00  0.00    +0.000 A 
ATOM     33  C   UNL     1     111.286 131.368 137.962  0.00  0.00    +0.000 A 
ENDBRANCH  26  28
ENDBRANCH  24  25
ENDBRANCH  22  24
ENDBRANCH  21  22
ENDBRANCH  20  21
ENDBRANCH  11  16
ENDBRANCH   4  11
BRANCH   7  34
ATOM     34  O   UNL     1     110.660 125.786 138.776  0.00  0.00    +0.000 OA
BRANCH  34  39
ATOM     35  O   UNL     1     111.168 124.618 137.726  0.00  0.00    +0.000 OA
ATOM     36  O   UNL     1     110.220 127.605 136.585  0.00  0.00    +0.000 OA
ATOM     37  O   UNL     1     111.208 124.926 136.106  0.00  0.00    +0.000 OA
ATOM     38  O   UNL     1     111.001 125.807 134.982  0.00  0.00    +0.000 OA
ATOM     39  C   UNL     1     110.680 125.940 137.965  0.00  0.00    +0.000 A 
ATOM     40  C   UNL     1     110.934 125.357 137.441  0.00  0.00    +0.000 A 
ATOM     41  C   UNL     1     110.446 126.678 137.680  0.00  0.00    +0.000 A 
ATOM     42  C   UNL     1     110.466 126.832 136.870  0.00  0.00    +0.000 A 
ATOM     43  C   UNL     1     110.954 125.511 136.631  0.00  0.00    +0.000 A 
ATOM     44  C   UNL     1     110.720 126.248 136.345  0.00  0.00    +0.000 A 
ATOM     45  C   UNL     1     110.746 126.396 135.499  0.00  0.00    +0.000 A 
ATOM     46  C   UNL     1     110.239 127.771 135.741  0.00  0.00    +0.000 A 
ATOM     47  C   UNL     1     110.503 127.163 135.196  0.00  0.00    +0.000 A 
BRANCH  46  50
ATOM     48  O   UNL     1     108.245 129.800 135.473  0.00  0.00    +0.000 OA
ATOM     49  O   UNL     1     109.304 130.727 134.612  0.00  0.00    +0.000 OA
ATOM     50  C   UNL     1     110.005 128.510 135.459  0.00  0.00    +0.000 A 
ATOM     51  C   UNL     1     109.242 128.785 135.607  0.00  0.00    +0.000 A 
ATOM     52  C   UNL     1     110.535 128.973 135.029  0.00  0.00    +0.000 A 
ATOM     53  C   UNL     1     109.008 129.524 135.325  0.00  0.00    +0.000 A 
ATOM     54  C   UNL     1     110.301 129.712 134.747  0.00  0.00    +0.000 A 
ATOM     55  C   UNL     1     109.538 129.988 134.895  0.00  0.00    +0.000 A 
ENDBRANCH  46  50
ENDBRANCH  34  39
ENDBRANCH   7  34
TORSDOF 11
ENDMDL
MODEL 5
REMARK VINA RESULT:     -10.2      2.711      5.000
REMARK  Name = 44258493
REMARK  11 active torsions:
REMARK  status: ('A' for Active; 'I' for Inactive)
REMARK    1  A    between atoms: O_1  and  C_20
REMARK    2  A    between atoms: O_1  and  C_22
REMARK    3  A    between atoms: O_5  and  C_26
REMARK    4  A    between atoms: O_5  and  C_32
REMARK    5  A    between atoms: O_10  and  C_31
REMARK    6  A    between atoms: O_10  and  C_35
REMARK    7  A    between atoms: C_27  and  C_30
REMARK    8  A    between atoms: C_29  and  C_31
REMARK    9  A    between atoms: C_35  and  C_39
REMARK   10  A    between atoms: C_41  and  C_44
REMARK   11  A    between atoms: C_43  and  C_45
REMARK                            x       y       z     vdW  Elec       q    Type
REMARK                         _______ _______ _______ _____ _____    ______ ____
ROOT
ATOM      1  O   UNL     1     112.888 129.403 141.174  0.00  0.00    +0.000 OA
ATOM      2  O   UNL     1     112.186 130.526 139.083  0.00  0.00    +0.000 OA
ATOM      3  O   UNL     1     113.789 130.314 139.407  0.00  0.00    +0.000 OA
ATOM      4  C   UNL     1     111.851 129.884 140.315  0.00  0.00    +0.000 C 
ATOM      5  C   UNL     1     112.420 130.152 139.780  0.00  0.00    +0.000 C 
ATOM      6  C   UNL     1     113.221 130.046 139.942  0.00  0.00    +0.000 C 
ATOM      7  C   UNL     1     112.085 129.509 141.012  0.00  0.00    +0.000 C 
ATOM      8  C   UNL     1     113.455 129.671 140.639  0.00  0.00    +0.000 C 
ENDROOT
BRANCH   8  10
ATOM      9  O   UNL     1     114.554 128.805 140.929  0.00  0.00    +0.000 OA
ATOM     10  C   UNL     1     114.257 129.565 140.801  0.00  0.00    +0.000 C 
ENDBRANCH   8  10
BRANCH   4  11
ATOM     11  O   UNL     1     111.050 129.990 140.153  0.00  0.00    +0.000 OA
BRANCH  11  16
ATOM     12  O   UNL     1     110.945 128.693 139.561  0.00  0.00    +0.000 OA
ATOM     13  O   UNL     1     109.677 130.458 139.366  0.00  0.00    +0.000 OA
ATOM     14  O   UNL     1     108.887 129.396 138.382  0.00  0.00    +0.000 OA
ATOM     15  O   UNL     1     109.470 127.865 138.184  0.00  0.00    +0.000 OA
ATOM     16  C   UNL     1     110.655 129.458 139.661  0.00  0.00    +0.000 C 
ATOM     17  C   UNL     1     109.968 129.693 139.267  0.00  0.00    +0.000 C 
ATOM     18  C   UNL     1     109.573 129.161 138.775  0.00  0.00    +0.000 C 
ATOM     19  C   UNL     1     109.865 128.396 138.676  0.00  0.00    +0.000 C 
ATOM     20  C   UNL     1     110.550 128.162 139.069  0.00  0.00    +0.000 C 
BRANCH  20  21
ATOM     21  C   UNL     1     110.842 127.396 138.971  0.00  0.00    +0.000 C 
BRANCH  21  22
ATOM     22  O   UNL     1     111.637 127.279 138.782  0.00  0.00    +0.000 OA
BRANCH  22  24
ATOM     23  O   UNL     1     111.818 126.062 139.508  0.00  0.00    +0.000 OA
ATOM     24  C   UNL     1     111.969 126.527 138.843  0.00  0.00    +0.000 C 
BRANCH  24  25
ATOM     25  C   UNL     1     112.453 126.239 138.240  0.00  0.00    +0.000 C 
ATOM     26  C   UNL     1     113.269 126.196 138.351  0.00  0.00    +0.000 C 
BRANCH  26  28
ATOM     27  O   UNL     1     115.204 125.045 135.939  0.00  0.00    +0.000 OA
ATOM     28  C   UNL     1     113.753 125.908 137.748  0.00  0.00    +0.000 A 
ATOM     29  C   UNL     1     113.786 126.300 137.023  0.00  0.00    +0.000 A 
ATOM     30  C   UNL     1     114.204 125.228 137.870  0.00  0.00    +0.000 A 
ATOM     31  C   UNL     1     114.269 126.012 136.420  0.00  0.00    +0.000 A 
ATOM     32  C   UNL     1     114.688 124.940 137.267  0.00  0.00    +0.000 A 
ATOM     33  C   UNL     1     114.720 125.333 136.542  0.00  0.00    +0.000 A 
ENDBRANCH  26  28
ENDBRANCH  24  25
ENDBRANCH  22  24
ENDBRANCH  21  22
ENDBRANCH  20  21
ENDBRANCH  11  16
ENDBRANCH   4  11
BRANCH   7  34
ATOM     34  O   UNL     1     111.518 129.241 141.547  0.00  0.00    +0.000 OA
BRANCH  34  39
ATOM     35  O   UNL     1     111.534 128.083 142.722  0.00  0.00    +0.000 OA
ATOM     36  O   UNL     1     111.683 131.311 143.543  0.00  0.00    +0.000 OA
ATOM     37  O   UNL     1     111.624 128.520 144.310  0.00  0.00    +0.000 OA
ATOM     38  O   UNL     1     111.707 129.527 145.340  0.00  0.00    +0.000 OA
ATOM     39  C   UNL     1     111.563 129.460 142.341  0.00  0.00    +0.000 A 
ATOM     40  C   UNL     1     111.571 128.881 142.928  0.00  0.00    +0.000 A 
ATOM     41  C   UNL     1     111.600 130.258 142.547  0.00  0.00    +0.000 A 
ATOM     42  C   UNL     1     111.645 130.477 143.341  0.00  0.00    +0.000 A 
ATOM     43  C   UNL     1     111.616 129.100 143.722  0.00  0.00    +0.000 A 
ATOM     44  C   UNL     1     111.653 129.897 143.929  0.00  0.00    +0.000 A 
ATOM     45  C   UNL     1     111.700 130.113 144.760  0.00  0.00    +0.000 A 
ATOM     46  C   UNL     1     111.730 131.545 144.369  0.00  0.00    +0.000 A 
ATOM     47  C   UNL     1     111.738 130.942 144.981  0.00  0.00    +0.000 A 
BRANCH  46  50
ATOM     48  O   UNL     1     110.428 133.957 145.177  0.00  0.00    +0.000 OA
ATOM     49  O   UNL     1     111.880 134.740 145.180  0.00  0.00    +0.000 OA
ATOM     50  C   UNL     1     111.767 132.344 144.572  0.00  0.00    +0.000 A 
ATOM     51  C   UNL     1     111.079 132.751 144.773  0.00  0.00    +0.000 A 
ATOM     52  C   UNL     1     112.493 132.735 144.574  0.00  0.00    +0.000 A 
ATOM     53  C   UNL     1     111.116 133.550 144.976  0.00  0.00    +0.000 A 
ATOM     54  C   UNL     1     112.531 133.534 144.776  0.00  0.00    +0.000 A 
ATOM     55  C   UNL     1     111.843 133.941 144.978  0.00  0.00    +0.000 A 
ENDBRANCH  46  50
ENDBRANCH  34  39
ENDBRANCH   7  34
TORSDOF 11
ENDMDL
MODEL 6
REMARK VINA RESULT:     -10.1      1.365      4.402
REMARK  Name = 44258493
REMARK  11 active torsions:
REMARK  status: ('A' for Active; 'I' for Inactive)
REMARK    1  A    between atoms: O_1  and  C_20
REMARK    2  A    between atoms: O_1  and  C_22
REMARK    3  A    between atoms: O_5  and  C_26
REMARK    4  A    between atoms: O_5  and  C_32
REMARK    5  A    between atoms: O_10  and  C_31
REMARK    6  A    between atoms: O_10  and  C_35
REMARK    7  A    between atoms: C_27  and  C_30
REMARK    8  A    between atoms: C_29  and  C_31
REMARK    9  A    between atoms: C_35  and  C_39
REMARK   10  A    between atoms: C_41  and  C_44
REMARK   11  A    between atoms: C_43  and  C_45
REMARK                            x       y       z     vdW  Elec       q    Type
REMARK                         _______ _______ _______ _____ _____    ______ ____
ROOT
ATOM      1  O   UNL     1     113.163 126.804 136.268  0.00  0.00    +0.000 OA
ATOM      2  O   UNL     1     111.560 124.936 136.006  0.00  0.00    +0.000 OA
ATOM      3  O   UNL     1     113.073 124.648 136.597  0.00  0.00    +0.000 OA
ATOM      4  C   UNL     1     111.871 126.325 135.885  0.00  0.00    +0.000 C 
ATOM      5  C   UNL     1     112.094 125.558 136.093  0.00  0.00    +0.000 C 
ATOM      6  C   UNL     1     112.850 125.414 136.389  0.00  0.00    +0.000 C 
ATOM      7  C   UNL     1     112.405 126.948 135.972  0.00  0.00    +0.000 C 
ATOM      8  C   UNL     1     113.385 126.037 136.476  0.00  0.00    +0.000 C 
ENDROOT
BRANCH   8  10
ATOM      9  O   UNL     1     114.793 125.920 136.266  0.00  0.00    +0.000 OA
ATOM     10  C   UNL     1     114.141 125.894 136.772  0.00  0.00    +0.000 C 
ENDBRANCH   8  10
BRANCH   4  11
ATOM     11  O   UNL     1     111.115 126.469 135.590  0.00  0.00    +0.000 OA
BRANCH  11  16
ATOM     12  O   UNL     1     110.597 126.484 136.921  0.00  0.00    +0.000 OA
ATOM     13  O   UNL     1     109.599 126.740 134.997  0.00  0.00    +0.000 OA
ATOM     14  O   UNL     1     108.324 126.890 136.033  0.00  0.00    +0.000 OA
ATOM     15  O   UNL     1     108.564 126.769 137.661  0.00  0.00    +0.000 OA
ATOM     16  C   UNL     1     110.478 126.544 136.107  0.00  0.00    +0.000 C 
ATOM     17  C   UNL     1     109.719 126.680 135.811  0.00  0.00    +0.000 C 
ATOM     18  C   UNL     1     109.081 126.755 136.329  0.00  0.00    +0.000 C 
ATOM     19  C   UNL     1     109.202 126.694 137.143  0.00  0.00    +0.000 C 
ATOM     20  C   UNL     1     109.959 126.559 137.439  0.00  0.00    +0.000 C 
BRANCH  20  21
ATOM     21  C   UNL     1     110.080 126.498 138.253  0.00  0.00    +0.000 C 
BRANCH  21  22
ATOM     22  O   UNL     1     110.680 126.935 138.614  0.00  0.00    +0.000 OA
BRANCH  22  24
ATOM     23  O   UNL     1     110.337 126.429 139.905  0.00  0.00    +0.000 OA
ATOM     24  C   UNL     1     110.882 126.788 139.401  0.00  0.00    +0.000 C 
BRANCH  24  25
ATOM     25  C   UNL     1     111.627 127.001 139.683  0.00  0.00    +0.000 C 
ATOM     26  C   UNL     1     112.105 126.439 140.050  0.00  0.00    +0.000 C 
BRANCH  26  28
ATOM     27  O   UNL     1     115.087 127.291 141.178  0.00  0.00    +0.000 OA
ATOM     28  C   UNL     1     112.850 126.652 140.332  0.00  0.00    +0.000 A 
ATOM     29  C   UNL     1     112.941 126.901 141.113  0.00  0.00    +0.000 A 
ATOM     30  C   UNL     1     113.506 126.616 139.832  0.00  0.00    +0.000 A 
ATOM     31  C   UNL     1     113.686 127.114 141.395  0.00  0.00    +0.000 A 
ATOM     32  C   UNL     1     114.252 126.829 140.114  0.00  0.00    +0.000 A 
ATOM     33  C   UNL     1     114.341 127.078 140.896  0.00  0.00    +0.000 A 
ENDBRANCH  26  28
ENDBRANCH  24  25
ENDBRANCH  22  24
ENDBRANCH  21  22
ENDBRANCH  20  21
ENDBRANCH  11  16
ENDBRANCH   4  11
BRANCH   7  34
ATOM     34  O   UNL     1     112.183 127.714 135.764  0.00  0.00    +0.000 OA
BRANCH  34  39
ATOM     35  O   UNL     1     112.971 128.595 134.613  0.00  0.00    +0.000 OA
ATOM     36  O   UNL     1     113.273 129.394 137.836  0.00  0.00    +0.000 OA
ATOM     37  O   UNL     1     113.913 129.876 135.054  0.00  0.00    +0.000 OA
ATOM     38  O   UNL     1     114.479 130.740 136.061  0.00  0.00    +0.000 OA
ATOM     39  C   UNL     1     112.654 128.355 135.985  0.00  0.00    +0.000 A 
ATOM     40  C   UNL     1     113.048 128.795 135.410  0.00  0.00    +0.000 A 
ATOM     41  C   UNL     1     112.731 128.555 136.782  0.00  0.00    +0.000 A 
ATOM     42  C   UNL     1     113.201 129.195 137.003  0.00  0.00    +0.000 A 
ATOM     43  C   UNL     1     113.518 129.435 135.630  0.00  0.00    +0.000 A 
ATOM     44  C   UNL     1     113.596 129.636 136.427  0.00  0.00    +0.000 A 
ATOM     45  C   UNL     1     114.089 130.305 136.644  0.00  0.00    +0.000 A 
ATOM     46  C   UNL     1     113.763 130.060 138.072  0.00  0.00    +0.000 A 
ATOM     47  C   UNL     1     114.172 130.519 137.472  0.00  0.00    +0.000 A 
BRANCH  46  50
ATOM     48  O   UNL     1     112.567 130.618 140.607  0.00  0.00    +0.000 OA
ATOM     49  O   UNL     1     114.063 130.850 141.262  0.00  0.00    +0.000 OA
ATOM     50  C   UNL     1     113.837 130.258 138.869  0.00  0.00    +0.000 A 
ATOM     51  C   UNL     1     113.164 130.339 139.339  0.00  0.00    +0.000 A 
ATOM     52  C   UNL     1     114.585 130.374 139.196  0.00  0.00    +0.000 A 
ATOM     53  C   UNL     1     113.239 130.537 140.137  0.00  0.00    +0.000 A 
ATOM     54  C   UNL     1     114.661 130.571 139.994  0.00  0.00    +0.000 A 
ATOM     55  C   UNL     1     113.988 130.653 140.464  0.00  0.00    +0.000 A 
ENDBRANCH  46  50
ENDBRANCH  34  39
ENDBRANCH   7  34
TORSDOF 11
ENDMDL
MODEL 7
REMARK VINA RESULT:     -10.0      1.859      5.093
REMARK  Name = 44258493
REMARK  11 active torsions:
REMARK  status: ('A' for Active; 'I' for Inactive)
REMARK    1  A    between atoms: O_1  and  C_20
REMARK    2  A    between atoms: O_1  and  C_22
REMARK    3  A    between atoms: O_5  and  C_26
REMARK    4  A    between atoms: O_5  and  C_32
REMARK    5  A    between atoms: O_10  and  C_31
REMARK    6  A    between atoms: O_10  and  C_35
REMARK    7  A    between atoms: C_27  and  C_30
REMARK    8  A    between atoms: C_29  and  C_31
REMARK    9  A    between atoms: C_35  and  C_39
REMARK   10  A    between atoms: C_41  and  C_44
REMARK   11  A    between atoms: C_43  and  C_45
REMARK                            x       y       z     vdW  Elec       q    Type
REMARK                         _______ _______ _______ _____ _____    ______ ____
ROOT
ATOM      1  O   UNL     1     111.241 126.416 139.495  0.00  0.00    +0.000 OA
ATOM      2  O   UNL     1     112.170 126.945 141.727  0.00  0.00    +0.000 OA
ATOM      3  O   UNL     1     110.587 126.508 141.575  0.00  0.00    +0.000 OA
ATOM      4  C   UNL     1     112.343 126.812 140.315  0.00  0.00    +0.000 C 
ATOM      5  C   UNL     1     111.861 126.769 140.983  0.00  0.00    +0.000 C 
ATOM      6  C   UNL     1     111.069 126.550 140.907  0.00  0.00    +0.000 C 
ATOM      7  C   UNL     1     112.034 126.635 139.571  0.00  0.00    +0.000 C 
ATOM      8  C   UNL     1     110.760 126.374 140.163  0.00  0.00    +0.000 C 
ENDROOT
BRANCH   8  10
ATOM      9  O   UNL     1     109.772 125.374 139.906  0.00  0.00    +0.000 OA
ATOM     10  C   UNL     1     109.968 126.155 140.086  0.00  0.00    +0.000 C 
ENDBRANCH   8  10
BRANCH   4  11
ATOM     11  O   UNL     1     113.135 127.030 140.391  0.00  0.00    +0.000 OA
BRANCH  11  16
ATOM     12  O   UNL     1     112.755 128.408 140.423  0.00  0.00    +0.000 OA
ATOM     13  O   UNL     1     114.701 127.456 140.688  0.00  0.00    +0.000 OA
ATOM     14  O   UNL     1     115.104 129.046 140.869  0.00  0.00    +0.000 OA
ATOM     15  O   UNL     1     113.940 130.210 140.752  0.00  0.00    +0.000 OA
ATOM     16  C   UNL     1     113.336 127.825 140.481  0.00  0.00    +0.000 C 
ATOM     17  C   UNL     1     114.120 128.038 140.630  0.00  0.00    +0.000 C 
ATOM     18  C   UNL     1     114.321 128.833 140.720  0.00  0.00    +0.000 C 
ATOM     19  C   UNL     1     113.739 129.415 140.662  0.00  0.00    +0.000 C 
ATOM     20  C   UNL     1     112.956 129.202 140.513  0.00  0.00    +0.000 C 
BRANCH  20  21
ATOM     21  C   UNL     1     112.374 129.784 140.454  0.00  0.00    +0.000 C 
BRANCH  21  22
ATOM     22  O   UNL     1     111.991 129.913 139.735  0.00  0.00    +0.000 OA
BRANCH  22  24
ATOM     23  O   UNL     1     110.651 130.092 140.196  0.00  0.00    +0.000 OA
ATOM     24  C   UNL     1     111.278 130.328 139.715  0.00  0.00    +0.000 C 
BRANCH  24  25
ATOM     25  C   UNL     1     111.194 130.979 139.215  0.00  0.00    +0.000 C 
ATOM     26  C   UNL     1     110.756 130.910 138.520  0.00  0.00    +0.000 C 
BRANCH  26  28
ATOM     27  O   UNL     1     110.418 133.512 136.519  0.00  0.00    +0.000 OA
ATOM     28  C   UNL     1     110.672 131.560 138.020  0.00  0.00    +0.000 A 
ATOM     29  C   UNL     1     110.003 132.040 138.076  0.00  0.00    +0.000 A 
ATOM     30  C   UNL     1     111.256 131.732 137.462  0.00  0.00    +0.000 A 
ATOM     31  C   UNL     1     109.918 132.691 137.575  0.00  0.00    +0.000 A 
ATOM     32  C   UNL     1     111.172 132.382 136.962  0.00  0.00    +0.000 A 
ATOM     33  C   UNL     1     110.502 132.862 137.019  0.00  0.00    +0.000 A 
ENDBRANCH  26  28
ENDBRANCH  24  25
ENDBRANCH  22  24
ENDBRANCH  21  22
ENDBRANCH  20  21
ENDBRANCH  11  16
ENDBRANCH   4  11
BRANCH   7  34
ATOM     34  O   UNL     1     112.515 126.677 138.903  0.00  0.00    +0.000 OA
BRANCH  34  39
ATOM     35  O   UNL     1     112.777 125.350 137.959  0.00  0.00    +0.000 OA
ATOM     36  O   UNL     1     110.900 127.866 136.834  0.00  0.00    +0.000 OA
ATOM     37  O   UNL     1     112.109 125.263 136.452  0.00  0.00    +0.000 OA
ATOM     38  O   UNL     1     111.308 125.824 135.392  0.00  0.00    +0.000 OA
ATOM     39  C   UNL     1     112.181 126.634 138.149  0.00  0.00    +0.000 A 
ATOM     40  C   UNL     1     112.312 125.971 137.678  0.00  0.00    +0.000 A 
ATOM     41  C   UNL     1     111.717 127.256 137.869  0.00  0.00    +0.000 A 
ATOM     42  C   UNL     1     111.383 127.213 137.116  0.00  0.00    +0.000 A 
ATOM     43  C   UNL     1     111.978 125.928 136.925  0.00  0.00    +0.000 A 
ATOM     44  C   UNL     1     111.514 126.548 136.643  0.00  0.00    +0.000 A 
ATOM     45  C   UNL     1     111.171 126.492 135.857  0.00  0.00    +0.000 A 
ATOM     46  C   UNL     1     110.550 127.826 136.050  0.00  0.00    +0.000 A 
ATOM     47  C   UNL     1     110.686 127.135 135.559  0.00  0.00    +0.000 A 
BRANCH  46  50
ATOM     48  O   UNL     1     108.079 129.264 136.047  0.00  0.00    +0.000 OA
ATOM     49  O   UNL     1     108.694 130.318 134.936  0.00  0.00    +0.000 OA
ATOM     50  C   UNL     1     110.085 128.449 135.772  0.00  0.00    +0.000 A 
ATOM     51  C   UNL     1     109.314 128.545 136.049  0.00  0.00    +0.000 A 
ATOM     52  C   UNL     1     110.393 128.976 135.217  0.00  0.00    +0.000 A 
ATOM     53  C   UNL     1     108.850 129.168 135.770  0.00  0.00    +0.000 A 
ATOM     54  C   UNL     1     109.929 129.599 134.938  0.00  0.00    +0.000 A 
ATOM     55  C   UNL     1     109.158 129.695 135.215  0.00  0.00    +0.000 A 
ENDBRANCH  46  50
ENDBRANCH  34  39
ENDBRANCH   7  34
TORSDOF 11
ENDMDL
MODEL 8
REMARK VINA RESULT:     -10.0      2.037      5.680
REMARK  Name = 44258493
REMARK  11 active torsions:
REMARK  status: ('A' for Active; 'I' for Inactive)
REMARK    1  A    between atoms: O_1  and  C_20
REMARK    2  A    between atoms: O_1  and  C_22
REMARK    3  A    between atoms: O_5  and  C_26
REMARK    4  A    between atoms: O_5  and  C_32
REMARK    5  A    between atoms: O_10  and  C_31
REMARK    6  A    between atoms: O_10  and  C_35
REMARK    7  A    between atoms: C_27  and  C_30
REMARK    8  A    between atoms: C_29  and  C_31
REMARK    9  A    between atoms: C_35  and  C_39
REMARK   10  A    between atoms: C_41  and  C_44
REMARK   11  A    between atoms: C_43  and  C_45
REMARK                            x       y       z     vdW  Elec       q    Type
REMARK                         _______ _______ _______ _____ _____    ______ ____
ROOT
ATOM      1  O   UNL     1     112.623 129.918 137.471  0.00  0.00    +0.000 OA
ATOM      2  O   UNL     1     111.982 132.301 137.284  0.00  0.00    +0.000 OA
ATOM      3  O   UNL     1     113.214 131.703 136.364  0.00  0.00    +0.000 OA
ATOM      4  C   UNL     1     111.793 131.012 137.870  0.00  0.00    +0.000 C 
ATOM      5  C   UNL     1     112.196 131.507 137.347  0.00  0.00    +0.000 C 
ATOM      6  C   UNL     1     112.811 131.208 136.887  0.00  0.00    +0.000 C 
ATOM      7  C   UNL     1     112.007 130.217 137.932  0.00  0.00    +0.000 C 
ATOM      8  C   UNL     1     113.025 130.414 136.949  0.00  0.00    +0.000 C 
ENDROOT
BRANCH   8  10
ATOM      9  O   UNL     1     113.472 129.654 135.824  0.00  0.00    +0.000 OA
ATOM     10  C   UNL     1     113.641 130.114 136.489  0.00  0.00    +0.000 C 
ENDBRANCH   8  10
BRANCH   4  11
ATOM     11  O   UNL     1     111.178 131.310 138.330  0.00  0.00    +0.000 OA
BRANCH  11  16
ATOM     12  O   UNL     1     110.229 131.010 137.304  0.00  0.00    +0.000 OA
ATOM     13  O   UNL     1     110.066 132.274 139.076  0.00  0.00    +0.000 OA
ATOM     14  O   UNL     1     108.561 132.455 138.423  0.00  0.00    +0.000 OA
ATOM     15  O   UNL     1     108.169 131.673 137.025  0.00  0.00    +0.000 OA
ATOM     16  C   UNL     1     110.425 131.401 138.003  0.00  0.00    +0.000 C 
ATOM     17  C   UNL     1     109.869 131.883 138.377  0.00  0.00    +0.000 C 
ATOM     18  C   UNL     1     109.116 131.974 138.050  0.00  0.00    +0.000 C 
ATOM     19  C   UNL     1     108.921 131.582 137.351  0.00  0.00    +0.000 C 
ATOM     20  C   UNL     1     109.476 131.100 136.978  0.00  0.00    +0.000 C 
BRANCH  20  21
ATOM     21  C   UNL     1     109.281 130.708 136.279  0.00  0.00    +0.000 C 
BRANCH  21  22
ATOM     22  O   UNL     1     109.300 129.884 136.249  0.00  0.00    +0.000 OA
BRANCH  22  24
ATOM     23  O   UNL     1     109.008 129.925 134.852  0.00  0.00    +0.000 OA
ATOM     24  C   UNL     1     109.195 129.494 135.530  0.00  0.00    +0.000 C 
BRANCH  24  25
ATOM     25  C   UNL     1     109.278 128.674 135.488  0.00  0.00    +0.000 C 
ATOM     26  C   UNL     1     109.968 128.345 135.182  0.00  0.00    +0.000 C 
BRANCH  26  28
ATOM     27  O   UNL     1     110.299 125.066 135.017  0.00  0.00    +0.000 OA
ATOM     28  C   UNL     1     110.051 127.525 135.140  0.00  0.00    +0.000 A 
ATOM     29  C   UNL     1     110.640 127.192 134.668  0.00  0.00    +0.000 A 
ATOM     30  C   UNL     1     109.544 127.037 135.572  0.00  0.00    +0.000 A 
ATOM     31  C   UNL     1     110.722 126.373 134.627  0.00  0.00    +0.000 A 
ATOM     32  C   UNL     1     109.627 126.217 135.531  0.00  0.00    +0.000 A 
ATOM     33  C   UNL     1     110.216 125.885 135.058  0.00  0.00    +0.000 A 
ENDBRANCH  26  28
ENDBRANCH  24  25
ENDBRANCH  22  24
ENDBRANCH  21  22
ENDBRANCH  20  21
ENDBRANCH  11  16
ENDBRANCH   4  11
BRANCH   7  34
ATOM     34  O   UNL     1     111.605 129.721 138.454  0.00  0.00    +0.000 OA
BRANCH  34  39
ATOM     35  O   UNL     1     112.061 129.580 140.034  0.00  0.00    +0.000 OA
ATOM     36  O   UNL     1     112.571 127.063 137.907  0.00  0.00    +0.000 OA
ATOM     37  O   UNL     1     112.773 128.190 140.566  0.00  0.00    +0.000 OA
ATOM     38  O   UNL     1     113.269 126.856 140.333  0.00  0.00    +0.000 OA
ATOM     39  C   UNL     1     111.961 129.026 138.720  0.00  0.00    +0.000 A 
ATOM     40  C   UNL     1     112.189 128.956 139.509  0.00  0.00    +0.000 A 
ATOM     41  C   UNL     1     112.088 128.402 138.196  0.00  0.00    +0.000 A 
ATOM     42  C   UNL     1     112.444 127.707 138.462  0.00  0.00    +0.000 A 
ATOM     43  C   UNL     1     112.544 128.261 139.776  0.00  0.00    +0.000 A 
ATOM     44  C   UNL     1     112.672 127.636 139.253  0.00  0.00    +0.000 A 
ATOM     45  C   UNL     1     113.044 126.917 139.542  0.00  0.00    +0.000 A 
ATOM     46  C   UNL     1     112.942 126.336 138.179  0.00  0.00    +0.000 A 
ATOM     47  C   UNL     1     113.179 126.263 139.001  0.00  0.00    +0.000 A 
BRANCH  46  50
ATOM     48  O   UNL     1     112.199 123.776 137.148  0.00  0.00    +0.000 OA
ATOM     49  O   UNL     1     113.448 123.847 136.072  0.00  0.00    +0.000 OA
ATOM     50  C   UNL     1     113.068 125.714 137.653  0.00  0.00    +0.000 A 
ATOM     51  C   UNL     1     112.570 125.056 137.664  0.00  0.00    +0.000 A 
ATOM     52  C   UNL     1     113.692 125.750 137.115  0.00  0.00    +0.000 A 
ATOM     53  C   UNL     1     112.697 124.434 137.137  0.00  0.00    +0.000 A 
ATOM     54  C   UNL     1     113.819 125.127 136.588  0.00  0.00    +0.000 A 
ATOM     55  C   UNL     1     113.322 124.469 136.599  0.00  0.00    +0.000 A 
ENDBRANCH  46  50
ENDBRANCH  34  39
ENDBRANCH   7  34
TORSDOF 11
ENDMDL
MODEL 9
REMARK VINA RESULT:     -10.0      1.897      5.608
REMARK  Name = 44258493
REMARK  11 active torsions:
REMARK  status: ('A' for Active; 'I' for Inactive)
REMARK    1  A    between atoms: O_1  and  C_20
REMARK    2  A    between atoms: O_1  and  C_22
REMARK    3  A    between atoms: O_5  and  C_26
REMARK    4  A    between atoms: O_5  and  C_32
REMARK    5  A    between atoms: O_10  and  C_31
REMARK    6  A    between atoms: O_10  and  C_35
REMARK    7  A    between atoms: C_27  and  C_30
REMARK    8  A    between atoms: C_29  and  C_31
REMARK    9  A    between atoms: C_35  and  C_39
REMARK   10  A    between atoms: C_41  and  C_44
REMARK   11  A    between atoms: C_43  and  C_45
REMARK                            x       y       z     vdW  Elec       q    Type
REMARK                         _______ _______ _______ _____ _____    ______ ____
ROOT
ATOM      1  O   UNL     1     109.910 128.524 140.351  0.00  0.00    +0.000 OA
ATOM      2  O   UNL     1     111.096 128.928 142.486  0.00  0.00    +0.000 OA
ATOM      3  O   UNL     1     110.047 127.663 142.352  0.00  0.00    +0.000 OA
ATOM      4  C   UNL     1     110.831 129.292 141.130  0.00  0.00    +0.000 C 
ATOM      5  C   UNL     1     110.701 128.794 141.774  0.00  0.00    +0.000 C 
ATOM      6  C   UNL     1     110.176 128.161 141.708  0.00  0.00    +0.000 C 
ATOM      7  C   UNL     1     110.435 129.158 140.418  0.00  0.00    +0.000 C 
ATOM      8  C   UNL     1     109.781 128.026 140.996  0.00  0.00    +0.000 C 
ENDROOT
BRANCH   8  10
ATOM      9  O   UNL     1     108.445 127.536 140.866  0.00  0.00    +0.000 OA
ATOM     10  C   UNL     1     109.256 127.394 140.928  0.00  0.00    +0.000 C 
ENDBRANCH   8  10
BRANCH   4  11
ATOM     11  O   UNL     1     111.355 129.925 141.197  0.00  0.00    +0.000 OA
BRANCH  11  16
ATOM     12  O   UNL     1     112.450 129.049 140.923  0.00  0.00    +0.000 OA
ATOM     13  O   UNL     1     112.412 131.169 141.440  0.00  0.00    +0.000 OA
ATOM     14  O   UNL     1     114.035 130.914 141.288  0.00  0.00    +0.000 OA
ATOM     15  O   UNL     1     114.601 129.416 140.893  0.00  0.00    +0.000 OA
ATOM     16  C   UNL     1     112.166 129.798 141.121  0.00  0.00    +0.000 C 
ATOM     17  C   UNL     1     112.695 130.420 141.242  0.00  0.00    +0.000 C 
ATOM     18  C   UNL     1     113.507 130.293 141.167  0.00  0.00    +0.000 C 
ATOM     19  C   UNL     1     113.790 129.543 140.969  0.00  0.00    +0.000 C 
ATOM     20  C   UNL     1     113.262 128.922 140.847  0.00  0.00    +0.000 C 
BRANCH  20  21
ATOM     21  C   UNL     1     113.545 128.172 140.649  0.00  0.00    +0.000 C 
BRANCH  21  22
ATOM     22  O   UNL     1     113.340 127.832 139.926  0.00  0.00    +0.000 OA
BRANCH  22  24
ATOM     23  O   UNL     1     113.112 126.501 140.390  0.00  0.00    +0.000 OA
ATOM     24  C   UNL     1     113.408 127.017 139.818  0.00  0.00    +0.000 C 
BRANCH  24  25
ATOM     25  C   UNL     1     113.770 126.719 139.140  0.00  0.00    +0.000 C 
ATOM     26  C   UNL     1     113.334 126.273 138.601  0.00  0.00    +0.000 C 
BRANCH  26  28
ATOM     27  O   UNL     1     114.784 125.079 135.888  0.00  0.00    +0.000 OA
ATOM     28  C   UNL     1     113.696 125.975 137.923  0.00  0.00    +0.000 A 
ATOM     29  C   UNL     1     113.902 126.483 137.307  0.00  0.00    +0.000 A 
ATOM     30  C   UNL     1     113.853 125.166 137.860  0.00  0.00    +0.000 A 
ATOM     31  C   UNL     1     114.265 126.185 136.629  0.00  0.00    +0.000 A 
ATOM     32  C   UNL     1     114.216 124.868 137.182  0.00  0.00    +0.000 A 
ATOM     33  C   UNL     1     114.421 125.378 136.567  0.00  0.00    +0.000 A 
ENDBRANCH  26  28
ENDBRANCH  24  25
ENDBRANCH  22  24
ENDBRANCH  21  22
ENDBRANCH  20  21
ENDBRANCH  11  16
ENDBRANCH   4  11
BRANCH   7  34
ATOM     34  O   UNL     1     110.565 129.656 139.773  0.00  0.00    +0.000 OA
BRANCH  34  39
ATOM     35  O   UNL     1     109.373 130.621 139.165  0.00  0.00    +0.000 OA
ATOM     36  O   UNL     1     110.418 127.960 137.449  0.00  0.00    +0.000 OA
ATOM     37  O   UNL     1     108.694 130.272 137.703  0.00  0.00    +0.000 OA
ATOM     38  O   UNL     1     108.589 129.448 136.523  0.00  0.00    +0.000 OA
ATOM     39  C   UNL     1     110.225 129.481 139.042  0.00  0.00    +0.000 A 
ATOM     40  C   UNL     1     109.630 129.963 138.739  0.00  0.00    +0.000 A 
ATOM     41  C   UNL     1     110.482 128.823 138.615  0.00  0.00    +0.000 A 
ATOM     42  C   UNL     1     110.142 128.648 137.884  0.00  0.00    +0.000 A 
ATOM     43  C   UNL     1     109.290 129.789 138.007  0.00  0.00    +0.000 A 
ATOM     44  C   UNL     1     109.546 129.131 137.580  0.00  0.00    +0.000 A 
ATOM     45  C   UNL     1     109.184 128.960 136.819  0.00  0.00    +0.000 A 
ATOM     46  C   UNL     1     110.067 127.773 136.686  0.00  0.00    +0.000 A 
ATOM     47  C   UNL     1     109.447 128.276 136.370  0.00  0.00    +0.000 A 
BRANCH  46  50
ATOM     48  O   UNL     1     110.510 124.955 136.514  0.00  0.00    +0.000 OA
ATOM     49  O   UNL     1     111.103 125.141 134.986  0.00  0.00    +0.000 OA
ATOM     50  C   UNL     1     110.326 127.115 136.262  0.00  0.00    +0.000 A 
ATOM     51  C   UNL     1     110.288 126.364 136.601  0.00  0.00    +0.000 A 
ATOM     52  C   UNL     1     110.623 127.208 135.498  0.00  0.00    +0.000 A 
ATOM     53  C   UNL     1     110.547 125.706 136.175  0.00  0.00    +0.000 A 
ATOM     54  C   UNL     1     110.882 126.550 135.072  0.00  0.00    +0.000 A 
ATOM     55  C   UNL     1     110.844 125.799 135.411  0.00  0.00    +0.000 A 
ENDBRANCH  46  50
ENDBRANCH  34  39
ENDBRANCH   7  34
TORSDOF 11
ENDMDL
MODEL 10
REMARK VINA RESULT:     -10.0      1.771      2.218
REMARK  Name = 44258493
REMARK  11 active torsions:
REMARK  status: ('A' for Active; 'I' for Inactive)
REMARK    1  A    between atoms: O_1  and  C_20
REMARK    2  A    between atoms: O_1  and  C_22
REMARK    3  A    between atoms: O_5  and  C_26
REMARK    4  A    between atoms: O_5  and  C_32
REMARK    5  A    between atoms: O_10  and  C_31
REMARK    6  A    between atoms: O_10  and  C_35
REMARK    7  A    between atoms: C_27  and  C_30
REMARK    8  A    between atoms: C_29  and  C_31
REMARK    9  A    between atoms: C_35  and  C_39
REMARK   10  A    between atoms: C_41  and  C_44
REMARK   11  A    between atoms: C_43  and  C_45
REMARK                            x       y       z     vdW  Elec       q    Type
REMARK                         _______ _______ _______ _____ _____    ______ ____
ROOT
ATOM      1  O   UNL     1     110.141 126.356 137.299  0.00  0.00    +0.000 OA
ATOM      2  O   UNL     1     111.043 124.964 135.462  0.00  0.00    +0.000 OA
ATOM      3  O   UNL     1     109.806 126.015 135.170  0.00  0.00    +0.000 OA
ATOM      4  C   UNL     1     111.061 125.366 136.833  0.00  0.00    +0.000 C 
ATOM      5  C   UNL     1     110.742 125.428 136.074  0.00  0.00    +0.000 C 
ATOM      6  C   UNL     1     110.124 125.953 135.928  0.00  0.00    +0.000 C 
ATOM      7  C   UNL     1     110.761 125.830 137.445  0.00  0.00    +0.000 C 
ATOM      8  C   UNL     1     109.823 126.417 136.540  0.00  0.00    +0.000 C 
ENDROOT
BRANCH   8  10
ATOM      9  O   UNL     1     108.462 126.808 136.730  0.00  0.00    +0.000 OA
ATOM     10  C   UNL     1     109.204 126.943 136.395  0.00  0.00    +0.000 C 
ENDBRANCH   8  10
BRANCH   4  11
ATOM     11  O   UNL     1     111.680 124.841 136.979  0.00  0.00    +0.000 OA
BRANCH  11  16
ATOM     12  O   UNL     1     112.622 125.840 136.582  0.00  0.00    +0.000 OA
ATOM     13  O   UNL     1     112.918 123.792 137.276  0.00  0.00    +0.000 OA
ATOM     14  O   UNL     1     114.479 124.267 137.027  0.00  0.00    +0.000 OA
ATOM     15  O   UNL     1     114.801 125.790 136.482  0.00  0.00    +0.000 OA
ATOM     16  C   UNL     1     112.460 125.079 136.855  0.00  0.00    +0.000 C 
ATOM     17  C   UNL     1     113.080 124.554 137.003  0.00  0.00    +0.000 C 
ATOM     18  C   UNL     1     113.860 124.791 136.879  0.00  0.00    +0.000 C 
ATOM     19  C   UNL     1     114.021 125.553 136.606  0.00  0.00    +0.000 C 
ATOM     20  C   UNL     1     113.402 126.077 136.458  0.00  0.00    +0.000 C 
BRANCH  20  21
ATOM     21  C   UNL     1     113.563 126.839 136.185  0.00  0.00    +0.000 C 
BRANCH  21  22
ATOM     22  O   UNL     1     113.229 127.491 136.565  0.00  0.00    +0.000 OA
BRANCH  22  24
ATOM     23  O   UNL     1     114.099 128.465 135.987  0.00  0.00    +0.000 OA
ATOM     24  C   UNL     1     113.354 128.251 136.268  0.00  0.00    +0.000 C 
BRANCH  24  25
ATOM     25  C   UNL     1     112.734 128.795 136.252  0.00  0.00    +0.000 C 
ATOM     26  C   UNL     1     112.726 129.426 136.782  0.00  0.00    +0.000 C 
BRANCH  26  28
ATOM     27  O   UNL     1     110.246 131.603 136.716  0.00  0.00    +0.000 OA
ATOM     28  C   UNL     1     112.106 129.970 136.765  0.00  0.00    +0.000 A 
ATOM     29  C   UNL     1     112.242 130.758 136.970  0.00  0.00    +0.000 A 
ATOM     30  C   UNL     1     111.349 129.727 136.543  0.00  0.00    +0.000 A 
ATOM     31  C   UNL     1     111.622 131.302 136.953  0.00  0.00    +0.000 A 
ATOM     32  C   UNL     1     110.729 130.271 136.527  0.00  0.00    +0.000 A 
ATOM     33  C   UNL     1     110.866 131.059 136.732  0.00  0.00    +0.000 A 
ENDBRANCH  26  28
ENDBRANCH  24  25
ENDBRANCH  22  24
ENDBRANCH  21  22
ENDBRANCH  20  21
ENDBRANCH  11  16
ENDBRANCH   4  11
BRANCH   7  34
ATOM     34  O   UNL     1     111.078 125.769 138.204  0.00  0.00    +0.000 OA
BRANCH  34  39
ATOM     35  O   UNL     1     110.307 124.924 139.393  0.00  0.00    +0.000 OA
ATOM     36  O   UNL     1     110.449 128.254 139.520  0.00  0.00    +0.000 OA
ATOM     37  O   UNL     1     109.603 125.727 140.651  0.00  0.00    +0.000 OA
ATOM     38  O   UNL     1     109.267 126.949 141.341  0.00  0.00    +0.000 OA
ATOM     39  C   UNL     1     110.726 126.170 138.833  0.00  0.00    +0.000 A 
ATOM     40  C   UNL     1     110.341 125.748 139.427  0.00  0.00    +0.000 A 
ATOM     41  C   UNL     1     110.760 126.994 138.867  0.00  0.00    +0.000 A 
ATOM     42  C   UNL     1     110.407 127.395 139.495  0.00  0.00    +0.000 A 
ATOM     43  C   UNL     1     109.989 126.149 140.056  0.00  0.00    +0.000 A 
ATOM     44  C   UNL     1     110.021 126.973 140.091  0.00  0.00    +0.000 A 
ATOM     45  C   UNL     1     109.651 127.379 140.751  0.00  0.00    +0.000 A 
ATOM     46  C   UNL     1     110.083 128.677 140.173  0.00  0.00    +0.000 A 
ATOM     47  C   UNL     1     109.682 128.237 140.792  0.00  0.00    +0.000 A 
BRANCH  46  50
ATOM     48  O   UNL     1     111.575 131.078 140.598  0.00  0.00    +0.000 OA
ATOM     49  O   UNL     1     110.221 131.972 140.296  0.00  0.00    +0.000 OA
ATOM     50  C   UNL     1     110.118 129.500 140.204  0.00  0.00    +0.000 A 
ATOM     51  C   UNL     1     110.829 129.877 140.386  0.00  0.00    +0.000 A 
ATOM     52  C   UNL     1     109.441 129.947 140.053  0.00  0.00    +0.000 A 
ATOM     53  C   UNL     1     110.864 130.701 140.416  0.00  0.00    +0.000 A 
ATOM     54  C   UNL     1     109.476 130.771 140.084  0.00  0.00    +0.000 A 
ATOM     55  C   UNL     1     110.187 131.148 140.266  0.00  0.00    +0.000 A 
ENDBRANCH  46  50
ENDBRANCH  34  39
ENDBRANCH   7  34
TORSDOF 11
ENDMDL
