MODEL 1
REMARK VINA RESULT:      -8.0      0.000      0.000
REMARK  Name = null
REMARK  3 active torsions:
REMARK  status: ('A' for Active; 'I' for Inactive)
REMARK    1  A    between atoms: O_2  and  C_3
REMARK    2  A    between atoms: C_11  and  O_20
REMARK    3  A    between atoms: C_12  and  C_14
REMARK                            x       y       z     vdW  Elec       q    Type
REMARK                         _______ _______ _______ _____ _____    ______ ____
ROOT
ATOM      1  C   UNL     1     110.630 126.839 135.062  0.00  0.00    +0.000 A 
ATOM      2  C   UNL     1     111.355 126.819 135.456  0.00  0.00    +0.000 A 
ATOM      3  C   UNL     1     111.628 126.113 135.784  0.00  0.00    +0.000 A 
ATOM      4  C   UNL     1     111.175 125.426 135.719  0.00  0.00    +0.000 A 
ATOM      5  C   UNL     1     110.450 125.446 135.325  0.00  0.00    +0.000 A 
ATOM      6  C   UNL     1     110.177 126.152 134.997  0.00  0.00    +0.000 A 
ATOM      7  C   UNL     1     111.447 124.720 136.047  0.00  0.00    +0.000 A 
ATOM      8  O   UNL     1     110.994 124.033 135.982  0.00  0.00    +0.000 OA
ATOM      9  C   UNL     1     112.171 124.700 136.441  0.00  0.00    +0.000 A 
ATOM     10  C   UNL     1     112.624 125.388 136.506  0.00  0.00    +0.000 A 
ATOM     11  O   UNL     1     112.352 126.093 136.178  0.00  0.00    +0.000 OA
ENDROOT
BRANCH  10  12
ATOM     12  C   UNL     1     113.349 125.367 136.899  0.00  0.00    +0.000 A 
ATOM     13  C   UNL     1     113.395 125.588 137.693  0.00  0.00    +0.000 A 
ATOM     14  C   UNL     1     114.120 125.567 138.086  0.00  0.00    +0.000 A 
ATOM     15  C   UNL     1     114.799 125.326 137.686  0.00  0.00    +0.000 A 
ATOM     16  C   UNL     1     114.754 125.106 136.891  0.00  0.00    +0.000 A 
ATOM     17  C   UNL     1     114.029 125.127 136.499  0.00  0.00    +0.000 A 
ENDBRANCH  10  12
BRANCH   1  19
ATOM     18  C   UNL     1     109.710 127.932 135.066  0.00  0.00    +0.000 C 
ATOM     19  O   UNL     1     110.358 127.545 134.734  0.00  0.00    +0.000 OA
ENDBRANCH   1  19
BRANCH   9  20
ATOM     20  O   UNL     1     112.444 123.994 136.769  0.00  0.00    +0.000 OA
ATOM     21  C   UNL     1     111.913 123.389 136.948  0.00  0.00    +0.000 C 
ENDBRANCH   9  20
TORSDOF 3
ENDMDL
MODEL 2
REMARK VINA RESULT:      -7.9     12.865     13.486
REMARK  Name = null
REMARK  3 active torsions:
REMARK  status: ('A' for Active; 'I' for Inactive)
REMARK    1  A    between atoms: O_2  and  C_3
REMARK    2  A    between atoms: C_11  and  O_20
REMARK    3  A    between atoms: C_12  and  C_14
REMARK                            x       y       z     vdW  Elec       q    Type
REMARK                         _______ _______ _______ _____ _____    ______ ____
ROOT
ATOM      1  C   UNL     1     103.663 123.913 146.221  0.00  0.00    +0.000 A 
ATOM      2  C   UNL     1     104.457 123.887 146.446  0.00  0.00    +0.000 A 
ATOM      3  C   UNL     1     104.729 124.370 147.058  0.00  0.00    +0.000 A 
ATOM      4  C   UNL     1     104.206 124.879 147.445  0.00  0.00    +0.000 A 
ATOM      5  C   UNL     1     103.412 124.904 147.220  0.00  0.00    +0.000 A 
ATOM      6  C   UNL     1     103.140 124.422 146.608  0.00  0.00    +0.000 A 
ATOM      7  C   UNL     1     104.477 125.361 148.056  0.00  0.00    +0.000 A 
ATOM      8  O   UNL     1     103.955 125.869 148.443  0.00  0.00    +0.000 OA
ATOM      9  C   UNL     1     105.270 125.335 148.281  0.00  0.00    +0.000 A 
ATOM     10  C   UNL     1     105.793 124.826 147.894  0.00  0.00    +0.000 A 
ATOM     11  O   UNL     1     105.521 124.344 147.282  0.00  0.00    +0.000 OA
ENDROOT
BRANCH  10  12
ATOM     12  C   UNL     1     106.586 124.801 148.119  0.00  0.00    +0.000 A 
ATOM     13  C   UNL     1     106.811 124.379 148.790  0.00  0.00    +0.000 A 
ATOM     14  C   UNL     1     107.605 124.354 149.016  0.00  0.00    +0.000 A 
ATOM     15  C   UNL     1     108.173 124.751 148.568  0.00  0.00    +0.000 A 
ATOM     16  C   UNL     1     107.947 125.174 147.896  0.00  0.00    +0.000 A 
ATOM     17  C   UNL     1     107.154 125.198 147.672  0.00  0.00    +0.000 A 
ENDBRANCH  10  12
BRANCH   1  19
ATOM     18  C   UNL     1     102.864 122.818 145.771  0.00  0.00    +0.000 C 
ATOM     19  O   UNL     1     103.392 123.430 145.610  0.00  0.00    +0.000 OA
ENDBRANCH   1  19
BRANCH   9  20
ATOM     20  O   UNL     1     105.542 125.818 148.893  0.00  0.00    +0.000 OA
ATOM     21  C   UNL     1     105.109 126.483 149.118  0.00  0.00    +0.000 C 
ENDBRANCH   9  20
TORSDOF 3
ENDMDL
MODEL 3
REMARK VINA RESULT:      -7.6     12.177     13.230
REMARK  Name = null
REMARK  3 active torsions:
REMARK  status: ('A' for Active; 'I' for Inactive)
REMARK    1  A    between atoms: O_2  and  C_3
REMARK    2  A    between atoms: C_11  and  O_20
REMARK    3  A    between atoms: C_12  and  C_14
REMARK                            x       y       z     vdW  Elec       q    Type
REMARK                         _______ _______ _______ _____ _____    ______ ____
ROOT
ATOM      1  C   UNL     1     107.114 124.935 148.582  0.00  0.00    +0.000 A 
ATOM      2  C   UNL     1     106.346 124.677 148.429  0.00  0.00    +0.000 A 
ATOM      3  C   UNL     1     106.041 124.716 147.663  0.00  0.00    +0.000 A 
ATOM      4  C   UNL     1     106.507 125.015 147.049  0.00  0.00    +0.000 A 
ATOM      5  C   UNL     1     107.275 125.273 147.203  0.00  0.00    +0.000 A 
ATOM      6  C   UNL     1     107.579 125.234 147.969  0.00  0.00    +0.000 A 
ATOM      7  C   UNL     1     106.203 125.054 146.284  0.00  0.00    +0.000 A 
ATOM      8  O   UNL     1     106.668 125.353 145.671  0.00  0.00    +0.000 OA
ATOM      9  C   UNL     1     105.435 124.796 146.130  0.00  0.00    +0.000 A 
ATOM     10  C   UNL     1     104.970 124.497 146.744  0.00  0.00    +0.000 A 
ATOM     11  O   UNL     1     105.274 124.458 147.510  0.00  0.00    +0.000 OA
ENDROOT
BRANCH  10  12
ATOM     12  C   UNL     1     104.201 124.239 146.590  0.00  0.00    +0.000 A 
ATOM     13  C   UNL     1     104.075 123.496 146.256  0.00  0.00    +0.000 A 
ATOM     14  C   UNL     1     103.306 123.238 146.102  0.00  0.00    +0.000 A 
ATOM     15  C   UNL     1     102.664 123.723 146.283  0.00  0.00    +0.000 A 
ATOM     16  C   UNL     1     102.791 124.467 146.618  0.00  0.00    +0.000 A 
ATOM     17  C   UNL     1     103.560 124.725 146.772  0.00  0.00    +0.000 A 
ENDBRANCH  10  12
BRANCH   1  19
ATOM     18  C   UNL     1     107.856 124.239 149.584  0.00  0.00    +0.000 C 
ATOM     19  O   UNL     1     107.418 124.896 149.348  0.00  0.00    +0.000 OA
ENDBRANCH   1  19
BRANCH   9  20
ATOM     20  O   UNL     1     105.131 124.835 145.364  0.00  0.00    +0.000 OA
ATOM     21  C   UNL     1     105.602 125.112 144.747  0.00  0.00    +0.000 C 
ENDBRANCH   9  20
TORSDOF 3
ENDMDL
MODEL 4
REMARK VINA RESULT:      -7.4      2.467      3.930
REMARK  Name = null
REMARK  3 active torsions:
REMARK  status: ('A' for Active; 'I' for Inactive)
REMARK    1  A    between atoms: O_2  and  C_3
REMARK    2  A    between atoms: C_11  and  O_20
REMARK    3  A    between atoms: C_12  and  C_14
REMARK                            x       y       z     vdW  Elec       q    Type
REMARK                         _______ _______ _______ _____ _____    ______ ____
ROOT
ATOM      1  C   UNL     1     113.221 127.471 140.641  0.00  0.00    +0.000 A 
ATOM      2  C   UNL     1     113.679 127.209 140.006  0.00  0.00    +0.000 A 
ATOM      3  C   UNL     1     113.348 126.716 139.433  0.00  0.00    +0.000 A 
ATOM      4  C   UNL     1     112.558 126.483 139.495  0.00  0.00    +0.000 A 
ATOM      5  C   UNL     1     112.100 126.745 140.130  0.00  0.00    +0.000 A 
ATOM      6  C   UNL     1     112.430 127.239 140.702  0.00  0.00    +0.000 A 
ATOM      7  C   UNL     1     112.228 125.990 138.923  0.00  0.00    +0.000 A 
ATOM      8  O   UNL     1     111.439 125.758 138.985  0.00  0.00    +0.000 OA
ATOM      9  C   UNL     1     112.686 125.729 138.289  0.00  0.00    +0.000 A 
ATOM     10  C   UNL     1     113.476 125.961 138.227  0.00  0.00    +0.000 A 
ATOM     11  O   UNL     1     113.806 126.454 138.799  0.00  0.00    +0.000 OA
ENDROOT
BRANCH  10  12
ATOM     12  C   UNL     1     113.934 125.699 137.593  0.00  0.00    +0.000 A 
ATOM     13  C   UNL     1     113.949 126.129 136.890  0.00  0.00    +0.000 A 
ATOM     14  C   UNL     1     114.407 125.868 136.255  0.00  0.00    +0.000 A 
ATOM     15  C   UNL     1     114.850 125.175 136.325  0.00  0.00    +0.000 A 
ATOM     16  C   UNL     1     114.835 124.744 137.029  0.00  0.00    +0.000 A 
ATOM     17  C   UNL     1     114.376 125.007 137.662  0.00  0.00    +0.000 A 
ENDBRANCH  10  12
BRANCH   1  19
ATOM     18  C   UNL     1     113.450 128.781 141.161  0.00  0.00    +0.000 C 
ATOM     19  O   UNL     1     113.551 127.964 141.212  0.00  0.00    +0.000 OA
ENDBRANCH   1  19
BRANCH   9  20
ATOM     20  O   UNL     1     112.355 125.235 137.717  0.00  0.00    +0.000 OA
ATOM     21  C   UNL     1     111.595 124.934 137.820  0.00  0.00    +0.000 C 
ENDBRANCH   9  20
TORSDOF 3
ENDMDL
MODEL 5
REMARK VINA RESULT:      -7.4      2.579      3.394
REMARK  Name = null
REMARK  3 active torsions:
REMARK  status: ('A' for Active; 'I' for Inactive)
REMARK    1  A    between atoms: O_2  and  C_3
REMARK    2  A    between atoms: C_11  and  O_20
REMARK    3  A    between atoms: C_12  and  C_14
REMARK                            x       y       z     vdW  Elec       q    Type
REMARK                         _______ _______ _______ _____ _____    ______ ____
ROOT
ATOM      1  C   UNL     1     114.117 129.191 135.483  0.00  0.00    +0.000 A 
ATOM      2  C   UNL     1     114.225 128.375 135.544  0.00  0.00    +0.000 A 
ATOM      3  C   UNL     1     113.861 127.954 136.153  0.00  0.00    +0.000 A 
ATOM      4  C   UNL     1     113.387 128.349 136.702  0.00  0.00    +0.000 A 
ATOM      5  C   UNL     1     113.279 129.165 136.640  0.00  0.00    +0.000 A 
ATOM      6  C   UNL     1     113.644 129.586 136.031  0.00  0.00    +0.000 A 
ATOM      7  C   UNL     1     113.023 127.929 137.310  0.00  0.00    +0.000 A 
ATOM      8  O   UNL     1     112.550 128.324 137.859  0.00  0.00    +0.000 OA
ATOM      9  C   UNL     1     113.131 127.114 137.371  0.00  0.00    +0.000 A 
ATOM     10  C   UNL     1     113.605 126.719 136.822  0.00  0.00    +0.000 A 
ATOM     11  O   UNL     1     113.969 127.139 136.214  0.00  0.00    +0.000 OA
ENDROOT
BRANCH  10  12
ATOM     12  C   UNL     1     113.713 125.903 136.884  0.00  0.00    +0.000 A 
ATOM     13  C   UNL     1     113.178 125.387 136.527  0.00  0.00    +0.000 A 
ATOM     14  C   UNL     1     113.286 124.571 136.589  0.00  0.00    +0.000 A 
ATOM     15  C   UNL     1     113.931 124.272 137.007  0.00  0.00    +0.000 A 
ATOM     16  C   UNL     1     114.467 124.788 137.364  0.00  0.00    +0.000 A 
ATOM     17  C   UNL     1     114.358 125.603 137.302  0.00  0.00    +0.000 A 
ENDBRANCH  10  12
BRANCH   1  19
ATOM     18  C   UNL     1     114.961 130.258 135.049  0.00  0.00    +0.000 C 
ATOM     19  O   UNL     1     114.482 129.611 134.874  0.00  0.00    +0.000 OA
ENDBRANCH   1  19
BRANCH   9  20
ATOM     20  O   UNL     1     112.767 126.693 137.980  0.00  0.00    +0.000 OA
ATOM     21  C   UNL     1     112.344 127.094 138.564  0.00  0.00    +0.000 C 
ENDBRANCH   9  20
TORSDOF 3
ENDMDL
MODEL 6
REMARK VINA RESULT:      -7.3      1.162      2.093
REMARK  Name = null
REMARK  3 active torsions:
REMARK  status: ('A' for Active; 'I' for Inactive)
REMARK    1  A    between atoms: O_2  and  C_3
REMARK    2  A    between atoms: C_11  and  O_20
REMARK    3  A    between atoms: C_12  and  C_14
REMARK                            x       y       z     vdW  Elec       q    Type
REMARK                         _______ _______ _______ _____ _____    ______ ____
ROOT
ATOM      1  C   UNL     1     110.351 126.099 135.090  0.00  0.00    +0.000 A 
ATOM      2  C   UNL     1     110.972 125.714 135.474  0.00  0.00    +0.000 A 
ATOM      3  C   UNL     1     111.610 126.147 135.766  0.00  0.00    +0.000 A 
ATOM      4  C   UNL     1     111.629 126.968 135.673  0.00  0.00    +0.000 A 
ATOM      5  C   UNL     1     111.008 127.353 135.289  0.00  0.00    +0.000 A 
ATOM      6  C   UNL     1     110.369 126.920 134.997  0.00  0.00    +0.000 A 
ATOM      7  C   UNL     1     112.267 127.401 135.964  0.00  0.00    +0.000 A 
ATOM      8  O   UNL     1     112.285 128.221 135.871  0.00  0.00    +0.000 OA
ATOM      9  C   UNL     1     112.886 127.016 136.348  0.00  0.00    +0.000 A 
ATOM     10  C   UNL     1     112.868 126.196 136.440  0.00  0.00    +0.000 A 
ATOM     11  O   UNL     1     112.230 125.762 136.149  0.00  0.00    +0.000 OA
ENDROOT
BRANCH  10  12
ATOM     12  C   UNL     1     113.488 125.810 136.825  0.00  0.00    +0.000 A 
ATOM     13  C   UNL     1     113.492 125.751 137.647  0.00  0.00    +0.000 A 
ATOM     14  C   UNL     1     114.112 125.366 138.031  0.00  0.00    +0.000 A 
ATOM     15  C   UNL     1     114.730 125.040 137.592  0.00  0.00    +0.000 A 
ATOM     16  C   UNL     1     114.727 125.099 136.768  0.00  0.00    +0.000 A 
ATOM     17  C   UNL     1     114.106 125.485 136.385  0.00  0.00    +0.000 A 
ENDBRANCH  10  12
BRANCH   1  19
ATOM     18  C   UNL     1     108.942 125.908 134.961  0.00  0.00    +0.000 C 
ATOM     19  O   UNL     1     109.713 125.666 134.799  0.00  0.00    +0.000 OA
ENDBRANCH   1  19
BRANCH   9  20
ATOM     20  O   UNL     1     113.525 127.450 136.639  0.00  0.00    +0.000 OA
ATOM     21  C   UNL     1     113.620 128.240 136.425  0.00  0.00    +0.000 C 
ENDBRANCH   9  20
TORSDOF 3
ENDMDL
MODEL 7
REMARK VINA RESULT:      -7.2     10.050     11.881
REMARK  Name = null
REMARK  3 active torsions:
REMARK  status: ('A' for Active; 'I' for Inactive)
REMARK    1  A    between atoms: O_2  and  C_3
REMARK    2  A    between atoms: C_11  and  O_20
REMARK    3  A    between atoms: C_12  and  C_14
REMARK                            x       y       z     vdW  Elec       q    Type
REMARK                         _______ _______ _______ _____ _____    ______ ____
ROOT
ATOM      1  C   UNL     1     104.877 128.696 142.988  0.00  0.00    +0.000 A 
ATOM      2  C   UNL     1     104.399 129.369 142.992  0.00  0.00    +0.000 A 
ATOM      3  C   UNL     1     103.902 129.527 142.353  0.00  0.00    +0.000 A 
ATOM      4  C   UNL     1     103.882 129.011 141.708  0.00  0.00    +0.000 A 
ATOM      5  C   UNL     1     104.360 128.338 141.704  0.00  0.00    +0.000 A 
ATOM      6  C   UNL     1     104.858 128.180 142.343  0.00  0.00    +0.000 A 
ATOM      7  C   UNL     1     103.385 129.169 141.070  0.00  0.00    +0.000 A 
ATOM      8  O   UNL     1     103.365 128.653 140.426  0.00  0.00    +0.000 OA
ATOM      9  C   UNL     1     102.908 129.841 141.075  0.00  0.00    +0.000 A 
ATOM     10  C   UNL     1     102.927 130.356 141.720  0.00  0.00    +0.000 A 
ATOM     11  O   UNL     1     103.424 130.199 142.358  0.00  0.00    +0.000 OA
ENDROOT
BRANCH  10  12
ATOM     12  C   UNL     1     102.449 131.029 141.724  0.00  0.00    +0.000 A 
ATOM     13  C   UNL     1     101.680 130.987 142.017  0.00  0.00    +0.000 A 
ATOM     14  C   UNL     1     101.202 131.659 142.021  0.00  0.00    +0.000 A 
ATOM     15  C   UNL     1     101.494 132.375 141.732  0.00  0.00    +0.000 A 
ATOM     16  C   UNL     1     102.265 132.417 141.439  0.00  0.00    +0.000 A 
ATOM     17  C   UNL     1     102.742 131.744 141.435  0.00  0.00    +0.000 A 
ENDBRANCH  10  12
BRANCH   1  19
ATOM     18  C   UNL     1     105.273 127.850 144.068  0.00  0.00    +0.000 C 
ATOM     19  O   UNL     1     105.374 128.538 143.626  0.00  0.00    +0.000 OA
ENDBRANCH   1  19
BRANCH   9  20
ATOM     20  O   UNL     1     102.410 129.999 140.436  0.00  0.00    +0.000 OA
ATOM     21  C   UNL     1     102.289 129.426 139.855  0.00  0.00    +0.000 C 
ENDBRANCH   9  20
TORSDOF 3
ENDMDL
MODEL 8
REMARK VINA RESULT:      -7.1      1.260      3.800
REMARK  Name = null
REMARK  3 active torsions:
REMARK  status: ('A' for Active; 'I' for Inactive)
REMARK    1  A    between atoms: O_2  and  C_3
REMARK    2  A    between atoms: C_11  and  O_20
REMARK    3  A    between atoms: C_12  and  C_14
REMARK                            x       y       z     vdW  Elec       q    Type
REMARK                         _______ _______ _______ _____ _____    ______ ____
ROOT
ATOM      1  C   UNL     1     114.217 125.111 136.910  0.00  0.00    +0.000 A 
ATOM      2  C   UNL     1     113.637 125.298 136.353  0.00  0.00    +0.000 A 
ATOM      3  C   UNL     1     112.862 125.443 136.596  0.00  0.00    +0.000 A 
ATOM      4  C   UNL     1     112.666 125.400 137.397  0.00  0.00    +0.000 A 
ATOM      5  C   UNL     1     113.245 125.212 137.954  0.00  0.00    +0.000 A 
ATOM      6  C   UNL     1     114.021 125.067 137.711  0.00  0.00    +0.000 A 
ATOM      7  C   UNL     1     111.891 125.544 137.640  0.00  0.00    +0.000 A 
ATOM      8  O   UNL     1     111.695 125.501 138.440  0.00  0.00    +0.000 OA
ATOM      9  C   UNL     1     111.313 125.732 137.084  0.00  0.00    +0.000 A 
ATOM     10  C   UNL     1     111.509 125.775 136.282  0.00  0.00    +0.000 A 
ATOM     11  O   UNL     1     112.283 125.631 136.040  0.00  0.00    +0.000 OA
ENDROOT
BRANCH  10  12
ATOM     12  C   UNL     1     110.929 125.963 135.726  0.00  0.00    +0.000 A 
ATOM     13  C   UNL     1     110.828 126.744 135.482  0.00  0.00    +0.000 A 
ATOM     14  C   UNL     1     110.249 126.932 134.926  0.00  0.00    +0.000 A 
ATOM     15  C   UNL     1     109.770 126.337 134.613  0.00  0.00    +0.000 A 
ATOM     16  C   UNL     1     109.871 125.555 134.857  0.00  0.00    +0.000 A 
ATOM     17  C   UNL     1     110.451 125.368 135.413  0.00  0.00    +0.000 A 
ENDBRANCH  10  12
BRANCH   1  19
ATOM     18  C   UNL     1     115.308 125.381 136.029  0.00  0.00    +0.000 C 
ATOM     19  O   UNL     1     114.991 124.966 136.667  0.00  0.00    +0.000 OA
ENDBRANCH   1  19
BRANCH   9  20
ATOM     20  O   UNL     1     110.537 125.876 137.326  0.00  0.00    +0.000 OA
ATOM     21  C   UNL     1     110.372 126.007 138.123  0.00  0.00    +0.000 C 
ENDBRANCH   9  20
TORSDOF 3
ENDMDL
MODEL 9
REMARK VINA RESULT:      -7.1     12.707     13.414
REMARK  Name = null
REMARK  3 active torsions:
REMARK  status: ('A' for Active; 'I' for Inactive)
REMARK    1  A    between atoms: O_2  and  C_3
REMARK    2  A    between atoms: C_11  and  O_20
REMARK    3  A    between atoms: C_12  and  C_14
REMARK                            x       y       z     vdW  Elec       q    Type
REMARK                         _______ _______ _______ _____ _____    ______ ____
ROOT
ATOM      1  C   UNL     1     102.223 123.141 146.938  0.00  0.00    +0.000 A 
ATOM      2  C   UNL     1     102.786 123.593 147.338  0.00  0.00    +0.000 A 
ATOM      3  C   UNL     1     103.479 123.824 146.954  0.00  0.00    +0.000 A 
ATOM      4  C   UNL     1     103.608 123.604 146.168  0.00  0.00    +0.000 A 
ATOM      5  C   UNL     1     103.045 123.153 145.769  0.00  0.00    +0.000 A 
ATOM      6  C   UNL     1     102.352 122.921 146.153  0.00  0.00    +0.000 A 
ATOM      7  C   UNL     1     104.300 123.836 145.784  0.00  0.00    +0.000 A 
ATOM      8  O   UNL     1     104.429 123.616 144.999  0.00  0.00    +0.000 OA
ATOM      9  C   UNL     1     104.863 124.287 146.184  0.00  0.00    +0.000 A 
ATOM     10  C   UNL     1     104.733 124.507 146.969  0.00  0.00    +0.000 A 
ATOM     11  O   UNL     1     104.041 124.275 147.353  0.00  0.00    +0.000 OA
ENDROOT
BRANCH  10  12
ATOM     12  C   UNL     1     105.297 124.958 147.369  0.00  0.00    +0.000 A 
ATOM     13  C   UNL     1     105.922 124.588 147.758  0.00  0.00    +0.000 A 
ATOM     14  C   UNL     1     106.485 125.040 148.158  0.00  0.00    +0.000 A 
ATOM     15  C   UNL     1     106.423 125.862 148.167  0.00  0.00    +0.000 A 
ATOM     16  C   UNL     1     105.796 126.233 147.778  0.00  0.00    +0.000 A 
ATOM     17  C   UNL     1     105.234 125.781 147.379  0.00  0.00    +0.000 A 
ENDBRANCH  10  12
BRANCH   1  19
ATOM     18  C   UNL     1     100.797 123.079 146.988  0.00  0.00    +0.000 C 
ATOM     19  O   UNL     1     101.531 122.910 147.322  0.00  0.00    +0.000 OA
ENDBRANCH   1  19
BRANCH   9  20
ATOM     20  O   UNL     1     105.555 124.519 145.800  0.00  0.00    +0.000 OA
ATOM     21  C   UNL     1     105.591 124.518 144.976  0.00  0.00    +0.000 C 
ENDBRANCH   9  20
TORSDOF 3
ENDMDL
MODEL 10
REMARK VINA RESULT:      -7.0      1.568      2.777
REMARK  Name = null
REMARK  3 active torsions:
REMARK  status: ('A' for Active; 'I' for Inactive)
REMARK    1  A    between atoms: O_2  and  C_3
REMARK    2  A    between atoms: C_11  and  O_20
REMARK    3  A    between atoms: C_12  and  C_14
REMARK                            x       y       z     vdW  Elec       q    Type
REMARK                         _______ _______ _______ _____ _____    ______ ____
ROOT
ATOM      1  C   UNL     1     112.932 128.587 135.959  0.00  0.00    +0.000 A 
ATOM      2  C   UNL     1     112.972 127.829 136.281  0.00  0.00    +0.000 A 
ATOM      3  C   UNL     1     112.397 127.268 136.093  0.00  0.00    +0.000 A 
ATOM      4  C   UNL     1     111.780 127.467 135.581  0.00  0.00    +0.000 A 
ATOM      5  C   UNL     1     111.740 128.225 135.258  0.00  0.00    +0.000 A 
ATOM      6  C   UNL     1     112.315 128.786 135.446  0.00  0.00    +0.000 A 
ATOM      7  C   UNL     1     111.205 126.907 135.393  0.00  0.00    +0.000 A 
ATOM      8  O   UNL     1     110.589 127.105 134.881  0.00  0.00    +0.000 OA
ATOM      9  C   UNL     1     111.245 126.149 135.716  0.00  0.00    +0.000 A 
ATOM     10  C   UNL     1     111.862 125.951 136.228  0.00  0.00    +0.000 A 
ATOM     11  O   UNL     1     112.437 126.511 136.416  0.00  0.00    +0.000 OA
ENDROOT
BRANCH  10  12
ATOM     12  C   UNL     1     111.902 125.193 136.551  0.00  0.00    +0.000 A 
ATOM     13  C   UNL     1     112.332 124.603 136.167  0.00  0.00    +0.000 A 
ATOM     14  C   UNL     1     112.371 123.845 136.490  0.00  0.00    +0.000 A 
ATOM     15  C   UNL     1     111.981 123.677 137.197  0.00  0.00    +0.000 A 
ATOM     16  C   UNL     1     111.551 124.268 137.582  0.00  0.00    +0.000 A 
ATOM     17  C   UNL     1     111.512 125.025 137.258  0.00  0.00    +0.000 A 
ENDBRANCH  10  12
BRANCH   1  19
ATOM     18  C   UNL     1     113.996 129.452 135.556  0.00  0.00    +0.000 C 
ATOM     19  O   UNL     1     113.508 129.147 136.147  0.00  0.00    +0.000 OA
ENDBRANCH   1  19
BRANCH   9  20
ATOM     20  O   UNL     1     110.670 125.589 135.528  0.00  0.00    +0.000 OA
ATOM     21  C   UNL     1     110.084 125.767 134.975  0.00  0.00    +0.000 C 
ENDBRANCH   9  20
TORSDOF 3
ENDMDL
