MODEL 1
REMARK VINA RESULT:     -11.2      0.000      0.000
REMARK  Name = 5459192
REMARK  8 active torsions:
REMARK  status: ('A' for Active; 'I' for Inactive)
REMARK    1  A    between atoms: O_1  and  C_20
REMARK    2  A    between atoms: O_1  and  C_25
REMARK    3  A    between atoms: O_4  and  C_28
REMARK    4  A    between atoms: O_4  and  C_31
REMARK    5  A    between atoms: O_6  and  C_24
REMARK    6  A    between atoms: O_6  and  C_38
REMARK    7  A    between atoms: C_23  and  C_28
REMARK    8  A    between atoms: C_39  and  C_42
REMARK                            x       y       z     vdW  Elec       q    Type
REMARK                         _______ _______ _______ _____ _____    ______ ____
ROOT
ATOM      1  O   UNL     1     111.103 128.568 138.070  0.00  0.00    +0.000 OA
ATOM      2  O   UNL     1     108.938 129.754 138.255  0.00  0.00    +0.000 OA
ATOM      3  O   UNL     1     109.004 128.261 137.554  0.00  0.00    +0.000 OA
ATOM      4  C   UNL     1     110.348 129.710 138.483  0.00  0.00    +0.000 C 
ATOM      5  C   UNL     1     109.659 129.358 138.194  0.00  0.00    +0.000 C 
ATOM      6  C   UNL     1     109.692 128.613 137.843  0.00  0.00    +0.000 C 
ATOM      7  C   UNL     1     110.414 128.218 137.782  0.00  0.00    +0.000 C 
ATOM      8  C   UNL     1     111.069 129.314 138.422  0.00  0.00    +0.000 C 
ENDROOT
BRANCH   4   9
ATOM      9  O   UNL     1     110.315 130.455 138.834  0.00  0.00    +0.000 OA
BRANCH   9  14
ATOM     10  O   UNL     1     110.293 131.063 137.540  0.00  0.00    +0.000 OA
ATOM     11  O   UNL     1     110.217 131.946 139.535  0.00  0.00    +0.000 OA
ATOM     12  O   UNL     1     110.147 133.298 138.592  0.00  0.00    +0.000 OA
ATOM     13  O   UNL     1     110.174 133.160 136.948  0.00  0.00    +0.000 OA
ATOM     14  C   UNL     1     110.280 131.131 138.362  0.00  0.00    +0.000 C 
ATOM     15  C   UNL     1     110.231 131.877 138.713  0.00  0.00    +0.000 C 
ATOM     16  C   UNL     1     110.196 132.553 138.242  0.00  0.00    +0.000 C 
ATOM     17  C   UNL     1     110.210 132.483 137.419  0.00  0.00    +0.000 C 
ATOM     18  C   UNL     1     110.258 131.739 137.069  0.00  0.00    +0.000 C 
ATOM     19  C   UNL     1     110.272 131.669 136.247  0.00  0.00    +0.000 C 
ENDBRANCH   9  14
ENDBRANCH   4   9
BRANCH   8  20
ATOM     20  O   UNL     1     111.758 129.665 138.710  0.00  0.00    +0.000 OA
BRANCH  20  25
ATOM     21  O   UNL     1     113.662 128.724 139.214  0.00  0.00    +0.000 OA
ATOM     22  O   UNL     1     111.333 128.797 140.048  0.00  0.00    +0.000 OA
ATOM     23  O   UNL     1     111.660 127.897 141.127  0.00  0.00    +0.000 OA
ATOM     24  O   UNL     1     114.396 126.905 141.366  0.00  0.00    +0.000 OA
ATOM     25  C   UNL     1     112.322 129.206 139.101  0.00  0.00    +0.000 A 
ATOM     26  C   UNL     1     113.098 129.182 138.823  0.00  0.00    +0.000 A 
ATOM     27  C   UNL     1     112.109 128.773 139.769  0.00  0.00    +0.000 A 
ATOM     28  C   UNL     1     112.673 128.315 140.160  0.00  0.00    +0.000 A 
ATOM     29  C   UNL     1     113.449 128.290 139.883  0.00  0.00    +0.000 A 
ATOM     30  C   UNL     1     112.440 127.867 140.856  0.00  0.00    +0.000 A 
ATOM     31  C   UNL     1     114.045 127.817 140.281  0.00  0.00    +0.000 A 
ATOM     32  C   UNL     1     113.022 127.388 141.268  0.00  0.00    +0.000 A 
ATOM     33  C   UNL     1     113.831 127.363 140.978  0.00  0.00    +0.000 A 
BRANCH  26  35
ATOM     34  O   UNL     1     113.950 130.918 136.148  0.00  0.00    +0.000 OA
ATOM     35  C   UNL     1     113.311 129.616 138.155  0.00  0.00    +0.000 A 
ATOM     36  C   UNL     1     113.502 130.415 138.225  0.00  0.00    +0.000 A 
ATOM     37  C   UNL     1     113.333 129.251 137.415  0.00  0.00    +0.000 A 
ATOM     38  C   UNL     1     113.715 130.850 137.556  0.00  0.00    +0.000 A 
ATOM     39  C   UNL     1     113.546 129.684 136.747  0.00  0.00    +0.000 A 
ATOM     40  C   UNL     1     113.737 130.484 136.817  0.00  0.00    +0.000 A 
ENDBRANCH  26  35
ENDBRANCH  20  25
ENDBRANCH   8  20
BRANCH   7  41
ATOM     41  C   UNL     1     110.447 127.471 137.431  0.00  0.00    +0.000 C 
BRANCH  41  42
ATOM     42  O   UNL     1     110.797 126.842 137.833  0.00  0.00    +0.000 OA
BRANCH  42  47
ATOM     43  O   UNL     1     110.893 126.107 136.612  0.00  0.00    +0.000 OA
ATOM     44  O   UNL     1     111.301 125.514 138.672  0.00  0.00    +0.000 OA
ATOM     45  O   UNL     1     111.649 124.114 137.870  0.00  0.00    +0.000 OA
ATOM     46  O   UNL     1     111.493 124.043 136.229  0.00  0.00    +0.000 OA
ATOM     47  C   UNL     1     110.971 126.142 137.432  0.00  0.00    +0.000 C 
ATOM     48  C   UNL     1     111.223 125.477 137.852  0.00  0.00    +0.000 C 
ATOM     49  C   UNL     1     111.397 124.778 137.451  0.00  0.00    +0.000 C 
ATOM     50  C   UNL     1     111.319 124.743 136.631  0.00  0.00    +0.000 C 
ATOM     51  C   UNL     1     111.068 125.407 136.211  0.00  0.00    +0.000 C 
ATOM     52  C   UNL     1     110.990 125.372 135.390  0.00  0.00    +0.000 C 
ENDBRANCH  42  47
ENDBRANCH  41  42
ENDBRANCH   7  41
TORSDOF 8
ENDMDL
MODEL 2
REMARK VINA RESULT:     -11.0      1.730      5.555
REMARK  Name = 5459192
REMARK  8 active torsions:
REMARK  status: ('A' for Active; 'I' for Inactive)
REMARK    1  A    between atoms: O_1  and  C_20
REMARK    2  A    between atoms: O_1  and  C_25
REMARK    3  A    between atoms: O_4  and  C_28
REMARK    4  A    between atoms: O_4  and  C_31
REMARK    5  A    between atoms: O_6  and  C_24
REMARK    6  A    between atoms: O_6  and  C_38
REMARK    7  A    between atoms: C_23  and  C_28
REMARK    8  A    between atoms: C_39  and  C_42
REMARK                            x       y       z     vdW  Elec       q    Type
REMARK                         _______ _______ _______ _____ _____    ______ ____
ROOT
ATOM      1  O   UNL     1     112.517 128.088 138.917  0.00  0.00    +0.000 OA
ATOM      2  O   UNL     1     112.241 125.712 139.552  0.00  0.00    +0.000 OA
ATOM      3  O   UNL     1     113.001 126.757 140.578  0.00  0.00    +0.000 OA
ATOM      4  C   UNL     1     112.045 126.773 138.615  0.00  0.00    +0.000 C 
ATOM      5  C   UNL     1     112.333 126.504 139.340  0.00  0.00    +0.000 C 
ATOM      6  C   UNL     1     112.713 127.026 139.853  0.00  0.00    +0.000 C 
ATOM      7  C   UNL     1     112.805 127.818 139.641  0.00  0.00    +0.000 C 
ATOM      8  C   UNL     1     112.137 127.565 138.403  0.00  0.00    +0.000 C 
ENDROOT
BRANCH   4   9
ATOM      9  O   UNL     1     111.665 126.251 138.102  0.00  0.00    +0.000 OA
BRANCH   9  14
ATOM     10  O   UNL     1     112.930 125.784 137.630  0.00  0.00    +0.000 OA
ATOM     11  O   UNL     1     110.905 125.076 137.227  0.00  0.00    +0.000 OA
ATOM     12  O   UNL     1     111.791 124.023 136.317  0.00  0.00    +0.000 OA
ATOM     13  O   UNL     1     113.437 124.144 136.282  0.00  0.00    +0.000 OA
ATOM     14  C   UNL     1     112.108 125.724 137.647  0.00  0.00    +0.000 C 
ATOM     15  C   UNL     1     111.728 125.136 137.209  0.00  0.00    +0.000 C 
ATOM     16  C   UNL     1     112.171 124.610 136.754  0.00  0.00    +0.000 C 
ATOM     17  C   UNL     1     112.994 124.671 136.737  0.00  0.00    +0.000 C 
ATOM     18  C   UNL     1     113.373 125.258 137.175  0.00  0.00    +0.000 C 
ATOM     19  C   UNL     1     114.196 125.319 137.158  0.00  0.00    +0.000 C 
ENDBRANCH   9  14
ENDBRANCH   4   9
BRANCH   8  20
ATOM     20  O   UNL     1     111.849 127.835 137.679  0.00  0.00    +0.000 OA
BRANCH  20  25
ATOM     21  O   UNL     1     111.345 129.875 137.091  0.00  0.00    +0.000 OA
ATOM     22  O   UNL     1     110.498 128.096 138.589  0.00  0.00    +0.000 OA
ATOM     23  O   UNL     1     109.409 128.938 139.021  0.00  0.00    +0.000 OA
ATOM     24  O   UNL     1     109.172 131.631 137.916  0.00  0.00    +0.000 OA
ATOM     25  C   UNL     1     111.456 128.559 137.635  0.00  0.00    +0.000 A 
ATOM     26  C   UNL     1     111.738 129.152 137.135  0.00  0.00    +0.000 A 
ATOM     27  C   UNL     1     110.781 128.689 138.090  0.00  0.00    +0.000 A 
ATOM     28  C   UNL     1     110.387 129.413 138.045  0.00  0.00    +0.000 A 
ATOM     29  C   UNL     1     110.669 130.006 137.546  0.00  0.00    +0.000 A 
ATOM     30  C   UNL     1     109.684 129.537 138.524  0.00  0.00    +0.000 A 
ATOM     31  C   UNL     1     110.267 130.764 137.492  0.00  0.00    +0.000 A 
ATOM     32  C   UNL     1     109.269 130.288 138.483  0.00  0.00    +0.000 A 
ATOM     33  C   UNL     1     109.564 130.906 137.963  0.00  0.00    +0.000 A 
BRANCH  26  35
ATOM     34  O   UNL     1     114.441 128.630 135.314  0.00  0.00    +0.000 OA
ATOM     35  C   UNL     1     112.413 129.021 136.680  0.00  0.00    +0.000 A 
ATOM     36  C   UNL     1     112.359 128.604 135.971  0.00  0.00    +0.000 A 
ATOM     37  C   UNL     1     113.144 129.308 136.934  0.00  0.00    +0.000 A 
ATOM     38  C   UNL     1     113.035 128.473 135.515  0.00  0.00    +0.000 A 
ATOM     39  C   UNL     1     113.820 129.178 136.479  0.00  0.00    +0.000 A 
ATOM     40  C   UNL     1     113.765 128.760 135.770  0.00  0.00    +0.000 A 
ENDBRANCH  26  35
ENDBRANCH  20  25
ENDBRANCH   8  20
BRANCH   7  41
ATOM     41  C   UNL     1     113.185 128.341 140.154  0.00  0.00    +0.000 C 
BRANCH  41  42
ATOM     42  O   UNL     1     112.817 129.046 140.371  0.00  0.00    +0.000 OA
BRANCH  42  47
ATOM     43  O   UNL     1     114.044 129.775 140.439  0.00  0.00    +0.000 OA
ATOM     44  O   UNL     1     112.151 130.062 141.488  0.00  0.00    +0.000 OA
ATOM     45  O   UNL     1     113.045 131.299 142.114  0.00  0.00    +0.000 OA
ATOM     46  O   UNL     1     114.605 131.521 141.624  0.00  0.00    +0.000 OA
ATOM     47  C   UNL     1     113.264 129.665 140.685  0.00  0.00    +0.000 C 
ATOM     48  C   UNL     1     112.931 130.173 141.243  0.00  0.00    +0.000 C 
ATOM     49  C   UNL     1     113.378 130.791 141.556  0.00  0.00    +0.000 C 
ATOM     50  C   UNL     1     114.157 130.902 141.311  0.00  0.00    +0.000 C 
ATOM     51  C   UNL     1     114.490 130.394 140.753  0.00  0.00    +0.000 C 
ATOM     52  C   UNL     1     115.271 130.505 140.508  0.00  0.00    +0.000 C 
ENDBRANCH  42  47
ENDBRANCH  41  42
ENDBRANCH   7  41
TORSDOF 8
ENDMDL
MODEL 3
REMARK VINA RESULT:     -10.9      1.744      3.764
REMARK  Name = 5459192
REMARK  8 active torsions:
REMARK  status: ('A' for Active; 'I' for Inactive)
REMARK    1  A    between atoms: O_1  and  C_20
REMARK    2  A    between atoms: O_1  and  C_25
REMARK    3  A    between atoms: O_4  and  C_28
REMARK    4  A    between atoms: O_4  and  C_31
REMARK    5  A    between atoms: O_6  and  C_24
REMARK    6  A    between atoms: O_6  and  C_38
REMARK    7  A    between atoms: C_23  and  C_28
REMARK    8  A    between atoms: C_39  and  C_42
REMARK                            x       y       z     vdW  Elec       q    Type
REMARK                         _______ _______ _______ _____ _____    ______ ____
ROOT
ATOM      1  O   UNL     1     112.899 128.062 138.835  0.00  0.00    +0.000 OA
ATOM      2  O   UNL     1     113.335 128.283 141.262  0.00  0.00    +0.000 OA
ATOM      3  O   UNL     1     113.535 126.824 140.517  0.00  0.00    +0.000 OA
ATOM      4  C   UNL     1     112.944 128.866 140.017  0.00  0.00    +0.000 C 
ATOM      5  C   UNL     1     113.189 128.210 140.453  0.00  0.00    +0.000 C 
ATOM      6  C   UNL     1     113.289 127.481 140.081  0.00  0.00    +0.000 C 
ATOM      7  C   UNL     1     113.144 127.407 139.272  0.00  0.00    +0.000 C 
ATOM      8  C   UNL     1     112.799 128.792 139.208  0.00  0.00    +0.000 C 
ENDROOT
BRANCH   4   9
ATOM      9  O   UNL     1     112.844 129.595 140.389  0.00  0.00    +0.000 OA
BRANCH   9  14
ATOM     10  O   UNL     1     114.244 129.864 140.289  0.00  0.00    +0.000 OA
ATOM     11  O   UNL     1     112.682 130.838 141.462  0.00  0.00    +0.000 OA
ATOM     12  O   UNL     1     114.000 131.728 141.899  0.00  0.00    +0.000 OA
ATOM     13  O   UNL     1     115.482 131.375 141.263  0.00  0.00    +0.000 OA
ATOM     14  C   UNL     1     113.504 130.040 140.607  0.00  0.00    +0.000 C 
ATOM     15  C   UNL     1     113.422 130.662 141.144  0.00  0.00    +0.000 C 
ATOM     16  C   UNL     1     114.082 131.107 141.363  0.00  0.00    +0.000 C 
ATOM     17  C   UNL     1     114.822 130.930 141.044  0.00  0.00    +0.000 C 
ATOM     18  C   UNL     1     114.904 130.309 140.508  0.00  0.00    +0.000 C 
ATOM     19  C   UNL     1     115.644 130.133 140.190  0.00  0.00    +0.000 C 
ENDBRANCH   9  14
ENDBRANCH   4   9
BRANCH   8  20
ATOM     20  O   UNL     1     112.554 129.447 138.771  0.00  0.00    +0.000 OA
BRANCH  20  25
ATOM     21  O   UNL     1     111.520 129.499 136.850  0.00  0.00    +0.000 OA
ATOM     22  O   UNL     1     111.073 128.857 139.198  0.00  0.00    +0.000 OA
ATOM     23  O   UNL     1     109.723 128.470 138.866  0.00  0.00    +0.000 OA
ATOM     24  O   UNL     1     108.809 128.738 136.106  0.00  0.00    +0.000 OA
ATOM     25  C   UNL     1     111.962 129.366 138.202  0.00  0.00    +0.000 A 
ATOM     26  C   UNL     1     112.111 129.580 137.419  0.00  0.00    +0.000 A 
ATOM     27  C   UNL     1     111.222 129.072 138.415  0.00  0.00    +0.000 A 
ATOM     28  C   UNL     1     110.631 128.990 137.846  0.00  0.00    +0.000 A 
ATOM     29  C   UNL     1     110.779 129.204 137.063  0.00  0.00    +0.000 A 
ATOM     30  C   UNL     1     109.863 128.682 138.081  0.00  0.00    +0.000 A 
ATOM     31  C   UNL     1     110.171 129.124 136.462  0.00  0.00    +0.000 A 
ATOM     32  C   UNL     1     109.243 128.595 137.493  0.00  0.00    +0.000 A 
ATOM     33  C   UNL     1     109.398 128.818 136.677  0.00  0.00    +0.000 A 
BRANCH  26  35
ATOM     34  O   UNL     1     115.073 130.759 136.564  0.00  0.00    +0.000 OA
ATOM     35  C   UNL     1     112.851 129.875 137.205  0.00  0.00    +0.000 A 
ATOM     36  C   UNL     1     113.407 129.378 136.853  0.00  0.00    +0.000 A 
ATOM     37  C   UNL     1     113.036 130.667 137.344  0.00  0.00    +0.000 A 
ATOM     38  C   UNL     1     114.148 129.673 136.639  0.00  0.00    +0.000 A 
ATOM     39  C   UNL     1     113.776 130.962 137.131  0.00  0.00    +0.000 A 
ATOM     40  C   UNL     1     114.332 130.465 136.778  0.00  0.00    +0.000 A 
ENDBRANCH  26  35
ENDBRANCH  20  25
ENDBRANCH   8  20
BRANCH   7  41
ATOM     41  C   UNL     1     113.244 126.677 138.900  0.00  0.00    +0.000 C 
BRANCH  41  42
ATOM     42  O   UNL     1     112.626 126.350 138.462  0.00  0.00    +0.000 OA
BRANCH  42  47
ATOM     43  O   UNL     1     113.542 125.520 137.745  0.00  0.00    +0.000 OA
ATOM     44  O   UNL     1     111.366 125.443 137.903  0.00  0.00    +0.000 OA
ATOM     45  O   UNL     1     111.652 124.160 136.906  0.00  0.00    +0.000 OA
ATOM     46  O   UNL     1     113.198 123.783 136.468  0.00  0.00    +0.000 OA
ATOM     47  C   UNL     1     112.769 125.708 137.963  0.00  0.00    +0.000 C 
ATOM     48  C   UNL     1     112.139 125.254 137.683  0.00  0.00    +0.000 C 
ATOM     49  C   UNL     1     112.282 124.613 137.185  0.00  0.00    +0.000 C 
ATOM     50  C   UNL     1     113.054 124.425 136.967  0.00  0.00    +0.000 C 
ATOM     51  C   UNL     1     113.684 124.879 137.246  0.00  0.00    +0.000 C 
ATOM     52  C   UNL     1     114.457 124.690 137.027  0.00  0.00    +0.000 C 
ENDBRANCH  42  47
ENDBRANCH  41  42
ENDBRANCH   7  41
TORSDOF 8
ENDMDL
MODEL 4
REMARK VINA RESULT:     -10.8      1.856      4.908
REMARK  Name = 5459192
REMARK  8 active torsions:
REMARK  status: ('A' for Active; 'I' for Inactive)
REMARK    1  A    between atoms: O_1  and  C_20
REMARK    2  A    between atoms: O_1  and  C_25
REMARK    3  A    between atoms: O_4  and  C_28
REMARK    4  A    between atoms: O_4  and  C_31
REMARK    5  A    between atoms: O_6  and  C_24
REMARK    6  A    between atoms: O_6  and  C_38
REMARK    7  A    between atoms: C_23  and  C_28
REMARK    8  A    between atoms: C_39  and  C_42
REMARK                            x       y       z     vdW  Elec       q    Type
REMARK                         _______ _______ _______ _____ _____    ______ ____
ROOT
ATOM      1  O   UNL     1     111.411 128.051 139.223  0.00  0.00    +0.000 OA
ATOM      2  O   UNL     1     111.119 125.601 139.412  0.00  0.00    +0.000 OA
ATOM      3  O   UNL     1     110.088 126.618 140.202  0.00  0.00    +0.000 OA
ATOM      4  C   UNL     1     111.830 126.725 138.890  0.00  0.00    +0.000 C 
ATOM      5  C   UNL     1     111.217 126.418 139.349  0.00  0.00    +0.000 C 
ATOM      6  C   UNL     1     110.702 126.926 139.744  0.00  0.00    +0.000 C 
ATOM      7  C   UNL     1     110.799 127.742 139.681  0.00  0.00    +0.000 C 
ATOM      8  C   UNL     1     111.927 127.542 138.827  0.00  0.00    +0.000 C 
ENDROOT
BRANCH   4   9
ATOM      9  O   UNL     1     112.345 126.218 138.495  0.00  0.00    +0.000 OA
BRANCH   9  14
ATOM     10  O   UNL     1     111.377 126.029 137.461  0.00  0.00    +0.000 OA
ATOM     11  O   UNL     1     113.297 125.054 137.815  0.00  0.00    +0.000 OA
ATOM     12  O   UNL     1     112.804 124.285 136.441  0.00  0.00    +0.000 OA
ATOM     13  O   UNL     1     111.360 124.678 135.748  0.00  0.00    +0.000 OA
ATOM     14  C   UNL     1     112.099 125.833 137.808  0.00  0.00    +0.000 C 
ATOM     15  C   UNL     1     112.575 125.251 137.468  0.00  0.00    +0.000 C 
ATOM     16  C   UNL     1     112.329 124.866 136.781  0.00  0.00    +0.000 C 
ATOM     17  C   UNL     1     111.606 125.063 136.435  0.00  0.00    +0.000 C 
ATOM     18  C   UNL     1     111.130 125.644 136.774  0.00  0.00    +0.000 C 
ATOM     19  C   UNL     1     110.408 125.842 136.428  0.00  0.00    +0.000 C 
ENDBRANCH   9  14
ENDBRANCH   4   9
BRANCH   8  20
ATOM     20  O   UNL     1     112.540 127.851 138.369  0.00  0.00    +0.000 OA
BRANCH  20  25
ATOM     21  O   UNL     1     113.418 129.849 138.377  0.00  0.00    +0.000 OA
ATOM     22  O   UNL     1     113.222 127.886 139.871  0.00  0.00    +0.000 OA
ATOM     23  O   UNL     1     113.975 128.558 140.902  0.00  0.00    +0.000 OA
ATOM     24  O   UNL     1     114.944 131.269 140.411  0.00  0.00    +0.000 OA
ATOM     25  C   UNL     1     112.946 128.523 138.622  0.00  0.00    +0.000 A 
ATOM     26  C   UNL     1     113.012 129.177 138.124  0.00  0.00    +0.000 A 
ATOM     27  C   UNL     1     113.287 128.540 139.373  0.00  0.00    +0.000 A 
ATOM     28  C   UNL     1     113.694 129.212 139.626  0.00  0.00    +0.000 A 
ATOM     29  C   UNL     1     113.760 129.866 139.128  0.00  0.00    +0.000 A 
ATOM     30  C   UNL     1     114.045 129.218 140.411  0.00  0.00    +0.000 A 
ATOM     31  C   UNL     1     114.181 130.572 139.380  0.00  0.00    +0.000 A 
ATOM     32  C   UNL     1     114.470 129.914 140.680  0.00  0.00    +0.000 A 
ATOM     33  C   UNL     1     114.538 130.596 140.161  0.00  0.00    +0.000 A 
BRANCH  26  35
ATOM     34  O   UNL     1     111.647 129.109 135.120  0.00  0.00    +0.000 OA
ATOM     35  C   UNL     1     112.671 129.160 137.373  0.00  0.00    +0.000 A 
ATOM     36  C   UNL     1     113.071 128.804 136.746  0.00  0.00    +0.000 A 
ATOM     37  C   UNL     1     111.929 129.499 137.249  0.00  0.00    +0.000 A 
ATOM     38  C   UNL     1     112.730 128.787 135.995  0.00  0.00    +0.000 A 
ATOM     39  C   UNL     1     111.588 129.482 136.498  0.00  0.00    +0.000 A 
ATOM     40  C   UNL     1     111.989 129.126 135.871  0.00  0.00    +0.000 A 
ENDBRANCH  26  35
ENDBRANCH  20  25
ENDBRANCH   8  20
BRANCH   7  41
ATOM     41  C   UNL     1     110.283 128.252 140.077  0.00  0.00    +0.000 C 
BRANCH  41  42
ATOM     42  O   UNL     1     109.991 128.921 139.693  0.00  0.00    +0.000 OA
BRANCH  42  47
ATOM     43  O   UNL     1     109.867 129.679 140.899  0.00  0.00    +0.000 OA
ATOM     44  O   UNL     1     108.753 129.782 139.024  0.00  0.00    +0.000 OA
ATOM     45  O   UNL     1     108.009 130.971 139.895  0.00  0.00    +0.000 OA
ATOM     46  O   UNL     1     108.504 131.298 141.435  0.00  0.00    +0.000 OA
ATOM     47  C   UNL     1     109.619 129.516 140.129  0.00  0.00    +0.000 C 
ATOM     48  C   UNL     1     109.000 129.946 139.794  0.00  0.00    +0.000 C 
ATOM     49  C   UNL     1     108.628 130.540 140.230  0.00  0.00    +0.000 C 
ATOM     50  C   UNL     1     108.876 130.704 140.999  0.00  0.00    +0.000 C 
ATOM     51  C   UNL     1     109.495 130.273 141.333  0.00  0.00    +0.000 C 
ATOM     52  C   UNL     1     109.742 130.436 142.104  0.00  0.00    +0.000 C 
ENDBRANCH  42  47
ENDBRANCH  41  42
ENDBRANCH   7  41
TORSDOF 8
ENDMDL
MODEL 5
REMARK VINA RESULT:     -10.7      1.587      5.237
REMARK  Name = 5459192
REMARK  8 active torsions:
REMARK  status: ('A' for Active; 'I' for Inactive)
REMARK    1  A    between atoms: O_1  and  C_20
REMARK    2  A    between atoms: O_1  and  C_25
REMARK    3  A    between atoms: O_4  and  C_28
REMARK    4  A    between atoms: O_4  and  C_31
REMARK    5  A    between atoms: O_6  and  C_24
REMARK    6  A    between atoms: O_6  and  C_38
REMARK    7  A    between atoms: C_23  and  C_28
REMARK    8  A    between atoms: C_39  and  C_42
REMARK                            x       y       z     vdW  Elec       q    Type
REMARK                         _______ _______ _______ _____ _____    ______ ____
ROOT
ATOM      1  O   UNL     1     111.927 128.886 138.211  0.00  0.00    +0.000 OA
ATOM      2  O   UNL     1     112.476 127.682 136.119  0.00  0.00    +0.000 OA
ATOM      3  O   UNL     1     111.449 128.973 136.083  0.00  0.00    +0.000 OA
ATOM      4  C   UNL     1     112.624 127.838 137.532  0.00  0.00    +0.000 C 
ATOM      5  C   UNL     1     112.293 128.083 136.816  0.00  0.00    +0.000 C 
ATOM      6  C   UNL     1     111.780 128.728 136.798  0.00  0.00    +0.000 C 
ATOM      7  C   UNL     1     111.597 129.129 137.495  0.00  0.00    +0.000 C 
ATOM      8  C   UNL     1     112.441 128.240 138.229  0.00  0.00    +0.000 C 
ENDROOT
BRANCH   4   9
ATOM      9  O   UNL     1     113.137 127.194 137.550  0.00  0.00    +0.000 OA
BRANCH   9  14
ATOM     10  O   UNL     1     112.022 126.299 137.540  0.00  0.00    +0.000 OA
ATOM     11  O   UNL     1     114.165 125.912 137.400  0.00  0.00    +0.000 OA
ATOM     12  O   UNL     1     113.564 124.377 137.316  0.00  0.00    +0.000 OA
ATOM     13  O   UNL     1     111.935 124.125 137.382  0.00  0.00    +0.000 OA
ATOM     14  C   UNL     1     112.836 126.426 137.508  0.00  0.00    +0.000 C 
ATOM     15  C   UNL     1     113.351 125.785 137.433  0.00  0.00    +0.000 C 
ATOM     16  C   UNL     1     113.050 125.018 137.391  0.00  0.00    +0.000 C 
ATOM     17  C   UNL     1     112.236 124.892 137.424  0.00  0.00    +0.000 C 
ATOM     18  C   UNL     1     111.722 125.532 137.498  0.00  0.00    +0.000 C 
ATOM     19  C   UNL     1     110.907 125.406 137.531  0.00  0.00    +0.000 C 
ENDBRANCH   9  14
ENDBRANCH   4   9
BRANCH   8  20
ATOM     20  O   UNL     1     112.771 127.996 138.944  0.00  0.00    +0.000 OA
BRANCH  20  25
ATOM     21  O   UNL     1     113.024 129.076 140.824  0.00  0.00    +0.000 OA
ATOM     22  O   UNL     1     113.803 129.195 138.477  0.00  0.00    +0.000 OA
ATOM     23  O   UNL     1     114.592 130.368 138.769  0.00  0.00    +0.000 OA
ATOM     24  O   UNL     1     114.592 131.439 141.485  0.00  0.00    +0.000 OA
ATOM     25  C   UNL     1     113.027 128.556 139.493  0.00  0.00    +0.000 A 
ATOM     26  C   UNL     1     112.767 128.516 140.275  0.00  0.00    +0.000 A 
ATOM     27  C   UNL     1     113.543 129.155 139.260  0.00  0.00    +0.000 A 
ATOM     28  C   UNL     1     113.799 129.715 139.808  0.00  0.00    +0.000 A 
ATOM     29  C   UNL     1     113.540 129.676 140.590  0.00  0.00    +0.000 A 
ATOM     30  C   UNL     1     114.337 130.336 139.553  0.00  0.00    +0.000 A 
ATOM     31  C   UNL     1     113.800 130.254 141.171  0.00  0.00    +0.000 A 
ATOM     32  C   UNL     1     114.608 130.922 140.119  0.00  0.00    +0.000 A 
ATOM     33  C   UNL     1     114.337 130.880 140.934  0.00  0.00    +0.000 A 
BRANCH  26  35
ATOM     34  O   UNL     1     110.703 126.116 141.210  0.00  0.00    +0.000 OA
ATOM     35  C   UNL     1     112.251 127.917 140.509  0.00  0.00    +0.000 A 
ATOM     36  C   UNL     1     112.548 127.177 140.721  0.00  0.00    +0.000 A 
ATOM     37  C   UNL     1     111.438 128.056 140.530  0.00  0.00    +0.000 A 
ATOM     38  C   UNL     1     112.032 126.576 140.955  0.00  0.00    +0.000 A 
ATOM     39  C   UNL     1     110.923 127.457 140.764  0.00  0.00    +0.000 A 
ATOM     40  C   UNL     1     111.219 126.717 140.976  0.00  0.00    +0.000 A 
ENDBRANCH  26  35
ENDBRANCH  20  25
ENDBRANCH   8  20
BRANCH   7  41
ATOM     41  C   UNL     1     111.083 129.775 137.477  0.00  0.00    +0.000 C 
BRANCH  41  42
ATOM     42  O   UNL     1     110.483 129.841 138.040  0.00  0.00    +0.000 OA
BRANCH  42  47
ATOM     43  O   UNL     1     110.396 131.257 137.874  0.00  0.00    +0.000 OA
ATOM     44  O   UNL     1     108.946 129.816 138.639  0.00  0.00    +0.000 OA
ATOM     45  O   UNL     1     108.090 131.221 138.772  0.00  0.00    +0.000 OA
ATOM     46  O   UNL     1     108.772 132.650 138.306  0.00  0.00    +0.000 OA
ATOM     47  C   UNL     1     110.055 130.543 138.107  0.00  0.00    +0.000 C 
ATOM     48  C   UNL     1     109.286 130.531 138.406  0.00  0.00    +0.000 C 
ATOM     49  C   UNL     1     108.859 131.233 138.473  0.00  0.00    +0.000 C 
ATOM     50  C   UNL     1     109.199 131.947 138.240  0.00  0.00    +0.000 C 
ATOM     51  C   UNL     1     109.968 131.959 137.940  0.00  0.00    +0.000 C 
ATOM     52  C   UNL     1     110.309 132.674 137.707  0.00  0.00    +0.000 C 
ENDBRANCH  42  47
ENDBRANCH  41  42
ENDBRANCH   7  41
TORSDOF 8
ENDMDL
MODEL 6
REMARK VINA RESULT:     -10.7      1.389      3.754
REMARK  Name = 5459192
REMARK  8 active torsions:
REMARK  status: ('A' for Active; 'I' for Inactive)
REMARK    1  A    between atoms: O_1  and  C_20
REMARK    2  A    between atoms: O_1  and  C_25
REMARK    3  A    between atoms: O_4  and  C_28
REMARK    4  A    between atoms: O_4  and  C_31
REMARK    5  A    between atoms: O_6  and  C_24
REMARK    6  A    between atoms: O_6  and  C_38
REMARK    7  A    between atoms: C_23  and  C_28
REMARK    8  A    between atoms: C_39  and  C_42
REMARK                            x       y       z     vdW  Elec       q    Type
REMARK                         _______ _______ _______ _____ _____    ______ ____
ROOT
ATOM      1  O   UNL     1     111.291 128.411 138.056  0.00  0.00    +0.000 OA
ATOM      2  O   UNL     1     109.108 129.535 138.370  0.00  0.00    +0.000 OA
ATOM      3  O   UNL     1     110.142 129.370 139.645  0.00  0.00    +0.000 OA
ATOM      4  C   UNL     1     110.045 128.868 137.523  0.00  0.00    +0.000 C 
ATOM      5  C   UNL     1     109.835 129.160 138.266  0.00  0.00    +0.000 C 
ATOM      6  C   UNL     1     110.352 129.078 138.903  0.00  0.00    +0.000 C 
ATOM      7  C   UNL     1     111.080 128.704 138.798  0.00  0.00    +0.000 C 
ATOM      8  C   UNL     1     110.773 128.493 137.418  0.00  0.00    +0.000 C 
ENDROOT
BRANCH   4   9
ATOM      9  O   UNL     1     109.529 128.950 136.886  0.00  0.00    +0.000 OA
BRANCH   9  14
ATOM     10  O   UNL     1     109.962 130.299 136.698  0.00  0.00    +0.000 OA
ATOM     11  O   UNL     1     108.339 129.177 135.766  0.00  0.00    +0.000 OA
ATOM     12  O   UNL     1     108.177 130.638 135.018  0.00  0.00    +0.000 OA
ATOM     13  O   UNL     1     109.206 131.874 135.390  0.00  0.00    +0.000 OA
ATOM     14  C   UNL     1     109.448 129.681 136.512  0.00  0.00    +0.000 C 
ATOM     15  C   UNL     1     108.853 129.795 135.951  0.00  0.00    +0.000 C 
ATOM     16  C   UNL     1     108.772 130.525 135.577  0.00  0.00    +0.000 C 
ATOM     17  C   UNL     1     109.287 131.143 135.764  0.00  0.00    +0.000 C 
ATOM     18  C   UNL     1     109.881 131.030 136.324  0.00  0.00    +0.000 C 
ATOM     19  C   UNL     1     110.396 131.647 136.510  0.00  0.00    +0.000 C 
ENDBRANCH   9  14
ENDBRANCH   4   9
BRANCH   8  20
ATOM     20  O   UNL     1     110.984 128.201 136.676  0.00  0.00    +0.000 OA
BRANCH  20  25
ATOM     21  O   UNL     1     112.488 126.709 136.153  0.00  0.00    +0.000 OA
ATOM     22  O   UNL     1     110.325 126.845 137.347  0.00  0.00    +0.000 OA
ATOM     23  O   UNL     1     110.362 125.432 137.637  0.00  0.00    +0.000 OA
ATOM     24  O   UNL     1     112.632 123.852 136.699  0.00  0.00    +0.000 OA
ATOM     25  C   UNL     1     111.375 127.477 136.614  0.00  0.00    +0.000 A 
ATOM     26  C   UNL     1     112.097 127.433 136.215  0.00  0.00    +0.000 A 
ATOM     27  C   UNL     1     111.046 126.800 136.949  0.00  0.00    +0.000 A 
ATOM     28  C   UNL     1     111.437 126.077 136.886  0.00  0.00    +0.000 A 
ATOM     29  C   UNL     1     112.158 126.031 136.488  0.00  0.00    +0.000 A 
ATOM     30  C   UNL     1     111.084 125.377 137.240  0.00  0.00    +0.000 A 
ATOM     31  C   UNL     1     112.576 125.283 136.416  0.00  0.00    +0.000 A 
ATOM     32  C   UNL     1     111.487 124.621 137.178  0.00  0.00    +0.000 A 
ATOM     33  C   UNL     1     112.238 124.574 136.763  0.00  0.00    +0.000 A 
BRANCH  26  35
ATOM     34  O   UNL     1     113.416 130.144 134.873  0.00  0.00    +0.000 OA
ATOM     35  C   UNL     1     112.426 128.110 135.880  0.00  0.00    +0.000 A 
ATOM     36  C   UNL     1     113.023 128.518 136.277  0.00  0.00    +0.000 A 
ATOM     37  C   UNL     1     112.160 128.380 135.147  0.00  0.00    +0.000 A 
ATOM     38  C   UNL     1     113.353 129.197 135.942  0.00  0.00    +0.000 A 
ATOM     39  C   UNL     1     112.489 129.057 134.812  0.00  0.00    +0.000 A 
ATOM     40  C   UNL     1     113.086 129.465 135.209  0.00  0.00    +0.000 A 
ENDBRANCH  26  35
ENDBRANCH  20  25
ENDBRANCH   8  20
BRANCH   7  41
ATOM     41  C   UNL     1     111.597 128.621 139.436  0.00  0.00    +0.000 C 
BRANCH  41  42
ATOM     42  O   UNL     1     112.351 128.955 139.400  0.00  0.00    +0.000 OA
BRANCH  42  47
ATOM     43  O   UNL     1     113.013 127.784 139.882  0.00  0.00    +0.000 OA
ATOM     44  O   UNL     1     113.528 129.896 140.072  0.00  0.00    +0.000 OA
ATOM     45  O   UNL     1     114.779 129.195 140.889  0.00  0.00    +0.000 OA
ATOM     46  O   UNL     1     114.852 127.553 141.035  0.00  0.00    +0.000 OA
ATOM     47  C   UNL     1     112.977 128.605 139.809  0.00  0.00    +0.000 C 
ATOM     48  C   UNL     1     113.565 129.075 140.145  0.00  0.00    +0.000 C 
ATOM     49  C   UNL     1     114.190 128.725 140.553  0.00  0.00    +0.000 C 
ATOM     50  C   UNL     1     114.227 127.905 140.626  0.00  0.00    +0.000 C 
ATOM     51  C   UNL     1     113.638 127.434 140.291  0.00  0.00    +0.000 C 
ATOM     52  C   UNL     1     113.674 126.612 140.364  0.00  0.00    +0.000 C 
ENDBRANCH  42  47
ENDBRANCH  41  42
ENDBRANCH   7  41
TORSDOF 8
ENDMDL
MODEL 7
REMARK VINA RESULT:     -10.6      1.971      4.717
REMARK  Name = 5459192
REMARK  8 active torsions:
REMARK  status: ('A' for Active; 'I' for Inactive)
REMARK    1  A    between atoms: O_1  and  C_20
REMARK    2  A    between atoms: O_1  and  C_25
REMARK    3  A    between atoms: O_4  and  C_28
REMARK    4  A    between atoms: O_4  and  C_31
REMARK    5  A    between atoms: O_6  and  C_24
REMARK    6  A    between atoms: O_6  and  C_38
REMARK    7  A    between atoms: C_23  and  C_28
REMARK    8  A    between atoms: C_39  and  C_42
REMARK                            x       y       z     vdW  Elec       q    Type
REMARK                         _______ _______ _______ _____ _____    ______ ____
ROOT
ATOM      1  O   UNL     1     111.554 127.632 138.069  0.00  0.00    +0.000 OA
ATOM      2  O   UNL     1     109.095 127.359 138.143  0.00  0.00    +0.000 OA
ATOM      3  O   UNL     1     109.770 128.497 137.157  0.00  0.00    +0.000 OA
ATOM      4  C   UNL     1     110.397 126.971 138.588  0.00  0.00    +0.000 C 
ATOM      5  C   UNL     1     109.915 127.450 138.119  0.00  0.00    +0.000 C 
ATOM      6  C   UNL     1     110.252 128.018 137.626  0.00  0.00    +0.000 C 
ATOM      7  C   UNL     1     111.071 128.109 137.601  0.00  0.00    +0.000 C 
ATOM      8  C   UNL     1     111.216 127.062 138.563  0.00  0.00    +0.000 C 
ENDROOT
BRANCH   4   9
ATOM      9  O   UNL     1     110.060 126.403 139.080  0.00  0.00    +0.000 OA
BRANCH   9  14
ATOM     10  O   UNL     1     109.753 127.416 140.041  0.00  0.00    +0.000 OA
ATOM     11  O   UNL     1     109.453 125.255 140.098  0.00  0.00    +0.000 OA
ATOM     12  O   UNL     1     108.843 125.694 141.567  0.00  0.00    +0.000 OA
ATOM     13  O   UNL     1     108.839 127.281 142.018  0.00  0.00    +0.000 OA
ATOM     14  C   UNL     1     109.755 126.622 139.815  0.00  0.00    +0.000 C 
ATOM     15  C   UNL     1     109.451 126.048 140.324  0.00  0.00    +0.000 C 
ATOM     16  C   UNL     1     109.146 126.267 141.059  0.00  0.00    +0.000 C 
ATOM     17  C   UNL     1     109.145 127.061 141.284  0.00  0.00    +0.000 C 
ATOM     18  C   UNL     1     109.448 127.635 140.775  0.00  0.00    +0.000 C 
ATOM     19  C   UNL     1     109.446 128.429 141.000  0.00  0.00    +0.000 C 
ENDBRANCH   9  14
ENDBRANCH   4   9
BRANCH   8  20
ATOM     20  O   UNL     1     111.699 126.585 139.031  0.00  0.00    +0.000 OA
BRANCH  20  25
ATOM     21  O   UNL     1     113.830 126.164 138.815  0.00  0.00    +0.000 OA
ATOM     22  O   UNL     1     111.699 125.678 137.652  0.00  0.00    +0.000 OA
ATOM     23  O   UNL     1     112.392 124.921 136.638  0.00  0.00    +0.000 OA
ATOM     24  O   UNL     1     115.294 124.650 136.804  0.00  0.00    +0.000 OA
ATOM     25  C   UNL     1     112.410 126.293 138.729  0.00  0.00    +0.000 A 
ATOM     26  C   UNL     1     113.120 126.456 139.117  0.00  0.00    +0.000 A 
ATOM     27  C   UNL     1     112.409 125.840 138.040  0.00  0.00    +0.000 A 
ATOM     28  C   UNL     1     113.120 125.549 137.738  0.00  0.00    +0.000 A 
ATOM     29  C   UNL     1     113.830 125.710 138.125  0.00  0.00    +0.000 A 
ATOM     30  C   UNL     1     113.107 125.078 137.019  0.00  0.00    +0.000 A 
ATOM     31  C   UNL     1     114.576 125.412 137.820  0.00  0.00    +0.000 A 
ATOM     32  C   UNL     1     113.843 124.771 136.699  0.00  0.00    +0.000 A 
ATOM     33  C   UNL     1     114.583 124.940 137.103  0.00  0.00    +0.000 A 
BRANCH  26  35
ATOM     34  O   UNL     1     113.120 128.268 141.875  0.00  0.00    +0.000 OA
ATOM     35  C   UNL     1     113.120 126.908 139.806  0.00  0.00    +0.000 A 
ATOM     36  C   UNL     1     112.933 126.559 140.529  0.00  0.00    +0.000 A 
ATOM     37  C   UNL     1     113.307 127.712 139.772  0.00  0.00    +0.000 A 
ATOM     38  C   UNL     1     112.933 127.012 141.219  0.00  0.00    +0.000 A 
ATOM     39  C   UNL     1     113.307 128.164 140.461  0.00  0.00    +0.000 A 
ATOM     40  C   UNL     1     113.120 127.815 141.184  0.00  0.00    +0.000 A 
ENDBRANCH  26  35
ENDBRANCH  20  25
ENDBRANCH   8  20
BRANCH   7  41
ATOM     41  C   UNL     1     111.409 128.679 137.108  0.00  0.00    +0.000 C 
BRANCH  41  42
ATOM     42  O   UNL     1     111.880 129.275 137.429  0.00  0.00    +0.000 OA
BRANCH  42  47
ATOM     43  O   UNL     1     112.938 129.107 136.483  0.00  0.00    +0.000 OA
ATOM     44  O   UNL     1     112.247 130.878 137.555  0.00  0.00    +0.000 OA
ATOM     45  O   UNL     1     113.488 131.513 136.671  0.00  0.00    +0.000 OA
ATOM     46  O   UNL     1     114.362 130.543 135.662  0.00  0.00    +0.000 OA
ATOM     47  C   UNL     1     112.501 129.592 136.987  0.00  0.00    +0.000 C 
ATOM     48  C   UNL     1     112.684 130.394 137.050  0.00  0.00    +0.000 C 
ATOM     49  C   UNL     1     113.304 130.711 136.608  0.00  0.00    +0.000 C 
ATOM     50  C   UNL     1     113.741 130.227 136.104  0.00  0.00    +0.000 C 
ATOM     51  C   UNL     1     113.558 129.425 136.041  0.00  0.00    +0.000 C 
ATOM     52  C   UNL     1     113.995 128.940 135.536  0.00  0.00    +0.000 C 
ENDBRANCH  42  47
ENDBRANCH  41  42
ENDBRANCH   7  41
TORSDOF 8
ENDMDL
MODEL 8
REMARK VINA RESULT:     -10.6      1.862      5.695
REMARK  Name = 5459192
REMARK  8 active torsions:
REMARK  status: ('A' for Active; 'I' for Inactive)
REMARK    1  A    between atoms: O_1  and  C_20
REMARK    2  A    between atoms: O_1  and  C_25
REMARK    3  A    between atoms: O_4  and  C_28
REMARK    4  A    between atoms: O_4  and  C_31
REMARK    5  A    between atoms: O_6  and  C_24
REMARK    6  A    between atoms: O_6  and  C_38
REMARK    7  A    between atoms: C_23  and  C_28
REMARK    8  A    between atoms: C_39  and  C_42
REMARK                            x       y       z     vdW  Elec       q    Type
REMARK                         _______ _______ _______ _____ _____    ______ ____
ROOT
ATOM      1  O   UNL     1     111.365 127.977 138.257  0.00  0.00    +0.000 OA
ATOM      2  O   UNL     1     111.328 125.613 138.990  0.00  0.00    +0.000 OA
ATOM      3  O   UNL     1     111.143 126.824 140.097  0.00  0.00    +0.000 OA
ATOM      4  C   UNL     1     111.446 126.583 137.948  0.00  0.00    +0.000 C 
ATOM      5  C   UNL     1     111.341 126.401 138.746  0.00  0.00    +0.000 C 
ATOM      6  C   UNL     1     111.248 127.006 139.299  0.00  0.00    +0.000 C 
ATOM      7  C   UNL     1     111.260 127.794 139.054  0.00  0.00    +0.000 C 
ATOM      8  C   UNL     1     111.458 127.371 137.703  0.00  0.00    +0.000 C 
ENDROOT
BRANCH   4   9
ATOM      9  O   UNL     1     111.538 125.979 137.395  0.00  0.00    +0.000 OA
BRANCH   9  14
ATOM     10  O   UNL     1     112.921 125.865 137.737  0.00  0.00    +0.000 OA
ATOM     11  O   UNL     1     111.656 124.617 136.471  0.00  0.00    +0.000 OA
ATOM     12  O   UNL     1     113.097 123.823 136.352  0.00  0.00    +0.000 OA
ATOM     13  O   UNL     1     114.421 124.391 137.156  0.00  0.00    +0.000 OA
ATOM     14  C   UNL     1     112.259 125.582 137.335  0.00  0.00    +0.000 C 
ATOM     15  C   UNL     1     112.318 124.900 136.873  0.00  0.00    +0.000 C 
ATOM     16  C   UNL     1     113.039 124.503 136.813  0.00  0.00    +0.000 C 
ATOM     17  C   UNL     1     113.700 124.788 137.216  0.00  0.00    +0.000 C 
ATOM     18  C   UNL     1     113.642 125.468 137.677  0.00  0.00    +0.000 C 
ATOM     19  C   UNL     1     114.304 125.753 138.079  0.00  0.00    +0.000 C 
ENDBRANCH   9  14
ENDBRANCH   4   9
BRANCH   8  20
ATOM     20  O   UNL     1     111.563 127.555 136.906  0.00  0.00    +0.000 OA
BRANCH  20  25
ATOM     21  O   UNL     1     111.034 129.385 135.841  0.00  0.00    +0.000 OA
ATOM     22  O   UNL     1     109.915 127.468 136.938  0.00  0.00    +0.000 OA
ATOM     23  O   UNL     1     108.615 128.004 136.614  0.00  0.00    +0.000 OA
ATOM     24  O   UNL     1     108.445 130.526 135.152  0.00  0.00    +0.000 OA
ATOM     25  C   UNL     1     111.112 128.150 136.556  0.00  0.00    +0.000 A 
ATOM     26  C   UNL     1     111.485 128.789 136.191  0.00  0.00    +0.000 A 
ATOM     27  C   UNL     1     110.289 128.107 136.572  0.00  0.00    +0.000 A 
ATOM     28  C   UNL     1     109.837 128.703 136.223  0.00  0.00    +0.000 A 
ATOM     29  C   UNL     1     110.209 129.342 135.857  0.00  0.00    +0.000 A 
ATOM     30  C   UNL     1     108.980 128.647 136.246  0.00  0.00    +0.000 A 
ATOM     31  C   UNL     1     109.751 129.968 135.489  0.00  0.00    +0.000 A 
ATOM     32  C   UNL     1     108.504 129.264 135.883  0.00  0.00    +0.000 A 
ATOM     33  C   UNL     1     108.893 129.929 135.503  0.00  0.00    +0.000 A 
BRANCH  26  35
ATOM     34  O   UNL     1     114.780 128.963 136.127  0.00  0.00    +0.000 OA
ATOM     35  C   UNL     1     112.308 128.832 136.175  0.00  0.00    +0.000 A 
ATOM     36  C   UNL     1     112.707 129.297 136.727  0.00  0.00    +0.000 A 
ATOM     37  C   UNL     1     112.733 128.411 135.607  0.00  0.00    +0.000 A 
ATOM     38  C   UNL     1     113.532 129.341 136.711  0.00  0.00    +0.000 A 
ATOM     39  C   UNL     1     113.556 128.454 135.591  0.00  0.00    +0.000 A 
ATOM     40  C   UNL     1     113.955 128.919 136.143  0.00  0.00    +0.000 A 
ENDBRANCH  26  35
ENDBRANCH  20  25
ENDBRANCH   8  20
BRANCH   7  41
ATOM     41  C   UNL     1     111.167 128.399 139.608  0.00  0.00    +0.000 C 
BRANCH  41  42
ATOM     42  O   UNL     1     110.643 129.018 139.457  0.00  0.00    +0.000 OA
BRANCH  42  47
ATOM     43  O   UNL     1     111.266 129.816 140.465  0.00  0.00    +0.000 OA
ATOM     44  O   UNL     1     109.383 130.082 139.393  0.00  0.00    +0.000 OA
ATOM     45  O   UNL     1     109.376 131.412 140.370  0.00  0.00    +0.000 OA
ATOM     46  O   UNL     1     110.629 131.678 141.410  0.00  0.00    +0.000 OA
ATOM     47  C   UNL     1     110.639 129.683 139.945  0.00  0.00    +0.000 C 
ATOM     48  C   UNL     1     110.009 130.215 139.914  0.00  0.00    +0.000 C 
ATOM     49  C   UNL     1     110.006 130.880 140.402  0.00  0.00    +0.000 C 
ATOM     50  C   UNL     1     110.632 131.013 140.921  0.00  0.00    +0.000 C 
ATOM     51  C   UNL     1     111.262 130.481 140.953  0.00  0.00    +0.000 C 
ATOM     52  C   UNL     1     111.889 130.614 141.474  0.00  0.00    +0.000 C 
ENDBRANCH  42  47
ENDBRANCH  41  42
ENDBRANCH   7  41
TORSDOF 8
ENDMDL
MODEL 9
REMARK VINA RESULT:     -10.6      1.839      3.079
REMARK  Name = 5459192
REMARK  8 active torsions:
REMARK  status: ('A' for Active; 'I' for Inactive)
REMARK    1  A    between atoms: O_1  and  C_20
REMARK    2  A    between atoms: O_1  and  C_25
REMARK    3  A    between atoms: O_4  and  C_28
REMARK    4  A    between atoms: O_4  and  C_31
REMARK    5  A    between atoms: O_6  and  C_24
REMARK    6  A    between atoms: O_6  and  C_38
REMARK    7  A    between atoms: C_23  and  C_28
REMARK    8  A    between atoms: C_39  and  C_42
REMARK                            x       y       z     vdW  Elec       q    Type
REMARK                         _______ _______ _______ _____ _____    ______ ____
ROOT
ATOM      1  O   UNL     1     111.972 128.733 137.069  0.00  0.00    +0.000 OA
ATOM      2  O   UNL     1     111.250 129.676 134.898  0.00  0.00    +0.000 OA
ATOM      3  O   UNL     1     112.069 128.244 134.944  0.00  0.00    +0.000 OA
ATOM      4  C   UNL     1     111.321 129.764 136.322  0.00  0.00    +0.000 C 
ATOM      5  C   UNL     1     111.490 129.362 135.622  0.00  0.00    +0.000 C 
ATOM      6  C   UNL     1     111.900 128.647 135.644  0.00  0.00    +0.000 C 
ATOM      7  C   UNL     1     112.141 128.332 136.368  0.00  0.00    +0.000 C 
ATOM      8  C   UNL     1     111.562 129.449 137.046  0.00  0.00    +0.000 C 
ENDROOT
BRANCH   4   9
ATOM      9  O   UNL     1     110.912 130.479 136.299  0.00  0.00    +0.000 OA
BRANCH   9  14
ATOM     10  O   UNL     1     109.680 129.770 136.154  0.00  0.00    +0.000 OA
ATOM     11  O   UNL     1     110.097 131.911 136.216  0.00  0.00    +0.000 OA
ATOM     12  O   UNL     1     108.457 131.917 136.028  0.00  0.00    +0.000 OA
ATOM     13  O   UNL     1     107.633 130.491 135.924  0.00  0.00    +0.000 OA
ATOM     14  C   UNL     1     110.092 130.482 136.206  0.00  0.00    +0.000 C 
ATOM     15  C   UNL     1     109.684 131.199 136.164  0.00  0.00    +0.000 C 
ATOM     16  C   UNL     1     108.865 131.202 136.070  0.00  0.00    +0.000 C 
ATOM     17  C   UNL     1     108.453 130.488 136.018  0.00  0.00    +0.000 C 
ATOM     18  C   UNL     1     108.860 129.773 136.060  0.00  0.00    +0.000 C 
ATOM     19  C   UNL     1     108.449 129.059 136.008  0.00  0.00    +0.000 C 
ENDBRANCH   9  14
ENDBRANCH   4   9
BRANCH   8  20
ATOM     20  O   UNL     1     111.394 129.850 137.747  0.00  0.00    +0.000 OA
BRANCH  20  25
ATOM     21  O   UNL     1     112.354 129.692 139.700  0.00  0.00    +0.000 OA
ATOM     22  O   UNL     1     112.890 130.460 137.409  0.00  0.00    +0.000 OA
ATOM     23  O   UNL     1     114.226 130.826 137.813  0.00  0.00    +0.000 OA
ATOM     24  O   UNL     1     115.035 130.407 140.587  0.00  0.00    +0.000 OA
ATOM     25  C   UNL     1     111.964 129.899 138.342  0.00  0.00    +0.000 A 
ATOM     26  C   UNL     1     111.785 129.643 139.106  0.00  0.00    +0.000 A 
ATOM     27  C   UNL     1     112.711 130.204 138.173  0.00  0.00    +0.000 A 
ATOM     28  C   UNL     1     113.280 130.253 138.768  0.00  0.00    +0.000 A 
ATOM     29  C   UNL     1     113.103 129.997 139.532  0.00  0.00    +0.000 A 
ATOM     30  C   UNL     1     114.056 130.572 138.580  0.00  0.00    +0.000 A 
ATOM     31  C   UNL     1     113.687 130.043 140.159  0.00  0.00    +0.000 A 
ATOM     32  C   UNL     1     114.654 130.626 139.194  0.00  0.00    +0.000 A 
ATOM     33  C   UNL     1     114.467 130.359 139.990  0.00  0.00    +0.000 A 
BRANCH  26  35
ATOM     34  O   UNL     1     108.794 128.423 139.782  0.00  0.00    +0.000 OA
ATOM     35  C   UNL     1     111.037 129.339 139.274  0.00  0.00    +0.000 A 
ATOM     36  C   UNL     1     110.918 128.522 139.287  0.00  0.00    +0.000 A 
ATOM     37  C   UNL     1     110.409 129.849 139.431  0.00  0.00    +0.000 A 
ATOM     38  C   UNL     1     110.170 128.217 139.456  0.00  0.00    +0.000 A 
ATOM     39  C   UNL     1     109.661 129.545 139.600  0.00  0.00    +0.000 A 
ATOM     40  C   UNL     1     109.542 128.729 139.613  0.00  0.00    +0.000 A 
ENDBRANCH  26  35
ENDBRANCH  20  25
ENDBRANCH   8  20
BRANCH   7  41
ATOM     41  C   UNL     1     112.551 127.616 136.391  0.00  0.00    +0.000 C 
BRANCH  41  42
ATOM     42  O   UNL     1     112.250 126.983 136.826  0.00  0.00    +0.000 OA
BRANCH  42  47
ATOM     43  O   UNL     1     113.464 126.247 136.663  0.00  0.00    +0.000 OA
ATOM     44  O   UNL     1     111.465 125.595 137.252  0.00  0.00    +0.000 OA
ATOM     45  O   UNL     1     112.287 124.165 137.301  0.00  0.00    +0.000 OA
ATOM     46  O   UNL     1     113.893 124.123 136.925  0.00  0.00    +0.000 OA
ATOM     47  C   UNL     1     112.661 126.267 136.851  0.00  0.00    +0.000 C 
ATOM     48  C   UNL     1     112.269 125.573 137.064  0.00  0.00    +0.000 C 
ATOM     49  C   UNL     1     112.679 124.859 137.089  0.00  0.00    +0.000 C 
ATOM     50  C   UNL     1     113.482 124.838 136.900  0.00  0.00    +0.000 C 
ATOM     51  C   UNL     1     113.874 125.532 136.688  0.00  0.00    +0.000 C 
ATOM     52  C   UNL     1     114.677 125.511 136.499  0.00  0.00    +0.000 C 
ENDBRANCH  42  47
ENDBRANCH  41  42
ENDBRANCH   7  41
TORSDOF 8
ENDMDL
MODEL 10
REMARK VINA RESULT:     -10.6      1.118      4.747
REMARK  Name = 5459192
REMARK  8 active torsions:
REMARK  status: ('A' for Active; 'I' for Inactive)
REMARK    1  A    between atoms: O_1  and  C_20
REMARK    2  A    between atoms: O_1  and  C_25
REMARK    3  A    between atoms: O_4  and  C_28
REMARK    4  A    between atoms: O_4  and  C_31
REMARK    5  A    between atoms: O_6  and  C_24
REMARK    6  A    between atoms: O_6  and  C_38
REMARK    7  A    between atoms: C_23  and  C_28
REMARK    8  A    between atoms: C_39  and  C_42
REMARK                            x       y       z     vdW  Elec       q    Type
REMARK                         _______ _______ _______ _____ _____    ______ ____
ROOT
ATOM      1  O   UNL     1     111.087 129.078 137.751  0.00  0.00    +0.000 OA
ATOM      2  O   UNL     1     109.580 127.158 138.162  0.00  0.00    +0.000 OA
ATOM      3  O   UNL     1     108.949 128.657 137.884  0.00  0.00    +0.000 OA
ATOM      4  C   UNL     1     110.900 127.688 138.027  0.00  0.00    +0.000 C 
ATOM      5  C   UNL     1     110.083 127.798 138.025  0.00  0.00    +0.000 C 
ATOM      6  C   UNL     1     109.767 128.547 137.886  0.00  0.00    +0.000 C 
ATOM      7  C   UNL     1     110.269 129.187 137.749  0.00  0.00    +0.000 C 
ATOM      8  C   UNL     1     111.403 128.328 137.890  0.00  0.00    +0.000 C 
ENDROOT
BRANCH   4   9
ATOM      9  O   UNL     1     111.216 126.939 138.166  0.00  0.00    +0.000 OA
BRANCH   9  14
ATOM     10  O   UNL     1     111.002 126.580 136.799  0.00  0.00    +0.000 OA
ATOM     11  O   UNL     1     111.564 125.367 138.525  0.00  0.00    +0.000 OA
ATOM     12  O   UNL     1     111.524 124.222 137.337  0.00  0.00    +0.000 OA
ATOM     13  O   UNL     1     111.137 124.649 135.791  0.00  0.00    +0.000 OA
ATOM     14  C   UNL     1     111.196 126.367 137.572  0.00  0.00    +0.000 C 
ATOM     15  C   UNL     1     111.370 125.580 137.752  0.00  0.00    +0.000 C 
ATOM     16  C   UNL     1     111.351 125.007 137.158  0.00  0.00    +0.000 C 
ATOM     17  C   UNL     1     111.157 125.222 136.385  0.00  0.00    +0.000 C 
ATOM     18  C   UNL     1     110.983 126.007 136.206  0.00  0.00    +0.000 C 
ATOM     19  C   UNL     1     110.789 126.222 135.433  0.00  0.00    +0.000 C 
ENDBRANCH   9  14
ENDBRANCH   4   9
BRANCH   8  20
ATOM     20  O   UNL     1     112.220 128.219 137.892  0.00  0.00    +0.000 OA
BRANCH  20  25
ATOM     21  O   UNL     1     113.774 129.714 138.230  0.00  0.00    +0.000 OA
ATOM     22  O   UNL     1     112.042 128.493 139.509  0.00  0.00    +0.000 OA
ATOM     23  O   UNL     1     112.425 129.167 140.726  0.00  0.00    +0.000 OA
ATOM     24  O   UNL     1     114.601 131.112 140.647  0.00  0.00    +0.000 OA
ATOM     25  C   UNL     1     112.708 128.764 138.274  0.00  0.00    +0.000 A 
ATOM     26  C   UNL     1     113.286 129.170 137.847  0.00  0.00    +0.000 A 
ATOM     27  C   UNL     1     112.619 128.900 139.082  0.00  0.00    +0.000 A 
ATOM     28  C   UNL     1     113.107 129.444 139.465  0.00  0.00    +0.000 A 
ATOM     29  C   UNL     1     113.685 129.852 139.039  0.00  0.00    +0.000 A 
ATOM     30  C   UNL     1     113.005 129.579 140.308  0.00  0.00    +0.000 A 
ATOM     31  C   UNL     1     114.199 130.421 139.426  0.00  0.00    +0.000 A 
ATOM     32  C   UNL     1     113.510 130.144 140.712  0.00  0.00    +0.000 A 
ATOM     33  C   UNL     1     114.111 130.568 140.267  0.00  0.00    +0.000 A 
BRANCH  26  35
ATOM     34  O   UNL     1     113.642 128.624 134.612  0.00  0.00    +0.000 OA
ATOM     35  C   UNL     1     113.375 129.034 137.039  0.00  0.00    +0.000 A 
ATOM     36  C   UNL     1     113.076 129.576 136.494  0.00  0.00    +0.000 A 
ATOM     37  C   UNL     1     113.763 128.355 136.775  0.00  0.00    +0.000 A 
ATOM     38  C   UNL     1     113.165 129.439 135.685  0.00  0.00    +0.000 A 
ATOM     39  C   UNL     1     113.852 128.218 135.967  0.00  0.00    +0.000 A 
ATOM     40  C   UNL     1     113.553 128.760 135.422  0.00  0.00    +0.000 A 
ENDBRANCH  26  35
ENDBRANCH  20  25
ENDBRANCH   8  20
BRANCH   7  41
ATOM     41  C   UNL     1     109.954 129.937 137.609  0.00  0.00    +0.000 C 
BRANCH  41  42
ATOM     42  O   UNL     1     110.214 130.582 138.052  0.00  0.00    +0.000 OA
BRANCH  42  47
ATOM     43  O   UNL     1     109.988 131.447 136.937  0.00  0.00    +0.000 OA
ATOM     44  O   UNL     1     110.521 131.893 139.006  0.00  0.00    +0.000 OA
ATOM     45  O   UNL     1     110.448 133.413 138.369  0.00  0.00    +0.000 OA
ATOM     46  O   UNL     1     110.068 133.622 136.777  0.00  0.00    +0.000 OA
ATOM     47  C   UNL     1     110.178 131.343 137.733  0.00  0.00    +0.000 C 
ATOM     48  C   UNL     1     110.331 131.998 138.210  0.00  0.00    +0.000 C 
ATOM     49  C   UNL     1     110.295 132.758 137.892  0.00  0.00    +0.000 C 
ATOM     50  C   UNL     1     110.105 132.863 137.096  0.00  0.00    +0.000 C 
ATOM     51  C   UNL     1     109.951 132.207 136.619  0.00  0.00    +0.000 C 
ATOM     52  C   UNL     1     109.761 132.312 135.823  0.00  0.00    +0.000 C 
ENDBRANCH  42  47
ENDBRANCH  41  42
ENDBRANCH   7  41
TORSDOF 8
ENDMDL
