MODEL 1
REMARK VINA RESULT:     -10.2      0.000      0.000
REMARK  Name = 44258206
REMARK  8 active torsions:
REMARK  status: ('A' for Active; 'I' for Inactive)
REMARK    1  A    between atoms: O_3  and  C_28
REMARK    2  A    between atoms: O_3  and  C_31
REMARK    3  A    between atoms: O_4  and  C_27
REMARK    4  A    between atoms: O_4  and  C_32
REMARK    5  A    between atoms: O_16  and  C_34
REMARK    6  A    between atoms: C_25  and  C_29
REMARK    7  A    between atoms: C_26  and  C_30
REMARK    8  A    between atoms: C_39  and  C_42
REMARK                            x       y       z     vdW  Elec       q    Type
REMARK                         _______ _______ _______ _____ _____    ______ ____
ROOT
ATOM      1  O   UNL     1     110.189 128.498 136.548  0.00  0.00    +0.000 OA
ATOM      2  O   UNL     1     107.922 129.958 135.510  0.00  0.00    +0.000 OA
ATOM      3  O   UNL     1     107.849 128.536 135.741  0.00  0.00    +0.000 OA
ATOM      4  C   UNL     1     109.967 130.673 136.081  0.00  0.00    +0.000 A 
ATOM      5  C   UNL     1     110.316 129.929 136.334  0.00  0.00    +0.000 A 
ATOM      6  C   UNL     1     109.155 130.685 135.801  0.00  0.00    +0.000 A 
ATOM      7  C   UNL     1     109.848 129.209 136.304  0.00  0.00    +0.000 A 
ATOM      8  C   UNL     1     109.068 129.222 136.035  0.00  0.00    +0.000 A 
ATOM      9  C   UNL     1     108.703 129.955 135.777  0.00  0.00    +0.000 A 
ATOM     10  C   UNL     1     109.749 127.800 136.523  0.00  0.00    +0.000 A 
ATOM     11  C   UNL     1     108.628 128.523 136.010  0.00  0.00    +0.000 A 
ATOM     12  C   UNL     1     108.969 127.813 136.254  0.00  0.00    +0.000 A 
ENDROOT
BRANCH  10  16
ATOM     13  C   UNL     1     110.769 125.669 137.257  0.00  0.00    +0.000 A 
ATOM     14  C   UNL     1     110.311 126.109 137.783  0.00  0.00    +0.000 A 
ATOM     15  C   UNL     1     110.888 125.939 136.487  0.00  0.00    +0.000 A 
ATOM     16  C   UNL     1     110.089 127.090 136.768  0.00  0.00    +0.000 A 
ATOM     17  C   UNL     1     109.971 126.820 137.539  0.00  0.00    +0.000 A 
ATOM     18  C   UNL     1     110.548 126.649 136.242  0.00  0.00    +0.000 A 
BRANCH  14  19
ATOM     19  O   UNL     1     110.193 125.838 138.554  0.00  0.00    +0.000 OA
ATOM     20  C   UNL     1     109.620 126.191 139.031  0.00  0.00    +0.000 C 
ENDBRANCH  14  19
BRANCH  13  21
ATOM     21  O   UNL     1     111.110 124.958 137.502  0.00  0.00    +0.000 OA
BRANCH  21  30
ATOM     22  O   UNL     1     112.454 125.411 137.678  0.00  0.00    +0.000 OA
ATOM     23  O   UNL     1     113.291 123.326 136.639  0.00  0.00    +0.000 OA
ATOM     24  O   UNL     1     114.356 124.473 137.161  0.00  0.00    +0.000 OA
ATOM     25  O   UNL     1     111.668 123.569 136.809  0.00  0.00    +0.000 OA
ATOM     26  C   UNL     1     113.012 124.021 136.985  0.00  0.00    +0.000 C 
ATOM     27  C   UNL     1     113.545 124.595 137.246  0.00  0.00    +0.000 C 
ATOM     28  C   UNL     1     112.200 124.143 137.070  0.00  0.00    +0.000 C 
ATOM     29  C   UNL     1     113.266 125.289 137.593  0.00  0.00    +0.000 C 
ATOM     30  C   UNL     1     111.921 124.837 137.417  0.00  0.00    +0.000 C 
BRANCH  29  33
ATOM     31  O   UNL     1     114.104 126.415 137.323  0.00  0.00    +0.000 OA
ATOM     32  O   UNL     1     114.022 125.885 138.647  0.00  0.00    +0.000 OA
ATOM     33  C   UNL     1     113.797 125.863 137.854  0.00  0.00    +0.000 C 
ENDBRANCH  29  33
ENDBRANCH  21  30
ENDBRANCH  13  21
ENDBRANCH  10  16
BRANCH   4  34
ATOM     34  O   UNL     1     110.409 131.369 136.106  0.00  0.00    +0.000 OA
BRANCH  34  43
ATOM     35  O   UNL     1     110.250 131.557 137.514  0.00  0.00    +0.000 OA
ATOM     36  O   UNL     1     110.368 134.009 137.200  0.00  0.00    +0.000 OA
ATOM     37  O   UNL     1     110.170 133.379 138.712  0.00  0.00    +0.000 OA
ATOM     38  O   UNL     1     110.488 133.004 135.897  0.00  0.00    +0.000 OA
ATOM     39  C   UNL     1     110.329 133.192 137.305  0.00  0.00    +0.000 C 
ATOM     40  C   UNL     1     110.230 132.876 138.061  0.00  0.00    +0.000 C 
ATOM     41  C   UNL     1     110.389 132.688 136.653  0.00  0.00    +0.000 C 
ATOM     42  C   UNL     1     110.191 132.059 138.165  0.00  0.00    +0.000 C 
ATOM     43  C   UNL     1     110.349 131.871 136.757  0.00  0.00    +0.000 C 
BRANCH  42  46
ATOM     44  O   UNL     1     109.333 131.634 139.227  0.00  0.00    +0.000 OA
ATOM     45  O   UNL     1     110.751 131.539 139.372  0.00  0.00    +0.000 OA
ATOM     46  C   UNL     1     110.092 131.744 138.921  0.00  0.00    +0.000 C 
ENDBRANCH  42  46
ENDBRANCH  34  43
ENDBRANCH   4  34
TORSDOF 8
ENDMDL
MODEL 2
REMARK VINA RESULT:     -10.2      1.785      3.262
REMARK  Name = 44258206
REMARK  8 active torsions:
REMARK  status: ('A' for Active; 'I' for Inactive)
REMARK    1  A    between atoms: O_3  and  C_28
REMARK    2  A    between atoms: O_3  and  C_31
REMARK    3  A    between atoms: O_4  and  C_27
REMARK    4  A    between atoms: O_4  and  C_32
REMARK    5  A    between atoms: O_16  and  C_34
REMARK    6  A    between atoms: C_25  and  C_29
REMARK    7  A    between atoms: C_26  and  C_30
REMARK    8  A    between atoms: C_39  and  C_42
REMARK                            x       y       z     vdW  Elec       q    Type
REMARK                         _______ _______ _______ _____ _____    ______ ____
ROOT
ATOM      1  O   UNL     1     111.015 128.974 138.561  0.00  0.00    +0.000 OA
ATOM      2  O   UNL     1     110.863 131.772 139.262  0.00  0.00    +0.000 OA
ATOM      3  O   UNL     1     112.012 130.977 139.619  0.00  0.00    +0.000 OA
ATOM      4  C   UNL     1     109.404 130.472 138.167  0.00  0.00    +0.000 A 
ATOM      5  C   UNL     1     109.835 129.728 138.177  0.00  0.00    +0.000 A 
ATOM      6  C   UNL     1     109.750 131.167 138.535  0.00  0.00    +0.000 A 
ATOM      7  C   UNL     1     110.606 129.690 138.554  0.00  0.00    +0.000 A 
ATOM      8  C   UNL     1     110.938 130.358 138.907  0.00  0.00    +0.000 A 
ATOM      9  C   UNL     1     110.522 131.110 138.907  0.00  0.00    +0.000 A 
ATOM     10  C   UNL     1     111.756 128.925 138.920  0.00  0.00    +0.000 A 
ATOM     11  C   UNL     1     111.680 130.309 139.266  0.00  0.00    +0.000 A 
ATOM     12  C   UNL     1     112.088 129.593 139.272  0.00  0.00    +0.000 A 
ENDROOT
BRANCH  10  16
ATOM     13  C   UNL     1     112.983 126.776 138.939  0.00  0.00    +0.000 A 
ATOM     14  C   UNL     1     112.443 126.948 139.539  0.00  0.00    +0.000 A 
ATOM     15  C   UNL     1     113.115 127.321 138.334  0.00  0.00    +0.000 A 
ATOM     16  C   UNL     1     112.166 128.209 138.926  0.00  0.00    +0.000 A 
ATOM     17  C   UNL     1     112.034 127.664 139.532  0.00  0.00    +0.000 A 
ATOM     18  C   UNL     1     112.706 128.037 138.327  0.00  0.00    +0.000 A 
BRANCH  14  19
ATOM     19  O   UNL     1     112.311 126.403 140.144  0.00  0.00    +0.000 OA
ATOM     20  C   UNL     1     112.113 126.667 140.900  0.00  0.00    +0.000 C 
ENDBRANCH  14  19
BRANCH  13  21
ATOM     21  O   UNL     1     113.393 126.060 138.946  0.00  0.00    +0.000 OA
BRANCH  21  30
ATOM     22  O   UNL     1     112.743 125.384 137.866  0.00  0.00    +0.000 OA
ATOM     23  O   UNL     1     114.945 124.660 136.997  0.00  0.00    +0.000 OA
ATOM     24  O   UNL     1     113.563 124.226 136.207  0.00  0.00    +0.000 OA
ATOM     25  O   UNL     1     114.859 125.577 138.367  0.00  0.00    +0.000 OA
ATOM     26  C   UNL     1     114.211 124.902 137.287  0.00  0.00    +0.000 C 
ATOM     27  C   UNL     1     113.520 124.684 136.892  0.00  0.00    +0.000 C 
ATOM     28  C   UNL     1     114.168 125.360 137.972  0.00  0.00    +0.000 C 
ATOM     29  C   UNL     1     112.786 124.926 137.182  0.00  0.00    +0.000 C 
ATOM     30  C   UNL     1     113.434 125.601 138.261  0.00  0.00    +0.000 C 
BRANCH  29  33
ATOM     31  O   UNL     1     111.859 125.119 136.111  0.00  0.00    +0.000 OA
ATOM     32  O   UNL     1     111.639 124.082 137.070  0.00  0.00    +0.000 OA
ATOM     33  C   UNL     1     112.095 124.709 136.787  0.00  0.00    +0.000 C 
ENDBRANCH  29  33
ENDBRANCH  21  30
ENDBRANCH  13  21
ENDBRANCH  10  16
BRANCH   4  34
ATOM     34  O   UNL     1     108.663 130.518 137.808  0.00  0.00    +0.000 OA
BRANCH  34  43
ATOM     35  O   UNL     1     109.046 130.302 136.448  0.00  0.00    +0.000 OA
ATOM     36  O   UNL     1     107.541 132.131 135.733  0.00  0.00    +0.000 OA
ATOM     37  O   UNL     1     108.426 131.305 134.612  0.00  0.00    +0.000 OA
ATOM     38  O   UNL     1     107.659 131.737 137.330  0.00  0.00    +0.000 OA
ATOM     39  C   UNL     1     108.042 131.521 135.971  0.00  0.00    +0.000 C 
ATOM     40  C   UNL     1     108.485 131.108 135.411  0.00  0.00    +0.000 C 
ATOM     41  C   UNL     1     108.102 131.324 136.771  0.00  0.00    +0.000 C 
ATOM     42  C   UNL     1     108.987 130.498 135.650  0.00  0.00    +0.000 C 
ATOM     43  C   UNL     1     108.604 130.714 137.009  0.00  0.00    +0.000 C 
BRANCH  42  46
ATOM     44  O   UNL     1     109.149 129.372 134.785  0.00  0.00    +0.000 OA
ATOM     45  O   UNL     1     110.153 130.387 134.832  0.00  0.00    +0.000 OA
ATOM     46  C   UNL     1     109.430 130.086 135.089  0.00  0.00    +0.000 C 
ENDBRANCH  42  46
ENDBRANCH  34  43
ENDBRANCH   4  34
TORSDOF 8
ENDMDL
MODEL 3
REMARK VINA RESULT:     -10.2      7.184      8.950
REMARK  Name = 44258206
REMARK  8 active torsions:
REMARK  status: ('A' for Active; 'I' for Inactive)
REMARK    1  A    between atoms: O_3  and  C_28
REMARK    2  A    between atoms: O_3  and  C_31
REMARK    3  A    between atoms: O_4  and  C_27
REMARK    4  A    between atoms: O_4  and  C_32
REMARK    5  A    between atoms: O_16  and  C_34
REMARK    6  A    between atoms: C_25  and  C_29
REMARK    7  A    between atoms: C_26  and  C_30
REMARK    8  A    between atoms: C_39  and  C_42
REMARK                            x       y       z     vdW  Elec       q    Type
REMARK                         _______ _______ _______ _____ _____    ______ ____
ROOT
ATOM      1  O   UNL     1     104.403 129.108 142.845  0.00  0.00    +0.000 OA
ATOM      2  O   UNL     1     103.107 128.968 140.266  0.00  0.00    +0.000 OA
ATOM      3  O   UNL     1     104.073 127.975 140.668  0.00  0.00    +0.000 OA
ATOM      4  C   UNL     1     102.883 130.461 141.920  0.00  0.00    +0.000 A 
ATOM      5  C   UNL     1     103.438 130.134 142.489  0.00  0.00    +0.000 A 
ATOM      6  C   UNL     1     102.769 130.068 141.165  0.00  0.00    +0.000 A 
ATOM      7  C   UNL     1     103.871 129.418 142.295  0.00  0.00    +0.000 A 
ATOM      8  C   UNL     1     103.761 129.040 141.569  0.00  0.00    +0.000 A 
ATOM      9  C   UNL     1     103.211 129.353 140.989  0.00  0.00    +0.000 A 
ATOM     10  C   UNL     1     104.824 128.421 142.669  0.00  0.00    +0.000 A 
ATOM     11  C   UNL     1     104.183 128.352 141.394  0.00  0.00    +0.000 A 
ATOM     12  C   UNL     1     104.714 128.043 141.944  0.00  0.00    +0.000 A 
ENDROOT
BRANCH  10  16
ATOM     13  C   UNL     1     106.419 127.492 144.317  0.00  0.00    +0.000 A 
ATOM     14  C   UNL     1     106.669 127.654 143.548  0.00  0.00    +0.000 A 
ATOM     15  C   UNL     1     105.638 127.640 144.537  0.00  0.00    +0.000 A 
ATOM     16  C   UNL     1     105.356 128.111 143.219  0.00  0.00    +0.000 A 
ATOM     17  C   UNL     1     106.137 127.963 142.998  0.00  0.00    +0.000 A 
ATOM     18  C   UNL     1     105.106 127.949 143.988  0.00  0.00    +0.000 A 
BRANCH  14  19
ATOM     19  O   UNL     1     107.450 127.506 143.328  0.00  0.00    +0.000 OA
ATOM     20  C   UNL     1     107.821 127.990 142.773  0.00  0.00    +0.000 C 
ENDBRANCH  14  19
BRANCH  13  21
ATOM     21  O   UNL     1     106.951 127.182 144.867  0.00  0.00    +0.000 OA
BRANCH  21  30
ATOM     22  O   UNL     1     106.354 125.889 144.985  0.00  0.00    +0.000 OA
ATOM     23  O   UNL     1     106.860 125.877 147.407  0.00  0.00    +0.000 OA
ATOM     24  O   UNL     1     106.095 124.588 146.718  0.00  0.00    +0.000 OA
ATOM     25  O   UNL     1     107.288 127.174 146.481  0.00  0.00    +0.000 OA
ATOM     26  C   UNL     1     106.691 125.881 146.600  0.00  0.00    +0.000 C 
ATOM     27  C   UNL     1     106.309 125.236 146.255  0.00  0.00    +0.000 C 
ATOM     28  C   UNL     1     106.905 126.529 146.137  0.00  0.00    +0.000 C 
ATOM     29  C   UNL     1     106.140 125.240 145.448  0.00  0.00    +0.000 C 
ATOM     30  C   UNL     1     106.737 126.533 145.329  0.00  0.00    +0.000 C 
BRANCH  29  33
ATOM     31  O   UNL     1     106.196 124.014 144.715  0.00  0.00    +0.000 OA
ATOM     32  O   UNL     1     104.936 124.534 145.144  0.00  0.00    +0.000 OA
ATOM     33  C   UNL     1     105.758 124.596 145.102  0.00  0.00    +0.000 C 
ENDBRANCH  29  33
ENDBRANCH  21  30
ENDBRANCH  13  21
ENDBRANCH  10  16
BRANCH   4  34
ATOM     34  O   UNL     1     102.462 131.149 142.099  0.00  0.00    +0.000 OA
BRANCH  34  43
ATOM     35  O   UNL     1     103.497 132.000 141.602  0.00  0.00    +0.000 OA
ATOM     36  O   UNL     1     101.834 133.789 141.202  0.00  0.00    +0.000 OA
ATOM     37  O   UNL     1     103.422 134.043 140.839  0.00  0.00    +0.000 OA
ATOM     38  O   UNL     1     101.354 132.341 141.832  0.00  0.00    +0.000 OA
ATOM     39  C   UNL     1     102.388 133.192 141.335  0.00  0.00    +0.000 C 
ATOM     40  C   UNL     1     103.183 133.319 141.154  0.00  0.00    +0.000 C 
ATOM     41  C   UNL     1     102.148 132.468 141.651  0.00  0.00    +0.000 C 
ATOM     42  C   UNL     1     103.737 132.723 141.287  0.00  0.00    +0.000 C 
ATOM     43  C   UNL     1     102.702 131.872 141.784  0.00  0.00    +0.000 C 
BRANCH  42  46
ATOM     44  O   UNL     1     105.040 133.164 141.673  0.00  0.00    +0.000 OA
ATOM     45  O   UNL     1     104.817 132.664 140.354  0.00  0.00    +0.000 OA
ATOM     46  C   UNL     1     104.531 132.850 141.105  0.00  0.00    +0.000 C 
ENDBRANCH  42  46
ENDBRANCH  34  43
ENDBRANCH   4  34
TORSDOF 8
ENDMDL
MODEL 4
REMARK VINA RESULT:     -10.1      1.800      2.935
REMARK  Name = 44258206
REMARK  8 active torsions:
REMARK  status: ('A' for Active; 'I' for Inactive)
REMARK    1  A    between atoms: O_3  and  C_28
REMARK    2  A    between atoms: O_3  and  C_31
REMARK    3  A    between atoms: O_4  and  C_27
REMARK    4  A    between atoms: O_4  and  C_32
REMARK    5  A    between atoms: O_16  and  C_34
REMARK    6  A    between atoms: C_25  and  C_29
REMARK    7  A    between atoms: C_26  and  C_30
REMARK    8  A    between atoms: C_39  and  C_42
REMARK                            x       y       z     vdW  Elec       q    Type
REMARK                         _______ _______ _______ _____ _____    ______ ____
ROOT
ATOM      1  O   UNL     1     111.588 129.634 137.764  0.00  0.00    +0.000 OA
ATOM      2  O   UNL     1     113.089 131.886 136.754  0.00  0.00    +0.000 OA
ATOM      3  O   UNL     1     113.684 130.575 136.842  0.00  0.00    +0.000 OA
ATOM      4  C   UNL     1     110.980 131.768 137.498  0.00  0.00    +0.000 A 
ATOM      5  C   UNL     1     110.941 130.932 137.696  0.00  0.00    +0.000 A 
ATOM      6  C   UNL     1     111.707 132.094 137.178  0.00  0.00    +0.000 A 
ATOM      7  C   UNL     1     111.631 130.435 137.572  0.00  0.00    +0.000 A 
ATOM      8  C   UNL     1     112.329 130.749 137.264  0.00  0.00    +0.000 A 
ATOM      9  C   UNL     1     112.386 131.582 137.060  0.00  0.00    +0.000 A 
ATOM     10  C   UNL     1     112.244 129.147 137.648  0.00  0.00    +0.000 A 
ATOM     11  C   UNL     1     112.986 130.261 137.149  0.00  0.00    +0.000 A 
ATOM     12  C   UNL     1     112.942 129.461 137.341  0.00  0.00    +0.000 A 
ENDROOT
BRANCH  10  16
ATOM     13  C   UNL     1     112.116 126.743 138.225  0.00  0.00    +0.000 A 
ATOM     14  C   UNL     1     112.358 127.291 138.793  0.00  0.00    +0.000 A 
ATOM     15  C   UNL     1     111.917 126.997 137.466  0.00  0.00    +0.000 A 
ATOM     16  C   UNL     1     112.201 128.345 137.840  0.00  0.00    +0.000 A 
ATOM     17  C   UNL     1     112.400 128.093 138.601  0.00  0.00    +0.000 A 
ATOM     18  C   UNL     1     111.960 127.797 137.273  0.00  0.00    +0.000 A 
BRANCH  14  19
ATOM     19  O   UNL     1     112.557 127.038 139.552  0.00  0.00    +0.000 OA
ATOM     20  C   UNL     1     112.482 127.554 140.192  0.00  0.00    +0.000 C 
ENDBRANCH  14  19
BRANCH  13  21
ATOM     21  O   UNL     1     112.073 125.942 138.417  0.00  0.00    +0.000 OA
BRANCH  21  30
ATOM     22  O   UNL     1     113.193 125.421 137.696  0.00  0.00    +0.000 OA
ATOM     23  O   UNL     1     111.773 123.596 136.815  0.00  0.00    +0.000 OA
ATOM     24  O   UNL     1     113.364 123.683 136.387  0.00  0.00    +0.000 OA
ATOM     25  O   UNL     1     111.128 124.725 137.830  0.00  0.00    +0.000 OA
ATOM     26  C   UNL     1     112.246 124.204 137.109  0.00  0.00    +0.000 C 
ATOM     27  C   UNL     1     113.042 124.248 136.895  0.00  0.00    +0.000 C 
ATOM     28  C   UNL     1     111.924 124.769 137.616  0.00  0.00    +0.000 C 
ATOM     29  C   UNL     1     113.515 124.856 137.189  0.00  0.00    +0.000 C 
ATOM     30  C   UNL     1     112.397 125.378 137.910  0.00  0.00    +0.000 C 
BRANCH  29  33
ATOM     31  O   UNL     1     114.891 124.612 137.485  0.00  0.00    +0.000 OA
ATOM     32  O   UNL     1     114.525 125.234 136.252  0.00  0.00    +0.000 OA
ATOM     33  C   UNL     1     114.310 124.901 136.975  0.00  0.00    +0.000 C 
ENDBRANCH  29  33
ENDBRANCH  21  30
ENDBRANCH  13  21
ENDBRANCH  10  16
BRANCH   4  34
ATOM     34  O   UNL     1     110.322 132.253 137.614  0.00  0.00    +0.000 OA
BRANCH  34  43
ATOM     35  O   UNL     1     109.689 132.088 136.344  0.00  0.00    +0.000 OA
ATOM     36  O   UNL     1     107.492 131.886 137.466  0.00  0.00    +0.000 OA
ATOM     37  O   UNL     1     107.592 131.788 135.822  0.00  0.00    +0.000 OA
ATOM     38  O   UNL     1     108.858 132.119 138.362  0.00  0.00    +0.000 OA
ATOM     39  C   UNL     1     108.224 131.954 137.092  0.00  0.00    +0.000 C 
ATOM     40  C   UNL     1     108.275 131.904 136.270  0.00  0.00    +0.000 C 
ATOM     41  C   UNL     1     108.908 132.070 137.540  0.00  0.00    +0.000 C 
ATOM     42  C   UNL     1     109.007 131.971 135.896  0.00  0.00    +0.000 C 
ATOM     43  C   UNL     1     109.640 132.137 137.166  0.00  0.00    +0.000 C 
BRANCH  42  46
ATOM     44  O   UNL     1     109.032 132.608 134.617  0.00  0.00    +0.000 OA
ATOM     45  O   UNL     1     109.129 131.186 134.709  0.00  0.00    +0.000 OA
ATOM     46  C   UNL     1     109.056 131.922 135.074  0.00  0.00    +0.000 C 
ENDBRANCH  42  46
ENDBRANCH  34  43
ENDBRANCH   4  34
TORSDOF 8
ENDMDL
MODEL 5
REMARK VINA RESULT:     -10.0      1.922      3.608
REMARK  Name = 44258206
REMARK  8 active torsions:
REMARK  status: ('A' for Active; 'I' for Inactive)
REMARK    1  A    between atoms: O_3  and  C_28
REMARK    2  A    between atoms: O_3  and  C_31
REMARK    3  A    between atoms: O_4  and  C_27
REMARK    4  A    between atoms: O_4  and  C_32
REMARK    5  A    between atoms: O_16  and  C_34
REMARK    6  A    between atoms: C_25  and  C_29
REMARK    7  A    between atoms: C_26  and  C_30
REMARK    8  A    between atoms: C_39  and  C_42
REMARK                            x       y       z     vdW  Elec       q    Type
REMARK                         _______ _______ _______ _____ _____    ______ ____
ROOT
ATOM      1  O   UNL     1     111.898 128.949 138.783  0.00  0.00    +0.000 OA
ATOM      2  O   UNL     1     112.510 130.797 140.918  0.00  0.00    +0.000 OA
ATOM      3  O   UNL     1     113.501 129.869 140.431  0.00  0.00    +0.000 OA
ATOM      4  C   UNL     1     110.616 130.496 139.761  0.00  0.00    +0.000 A 
ATOM      5  C   UNL     1     110.864 129.863 139.236  0.00  0.00    +0.000 A 
ATOM      6  C   UNL     1     111.172 130.815 140.333  0.00  0.00    +0.000 A 
ATOM      7  C   UNL     1     111.665 129.557 139.290  0.00  0.00    +0.000 A 
ATOM      8  C   UNL     1     112.199 129.864 139.839  0.00  0.00    +0.000 A 
ATOM      9  C   UNL     1     111.969 130.497 140.372  0.00  0.00    +0.000 A 
ATOM     10  C   UNL     1     112.665 128.647 138.826  0.00  0.00    +0.000 A 
ATOM     11  C   UNL     1     112.967 129.562 139.881  0.00  0.00    +0.000 A 
ATOM     12  C   UNL     1     113.199 128.954 139.375  0.00  0.00    +0.000 A 
ENDROOT
BRANCH  10  16
ATOM     13  C   UNL     1     113.364 126.824 137.306  0.00  0.00    +0.000 A 
ATOM     14  C   UNL     1     113.370 127.605 137.042  0.00  0.00    +0.000 A 
ATOM     15  C   UNL     1     113.124 126.650 138.076  0.00  0.00    +0.000 A 
ATOM     16  C   UNL     1     112.898 128.039 138.319  0.00  0.00    +0.000 A 
ATOM     17  C   UNL     1     113.138 128.214 137.549  0.00  0.00    +0.000 A 
ATOM     18  C   UNL     1     112.891 127.257 138.583  0.00  0.00    +0.000 A 
BRANCH  14  19
ATOM     19  O   UNL     1     113.610 127.779 136.272  0.00  0.00    +0.000 OA
ATOM     20  C   UNL     1     113.816 128.552 136.068  0.00  0.00    +0.000 C 
ENDBRANCH  14  19
BRANCH  13  21
ATOM     21  O   UNL     1     113.596 126.216 136.799  0.00  0.00    +0.000 OA
BRANCH  21  30
ATOM     22  O   UNL     1     112.326 125.669 136.438  0.00  0.00    +0.000 OA
ATOM     23  O   UNL     1     113.196 123.387 136.834  0.00  0.00    +0.000 OA
ATOM     24  O   UNL     1     111.636 123.601 136.341  0.00  0.00    +0.000 OA
ATOM     25  O   UNL     1     114.176 124.694 137.062  0.00  0.00    +0.000 OA
ATOM     26  C   UNL     1     112.906 124.147 136.702  0.00  0.00    +0.000 C 
ATOM     27  C   UNL     1     112.126 124.255 136.456  0.00  0.00    +0.000 C 
ATOM     28  C   UNL     1     113.396 124.801 136.816  0.00  0.00    +0.000 C 
ATOM     29  C   UNL     1     111.836 125.015 136.324  0.00  0.00    +0.000 C 
ATOM     30  C   UNL     1     113.106 125.562 136.685  0.00  0.00    +0.000 C 
BRANCH  29  33
ATOM     31  O   UNL     1     110.872 125.116 135.274  0.00  0.00    +0.000 OA
ATOM     32  O   UNL     1     110.460 125.238 136.637  0.00  0.00    +0.000 OA
ATOM     33  C   UNL     1     111.056 125.123 136.078  0.00  0.00    +0.000 C 
ENDBRANCH  29  33
ENDBRANCH  21  30
ENDBRANCH  13  21
ENDBRANCH  10  16
BRANCH   4  34
ATOM     34  O   UNL     1     109.848 130.796 139.717  0.00  0.00    +0.000 OA
BRANCH  34  43
ATOM     35  O   UNL     1     110.105 131.834 138.768  0.00  0.00    +0.000 OA
ATOM     36  O   UNL     1     107.937 131.368 137.671  0.00  0.00    +0.000 OA
ATOM     37  O   UNL     1     108.916 132.560 137.089  0.00  0.00    +0.000 OA
ATOM     38  O   UNL     1     108.402 130.486 138.985  0.00  0.00    +0.000 OA
ATOM     39  C   UNL     1     108.659 131.523 138.037  0.00  0.00    +0.000 C 
ATOM     40  C   UNL     1     109.150 132.120 137.746  0.00  0.00    +0.000 C 
ATOM     41  C   UNL     1     108.893 131.082 138.694  0.00  0.00    +0.000 C 
ATOM     42  C   UNL     1     109.873 132.275 138.112  0.00  0.00    +0.000 C 
ATOM     43  C   UNL     1     109.616 131.237 139.060  0.00  0.00    +0.000 C 
BRANCH  42  46
ATOM     44  O   UNL     1     110.343 133.623 138.159  0.00  0.00    +0.000 OA
ATOM     45  O   UNL     1     110.872 132.715 137.191  0.00  0.00    +0.000 OA
ATOM     46  C   UNL     1     110.362 132.871 137.821  0.00  0.00    +0.000 C 
ENDBRANCH  42  46
ENDBRANCH  34  43
ENDBRANCH   4  34
TORSDOF 8
ENDMDL
MODEL 6
REMARK VINA RESULT:     -10.0      7.097     10.770
REMARK  Name = 44258206
REMARK  8 active torsions:
REMARK  status: ('A' for Active; 'I' for Inactive)
REMARK    1  A    between atoms: O_3  and  C_28
REMARK    2  A    between atoms: O_3  and  C_31
REMARK    3  A    between atoms: O_4  and  C_27
REMARK    4  A    between atoms: O_4  and  C_32
REMARK    5  A    between atoms: O_16  and  C_34
REMARK    6  A    between atoms: C_25  and  C_29
REMARK    7  A    between atoms: C_26  and  C_30
REMARK    8  A    between atoms: C_39  and  C_42
REMARK                            x       y       z     vdW  Elec       q    Type
REMARK                         _______ _______ _______ _____ _____    ______ ____
ROOT
ATOM      1  O   UNL     1     104.979 127.601 142.450  0.00  0.00    +0.000 OA
ATOM      2  O   UNL     1     107.839 127.269 142.688  0.00  0.00    +0.000 OA
ATOM      3  O   UNL     1     107.271 128.506 142.210  0.00  0.00    +0.000 OA
ATOM      4  C   UNL     1     106.172 125.844 143.145  0.00  0.00    +0.000 A 
ATOM      5  C   UNL     1     105.498 126.336 142.937  0.00  0.00    +0.000 A 
ATOM      6  C   UNL     1     106.967 126.158 143.062  0.00  0.00    +0.000 A 
ATOM      7  C   UNL     1     105.629 127.134 142.648  0.00  0.00    +0.000 A 
ATOM      8  C   UNL     1     106.393 127.435 142.568  0.00  0.00    +0.000 A 
ATOM      9  C   UNL     1     107.079 126.959 142.771  0.00  0.00    +0.000 A 
ATOM     10  C   UNL     1     105.092 128.370 142.171  0.00  0.00    +0.000 A 
ATOM     11  C   UNL     1     106.507 128.205 142.290  0.00  0.00    +0.000 A 
ATOM     12  C   UNL     1     105.856 128.671 142.092  0.00  0.00    +0.000 A 
ENDROOT
BRANCH  10  16
ATOM     13  C   UNL     1     103.141 129.771 141.576  0.00  0.00    +0.000 A 
ATOM     14  C   UNL     1     103.400 129.183 141.058  0.00  0.00    +0.000 A 
ATOM     15  C   UNL     1     103.533 129.892 142.292  0.00  0.00    +0.000 A 
ATOM     16  C   UNL     1     104.442 128.837 141.973  0.00  0.00    +0.000 A 
ATOM     17  C   UNL     1     104.051 128.715 141.257  0.00  0.00    +0.000 A 
ATOM     18  C   UNL     1     104.183 129.425 142.491  0.00  0.00    +0.000 A 
BRANCH  14  19
ATOM     19  O   UNL     1     103.008 129.062 140.342  0.00  0.00    +0.000 OA
ATOM     20  C   UNL     1     103.046 128.326 139.971  0.00  0.00    +0.000 C 
ENDBRANCH  14  19
BRANCH  13  21
ATOM     21  O   UNL     1     102.491 130.238 141.377  0.00  0.00    +0.000 OA
BRANCH  21  30
ATOM     22  O   UNL     1     103.230 131.383 140.947  0.00  0.00    +0.000 OA
ATOM     23  O   UNL     1     101.494 132.863 141.909  0.00  0.00    +0.000 OA
ATOM     24  O   UNL     1     102.811 133.515 141.158  0.00  0.00    +0.000 OA
ATOM     25  O   UNL     1     101.335 131.224 142.018  0.00  0.00    +0.000 OA
ATOM     26  C   UNL     1     102.073 132.369 141.588  0.00  0.00    +0.000 C 
ATOM     27  C   UNL     1     102.732 132.696 141.213  0.00  0.00    +0.000 C 
ATOM     28  C   UNL     1     101.993 131.550 141.643  0.00  0.00    +0.000 C 
ATOM     29  C   UNL     1     103.310 132.203 140.893  0.00  0.00    +0.000 C 
ATOM     30  C   UNL     1     102.572 131.057 141.322  0.00  0.00    +0.000 C 
BRANCH  29  33
ATOM     31  O   UNL     1     104.596 132.821 140.965  0.00  0.00    +0.000 OA
ATOM     32  O   UNL     1     103.999 132.560 139.694  0.00  0.00    +0.000 OA
ATOM     33  C   UNL     1     103.969 132.528 140.518  0.00  0.00    +0.000 C 
ENDBRANCH  29  33
ENDBRANCH  21  30
ENDBRANCH  13  21
ENDBRANCH  10  16
BRANCH   4  34
ATOM     34  O   UNL     1     106.056 125.076 143.423  0.00  0.00    +0.000 OA
BRANCH  34  43
ATOM     35  O   UNL     1     106.346 125.350 144.795  0.00  0.00    +0.000 OA
ATOM     36  O   UNL     1     104.597 123.742 145.487  0.00  0.00    +0.000 OA
ATOM     37  O   UNL     1     105.471 124.552 146.627  0.00  0.00    +0.000 OA
ATOM     38  O   UNL     1     104.890 124.004 143.884  0.00  0.00    +0.000 OA
ATOM     39  C   UNL     1     105.180 124.278 145.256  0.00  0.00    +0.000 C 
ATOM     40  C   UNL     1     105.617 124.683 145.826  0.00  0.00    +0.000 C 
ATOM     41  C   UNL     1     105.327 124.409 144.454  0.00  0.00    +0.000 C 
ATOM     42  C   UNL     1     106.200 125.219 145.596  0.00  0.00    +0.000 C 
ATOM     43  C   UNL     1     105.910 124.945 144.224  0.00  0.00    +0.000 C 
BRANCH  42  46
ATOM     44  O   UNL     1     106.354 126.334 146.476  0.00  0.00    +0.000 OA
ATOM     45  O   UNL     1     107.357 125.319 146.427  0.00  0.00    +0.000 OA
ATOM     46  C   UNL     1     106.637 125.624 146.166  0.00  0.00    +0.000 C 
ENDBRANCH  42  46
ENDBRANCH  34  43
ENDBRANCH   4  34
TORSDOF 8
ENDMDL
MODEL 7
REMARK VINA RESULT:     -10.0      1.733      7.078
REMARK  Name = 44258206
REMARK  8 active torsions:
REMARK  status: ('A' for Active; 'I' for Inactive)
REMARK    1  A    between atoms: O_3  and  C_28
REMARK    2  A    between atoms: O_3  and  C_31
REMARK    3  A    between atoms: O_4  and  C_27
REMARK    4  A    between atoms: O_4  and  C_32
REMARK    5  A    between atoms: O_16  and  C_34
REMARK    6  A    between atoms: C_25  and  C_29
REMARK    7  A    between atoms: C_26  and  C_30
REMARK    8  A    between atoms: C_39  and  C_42
REMARK                            x       y       z     vdW  Elec       q    Type
REMARK                         _______ _______ _______ _____ _____    ______ ____
ROOT
ATOM      1  O   UNL     1     111.737 128.687 138.640  0.00  0.00    +0.000 OA
ATOM      2  O   UNL     1     114.065 127.916 140.167  0.00  0.00    +0.000 OA
ATOM      3  O   UNL     1     113.747 129.305 139.945  0.00  0.00    +0.000 OA
ATOM      4  C   UNL     1     112.507 126.656 139.165  0.00  0.00    +0.000 A 
ATOM      5  C   UNL     1     112.010 127.274 138.834  0.00  0.00    +0.000 A 
ATOM      6  C   UNL     1     113.205 126.871 139.618  0.00  0.00    +0.000 A 
ATOM      7  C   UNL     1     112.218 128.098 138.960  0.00  0.00    +0.000 A 
ATOM      8  C   UNL     1     112.888 128.304 139.395  0.00  0.00    +0.000 A 
ATOM      9  C   UNL     1     113.396 127.700 139.733  0.00  0.00    +0.000 A 
ATOM     10  C   UNL     1     111.926 129.482 138.755  0.00  0.00    +0.000 A 
ATOM     11  C   UNL     1     113.077 129.100 139.510  0.00  0.00    +0.000 A 
ATOM     12  C   UNL     1     112.596 129.688 139.190  0.00  0.00    +0.000 A 
ENDROOT
BRANCH  10  16
ATOM     13  C   UNL     1     110.484 131.249 137.795  0.00  0.00    +0.000 A 
ATOM     14  C   UNL     1     110.361 130.993 138.569  0.00  0.00    +0.000 A 
ATOM     15  C   UNL     1     111.086 130.917 137.341  0.00  0.00    +0.000 A 
ATOM     16  C   UNL     1     111.445 130.071 138.434  0.00  0.00    +0.000 A 
ATOM     17  C   UNL     1     110.842 130.404 138.890  0.00  0.00    +0.000 A 
ATOM     18  C   UNL     1     111.567 130.328 137.660  0.00  0.00    +0.000 A 
BRANCH  14  19
ATOM     19  O   UNL     1     109.759 131.325 139.024  0.00  0.00    +0.000 OA
ATOM     20  C   UNL     1     109.819 131.334 139.847  0.00  0.00    +0.000 C 
ENDBRANCH  14  19
BRANCH  13  21
ATOM     21  O   UNL     1     110.003 131.838 137.475  0.00  0.00    +0.000 OA
BRANCH  21  30
ATOM     22  O   UNL     1     109.210 130.992 136.639  0.00  0.00    +0.000 OA
ATOM     23  O   UNL     1     109.196 132.739 134.886  0.00  0.00    +0.000 OA
ATOM     24  O   UNL     1     108.408 131.311 134.634  0.00  0.00    +0.000 OA
ATOM     25  O   UNL     1     109.993 133.002 136.307  0.00  0.00    +0.000 OA
ATOM     26  C   UNL     1     109.200 132.157 135.470  0.00  0.00    +0.000 C 
ATOM     27  C   UNL     1     108.807 131.443 135.344  0.00  0.00    +0.000 C 
ATOM     28  C   UNL     1     109.599 132.288 136.181  0.00  0.00    +0.000 C 
ATOM     29  C   UNL     1     108.811 130.860 135.929  0.00  0.00    +0.000 C 
ATOM     30  C   UNL     1     109.604 131.706 136.765  0.00  0.00    +0.000 C 
BRANCH  29  33
ATOM     31  O   UNL     1     107.666 130.028 136.121  0.00  0.00    +0.000 OA
ATOM     32  O   UNL     1     108.777 129.551 135.360  0.00  0.00    +0.000 OA
ATOM     33  C   UNL     1     108.418 130.147 135.803  0.00  0.00    +0.000 C 
ENDBRANCH  29  33
ENDBRANCH  21  30
ENDBRANCH  13  21
ENDBRANCH  10  16
BRANCH   4  34
ATOM     34  O   UNL     1     112.315 125.862 139.048  0.00  0.00    +0.000 OA
BRANCH  34  43
ATOM     35  O   UNL     1     113.301 125.565 138.058  0.00  0.00    +0.000 OA
ATOM     36  O   UNL     1     111.654 124.183 136.832  0.00  0.00    +0.000 OA
ATOM     37  O   UNL     1     113.189 124.347 136.251  0.00  0.00    +0.000 OA
ATOM     38  O   UNL     1     111.217 124.941 138.231  0.00  0.00    +0.000 OA
ATOM     39  C   UNL     1     112.203 124.644 137.241  0.00  0.00    +0.000 C 
ATOM     40  C   UNL     1     112.971 124.726 136.950  0.00  0.00    +0.000 C 
ATOM     41  C   UNL     1     111.985 125.023 137.941  0.00  0.00    +0.000 C 
ATOM     42  C   UNL     1     113.520 125.186 137.359  0.00  0.00    +0.000 C 
ATOM     43  C   UNL     1     112.534 125.483 138.349  0.00  0.00    +0.000 C 
BRANCH  42  46
ATOM     44  O   UNL     1     114.457 125.850 136.508  0.00  0.00    +0.000 OA
ATOM     45  O   UNL     1     114.885 124.768 137.337  0.00  0.00    +0.000 OA
ATOM     46  C   UNL     1     114.287 125.268 137.068  0.00  0.00    +0.000 C 
ENDBRANCH  42  46
ENDBRANCH  34  43
ENDBRANCH   4  34
TORSDOF 8
ENDMDL
MODEL 8
REMARK VINA RESULT:      -9.9      2.879      6.786
REMARK  Name = 44258206
REMARK  8 active torsions:
REMARK  status: ('A' for Active; 'I' for Inactive)
REMARK    1  A    between atoms: O_3  and  C_28
REMARK    2  A    between atoms: O_3  and  C_31
REMARK    3  A    between atoms: O_4  and  C_27
REMARK    4  A    between atoms: O_4  and  C_32
REMARK    5  A    between atoms: O_16  and  C_34
REMARK    6  A    between atoms: C_25  and  C_29
REMARK    7  A    between atoms: C_26  and  C_30
REMARK    8  A    between atoms: C_39  and  C_42
REMARK                            x       y       z     vdW  Elec       q    Type
REMARK                         _______ _______ _______ _____ _____    ______ ____
ROOT
ATOM      1  O   UNL     1     112.963 128.593 138.166  0.00  0.00    +0.000 OA
ATOM      2  O   UNL     1     112.945 128.791 135.284  0.00  0.00    +0.000 OA
ATOM      3  O   UNL     1     112.561 129.910 136.109  0.00  0.00    +0.000 OA
ATOM      4  C   UNL     1     113.491 127.074 136.614  0.00  0.00    +0.000 A 
ATOM      5  C   UNL     1     113.359 127.436 137.382  0.00  0.00    +0.000 A 
ATOM      6  C   UNL     1     113.352 127.531 135.900  0.00  0.00    +0.000 A 
ATOM      7  C   UNL     1     113.089 128.250 137.426  0.00  0.00    +0.000 A 
ATOM      8  C   UNL     1     112.955 128.689 136.740  0.00  0.00    +0.000 A 
ATOM      9  C   UNL     1     113.082 128.344 135.964  0.00  0.00    +0.000 A 
ATOM     10  C   UNL     1     112.704 129.374 138.220  0.00  0.00    +0.000 A 
ATOM     11  C   UNL     1     112.695 129.471 136.795  0.00  0.00    +0.000 A 
ATOM     12  C   UNL     1     112.570 129.813 137.535  0.00  0.00    +0.000 A 
ENDROOT
BRANCH  10  16
ATOM     13  C   UNL     1     112.328 130.401 140.440  0.00  0.00    +0.000 A 
ATOM     14  C   UNL     1     113.097 130.266 140.173  0.00  0.00    +0.000 A 
ATOM     15  C   UNL     1     111.685 130.193 139.968  0.00  0.00    +0.000 A 
ATOM     16  C   UNL     1     112.578 129.716 138.961  0.00  0.00    +0.000 A 
ATOM     17  C   UNL     1     113.222 129.924 139.433  0.00  0.00    +0.000 A 
ATOM     18  C   UNL     1     111.809 129.851 139.228  0.00  0.00    +0.000 A 
BRANCH  14  19
ATOM     19  O   UNL     1     113.740 130.474 140.646  0.00  0.00    +0.000 OA
ATOM     20  C   UNL     1     114.486 130.573 140.308  0.00  0.00    +0.000 C 
ENDBRANCH  14  19
BRANCH  13  21
ATOM     21  O   UNL     1     112.203 130.743 141.181  0.00  0.00    +0.000 OA
BRANCH  21  30
ATOM     22  O   UNL     1     111.660 129.641 141.911  0.00  0.00    +0.000 OA
ATOM     23  O   UNL     1     109.848 131.098 142.759  0.00  0.00    +0.000 OA
ATOM     24  O   UNL     1     109.908 129.511 143.207  0.00  0.00    +0.000 OA
ATOM     25  O   UNL     1     110.995 131.714 141.746  0.00  0.00    +0.000 OA
ATOM     26  C   UNL     1     110.452 130.612 142.477  0.00  0.00    +0.000 C 
ATOM     27  C   UNL     1     110.482 129.819 142.700  0.00  0.00    +0.000 C 
ATOM     28  C   UNL     1     111.025 130.920 141.970  0.00  0.00    +0.000 C 
ATOM     29  C   UNL     1     111.086 129.333 142.418  0.00  0.00    +0.000 C 
ATOM     30  C   UNL     1     111.629 130.434 141.687  0.00  0.00    +0.000 C 
BRANCH  29  33
ATOM     31  O   UNL     1     110.648 127.983 142.253  0.00  0.00    +0.000 OA
ATOM     32  O   UNL     1     111.618 128.304 143.253  0.00  0.00    +0.000 OA
ATOM     33  C   UNL     1     111.117 128.540 142.641  0.00  0.00    +0.000 C 
ENDBRANCH  29  33
ENDBRANCH  21  30
ENDBRANCH  13  21
ENDBRANCH  10  16
BRANCH   4  34
ATOM     34  O   UNL     1     113.751 126.292 136.562  0.00  0.00    +0.000 OA
BRANCH  34  43
ATOM     35  O   UNL     1     112.428 125.790 136.365  0.00  0.00    +0.000 OA
ATOM     36  O   UNL     1     113.137 123.582 137.231  0.00  0.00    +0.000 OA
ATOM     37  O   UNL     1     111.578 123.816 136.746  0.00  0.00    +0.000 OA
ATOM     38  O   UNL     1     114.224 124.820 137.139  0.00  0.00    +0.000 OA
ATOM     39  C   UNL     1     112.900 124.318 136.942  0.00  0.00    +0.000 C 
ATOM     40  C   UNL     1     112.121 124.436 136.700  0.00  0.00    +0.000 C 
ATOM     41  C   UNL     1     113.444 124.938 136.896  0.00  0.00    +0.000 C 
ATOM     42  C   UNL     1     111.884 125.172 136.411  0.00  0.00    +0.000 C 
ATOM     43  C   UNL     1     113.208 125.674 136.608  0.00  0.00    +0.000 C 
BRANCH  42  46
ATOM     44  O   UNL     1     110.538 125.546 136.710  0.00  0.00    +0.000 OA
ATOM     45  O   UNL     1     110.892 125.147 135.384  0.00  0.00    +0.000 OA
ATOM     46  C   UNL     1     111.105 125.288 136.169  0.00  0.00    +0.000 C 
ENDBRANCH  42  46
ENDBRANCH  34  43
ENDBRANCH   4  34
TORSDOF 8
ENDMDL
MODEL 9
REMARK VINA RESULT:      -9.7      2.888      6.037
REMARK  Name = 44258206
REMARK  8 active torsions:
REMARK  status: ('A' for Active; 'I' for Inactive)
REMARK    1  A    between atoms: O_3  and  C_28
REMARK    2  A    between atoms: O_3  and  C_31
REMARK    3  A    between atoms: O_4  and  C_27
REMARK    4  A    between atoms: O_4  and  C_32
REMARK    5  A    between atoms: O_16  and  C_34
REMARK    6  A    between atoms: C_25  and  C_29
REMARK    7  A    between atoms: C_26  and  C_30
REMARK    8  A    between atoms: C_39  and  C_42
REMARK                            x       y       z     vdW  Elec       q    Type
REMARK                         _______ _______ _______ _____ _____    ______ ____
ROOT
ATOM      1  O   UNL     1     112.272 129.028 138.611  0.00  0.00    +0.000 OA
ATOM      2  O   UNL     1     113.781 126.872 139.803  0.00  0.00    +0.000 OA
ATOM      3  O   UNL     1     112.999 126.661 138.610  0.00  0.00    +0.000 OA
ATOM      4  C   UNL     1     113.569 129.012 140.432  0.00  0.00    +0.000 A 
ATOM      5  C   UNL     1     113.043 129.294 139.812  0.00  0.00    +0.000 A 
ATOM      6  C   UNL     1     113.821 128.190 140.431  0.00  0.00    +0.000 A 
ATOM      7  C   UNL     1     112.777 128.751 139.202  0.00  0.00    +0.000 A 
ATOM      8  C   UNL     1     113.019 127.963 139.202  0.00  0.00    +0.000 A 
ATOM      9  C   UNL     1     113.544 127.662 139.812  0.00  0.00    +0.000 A 
ATOM     10  C   UNL     1     112.010 128.516 138.019  0.00  0.00    +0.000 A 
ATOM     11  C   UNL     1     112.757 127.450 138.610  0.00  0.00    +0.000 A 
ATOM     12  C   UNL     1     112.253 127.727 138.019  0.00  0.00    +0.000 A 
ENDROOT
BRANCH  10  16
ATOM     13  C   UNL     1     110.498 129.345 136.245  0.00  0.00    +0.000 A 
ATOM     14  C   UNL     1     111.307 129.279 136.099  0.00  0.00    +0.000 A 
ATOM     15  C   UNL     1     110.193 129.136 136.982  0.00  0.00    +0.000 A 
ATOM     16  C   UNL     1     111.506 128.792 137.428  0.00  0.00    +0.000 A 
ATOM     17  C   UNL     1     111.812 129.002 136.690  0.00  0.00    +0.000 A 
ATOM     18  C   UNL     1     110.697 128.859 137.573  0.00  0.00    +0.000 A 
BRANCH  14  19
ATOM     19  O   UNL     1     111.612 129.488 135.361  0.00  0.00    +0.000 OA
ATOM     20  C   UNL     1     112.304 129.134 135.085  0.00  0.00    +0.000 C 
ENDBRANCH  14  19
BRANCH  13  21
ATOM     21  O   UNL     1     109.994 129.622 135.653  0.00  0.00    +0.000 OA
BRANCH  21  30
ATOM     22  O   UNL     1     109.725 130.956 136.092  0.00  0.00    +0.000 OA
ATOM     23  O   UNL     1     107.302 130.576 135.760  0.00  0.00    +0.000 OA
ATOM     24  O   UNL     1     107.841 132.036 136.309  0.00  0.00    +0.000 OA
ATOM     25  O   UNL     1     108.379 129.369 135.432  0.00  0.00    +0.000 OA
ATOM     26  C   UNL     1     108.110 130.702 135.870  0.00  0.00    +0.000 C 
ATOM     27  C   UNL     1     108.379 131.432 136.145  0.00  0.00    +0.000 C 
ATOM     28  C   UNL     1     108.648 130.099 135.706  0.00  0.00    +0.000 C 
ATOM     29  C   UNL     1     109.187 131.559 136.256  0.00  0.00    +0.000 C 
ATOM     30  C   UNL     1     109.456 130.226 135.817  0.00  0.00    +0.000 C 
BRANCH  29  33
ATOM     31  O   UNL     1     109.734 132.854 135.997  0.00  0.00    +0.000 OA
ATOM     32  O   UNL     1     109.449 132.452 137.339  0.00  0.00    +0.000 OA
ATOM     33  C   UNL     1     109.457 132.288 136.530  0.00  0.00    +0.000 C 
ENDBRANCH  29  33
ENDBRANCH  21  30
ENDBRANCH  13  21
ENDBRANCH  10  16
BRANCH   4  34
ATOM     34  O   UNL     1     113.829 129.526 141.022  0.00  0.00    +0.000 OA
BRANCH  34  43
ATOM     35  O   UNL     1     112.756 129.321 141.944  0.00  0.00    +0.000 OA
ATOM     36  O   UNL     1     112.762 131.736 142.486  0.00  0.00    +0.000 OA
ATOM     37  O   UNL     1     111.688 130.726 143.227  0.00  0.00    +0.000 OA
ATOM     38  O   UNL     1     113.832 131.136 141.384  0.00  0.00    +0.000 OA
ATOM     39  C   UNL     1     112.760 130.931 142.305  0.00  0.00    +0.000 C 
ATOM     40  C   UNL     1     112.223 130.425 142.675  0.00  0.00    +0.000 C 
ATOM     41  C   UNL     1     113.296 130.630 141.754  0.00  0.00    +0.000 C 
ATOM     42  C   UNL     1     112.221 129.620 142.494  0.00  0.00    +0.000 C 
ATOM     43  C   UNL     1     113.294 129.825 141.573  0.00  0.00    +0.000 C 
BRANCH  42  46
ATOM     44  O   UNL     1     110.929 129.013 142.549  0.00  0.00    +0.000 OA
ATOM     45  O   UNL     1     111.903 128.714 143.551  0.00  0.00    +0.000 OA
ATOM     46  C   UNL     1     111.684 129.116 142.865  0.00  0.00    +0.000 C 
ENDBRANCH  42  46
ENDBRANCH  34  43
ENDBRANCH   4  34
TORSDOF 8
ENDMDL
MODEL 10
REMARK VINA RESULT:      -9.7      3.323      6.052
REMARK  Name = 44258206
REMARK  8 active torsions:
REMARK  status: ('A' for Active; 'I' for Inactive)
REMARK    1  A    between atoms: O_3  and  C_28
REMARK    2  A    between atoms: O_3  and  C_31
REMARK    3  A    between atoms: O_4  and  C_27
REMARK    4  A    between atoms: O_4  and  C_32
REMARK    5  A    between atoms: O_16  and  C_34
REMARK    6  A    between atoms: C_25  and  C_29
REMARK    7  A    between atoms: C_26  and  C_30
REMARK    8  A    between atoms: C_39  and  C_42
REMARK                            x       y       z     vdW  Elec       q    Type
REMARK                         _______ _______ _______ _____ _____    ______ ____
ROOT
ATOM      1  O   UNL     1     112.650 129.750 139.037  0.00  0.00    +0.000 OA
ATOM      2  O   UNL     1     115.034 130.654 140.396  0.00  0.00    +0.000 OA
ATOM      3  O   UNL     1     114.819 130.942 138.999  0.00  0.00    +0.000 OA
ATOM      4  C   UNL     1     113.287 129.479 141.162  0.00  0.00    +0.000 A 
ATOM      5  C   UNL     1     112.816 129.432 140.444  0.00  0.00    +0.000 A 
ATOM      6  C   UNL     1     114.039 129.893 141.148  0.00  0.00    +0.000 A 
ATOM      7  C   UNL     1     113.105 129.799 139.723  0.00  0.00    +0.000 A 
ATOM      8  C   UNL     1     113.828 130.196 139.711  0.00  0.00    +0.000 A 
ATOM      9  C   UNL     1     114.312 130.254 140.418  0.00  0.00    +0.000 A 
ATOM     10  C   UNL     1     112.917 130.099 138.338  0.00  0.00    +0.000 A 
ATOM     11  C   UNL     1     114.096 130.545 139.011  0.00  0.00    +0.000 A 
ATOM     12  C   UNL     1     113.640 130.496 138.326  0.00  0.00    +0.000 A 
ENDROOT
BRANCH  10  16
ATOM     13  C   UNL     1     111.551 129.952 136.280  0.00  0.00    +0.000 A 
ATOM     14  C   UNL     1     112.260 129.533 136.335  0.00  0.00    +0.000 A 
ATOM     15  C   UNL     1     111.298 130.419 136.911  0.00  0.00    +0.000 A 
ATOM     16  C   UNL     1     112.462 130.050 137.652  0.00  0.00    +0.000 A 
ATOM     17  C   UNL     1     112.716 129.582 137.021  0.00  0.00    +0.000 A 
ATOM     18  C   UNL     1     111.753 130.468 137.597  0.00  0.00    +0.000 A 
BRANCH  14  19
ATOM     19  O   UNL     1     112.513 129.066 135.704  0.00  0.00    +0.000 OA
ATOM     20  C   UNL     1     113.299 128.818 135.664  0.00  0.00    +0.000 C 
ENDBRANCH  14  19
BRANCH  13  21
ATOM     21  O   UNL     1     111.096 129.903 135.594  0.00  0.00    +0.000 OA
BRANCH  21  30
ATOM     22  O   UNL     1     110.084 128.969 135.978  0.00  0.00    +0.000 OA
ATOM     23  O   UNL     1     108.344 130.496 135.102  0.00  0.00    +0.000 OA
ATOM     24  O   UNL     1     107.912 129.053 135.778  0.00  0.00    +0.000 OA
ATOM     25  O   UNL     1     109.936 130.920 135.011  0.00  0.00    +0.000 OA
ATOM     26  C   UNL     1     108.924 129.987 135.394  0.00  0.00    +0.000 C 
ATOM     27  C   UNL     1     108.708 129.265 135.732  0.00  0.00    +0.000 C 
ATOM     28  C   UNL     1     109.720 130.199 135.348  0.00  0.00    +0.000 C 
ATOM     29  C   UNL     1     109.288 128.756 136.023  0.00  0.00    +0.000 C 
ATOM     30  C   UNL     1     110.300 129.690 135.640  0.00  0.00    +0.000 C 
BRANCH  29  33
ATOM     31  O   UNL     1     108.979 127.368 135.885  0.00  0.00    +0.000 OA
ATOM     32  O   UNL     1     108.952 127.982 137.175  0.00  0.00    +0.000 OA
ATOM     33  C   UNL     1     109.073 128.035 136.361  0.00  0.00    +0.000 C 
ENDBRANCH  29  33
ENDBRANCH  21  30
ENDBRANCH  13  21
ENDBRANCH  10  16
BRANCH   4  34
ATOM     34  O   UNL     1     113.017 129.130 141.859  0.00  0.00    +0.000 OA
BRANCH  34  43
ATOM     35  O   UNL     1     112.414 130.319 142.374  0.00  0.00    +0.000 OA
ATOM     36  O   UNL     1     110.677 128.955 143.490  0.00  0.00    +0.000 OA
ATOM     37  O   UNL     1     110.654 130.598 143.633  0.00  0.00    +0.000 OA
ATOM     38  O   UNL     1     111.858 128.221 142.603  0.00  0.00    +0.000 OA
ATOM     39  C   UNL     1     111.256 129.409 143.118  0.00  0.00    +0.000 C 
ATOM     40  C   UNL     1     111.245 130.231 143.189  0.00  0.00    +0.000 C 
ATOM     41  C   UNL     1     111.847 129.042 142.674  0.00  0.00    +0.000 C 
ATOM     42  C   UNL     1     111.824 130.686 142.817  0.00  0.00    +0.000 C 
ATOM     43  C   UNL     1     112.426 129.497 142.302  0.00  0.00    +0.000 C 
BRANCH  42  46
ATOM     44  O   UNL     1     111.366 131.961 142.363  0.00  0.00    +0.000 OA
ATOM     45  O   UNL     1     112.246 131.875 143.486  0.00  0.00    +0.000 OA
ATOM     46  C   UNL     1     111.812 131.507 142.889  0.00  0.00    +0.000 C 
ENDBRANCH  42  46
ENDBRANCH  34  43
ENDBRANCH   4  34
TORSDOF 8
ENDMDL
