MODEL 1
REMARK VINA RESULT:      -9.7      0.000      0.000
REMARK  Name = 42607843
REMARK  4 active torsions:
REMARK  status: ('A' for Active; 'I' for Inactive)
REMARK    1  A    between atoms: O_2  and  C_15
REMARK    2  A    between atoms: O_2  and  C_17
REMARK    3  A    between atoms: C_14  and  C_16
REMARK    4  A    between atoms: C_18  and  C_26
REMARK                            x       y       z     vdW  Elec       q    Type
REMARK                         _______ _______ _______ _____ _____    ______ ____
ROOT
ATOM      1  O   UNL     1     112.425 126.413 136.280  0.00  0.00    +0.000 OA
ATOM      2  O   UNL     1     109.893 125.548 135.189  0.00  0.00    +0.000 OA
ATOM      3  O   UNL     1     110.842 124.596 135.712  0.00  0.00    +0.000 OA
ATOM      4  C   UNL     1     110.751 127.606 135.402  0.00  0.00    +0.000 A 
ATOM      5  C   UNL     1     112.622 125.628 136.441  0.00  0.00    +0.000 C 
ATOM      6  C   UNL     1     112.094 125.023 136.251  0.00  0.00    +0.000 C 
ATOM      7  C   UNL     1     111.699 126.592 135.929  0.00  0.00    +0.000 A 
ATOM      8  C   UNL     1     111.172 125.987 135.740  0.00  0.00    +0.000 A 
ATOM      9  C   UNL     1     111.505 127.413 135.767  0.00  0.00    +0.000 A 
ATOM     10  C   UNL     1     111.369 125.202 135.901  0.00  0.00    +0.000 C 
ATOM     11  C   UNL     1     110.202 126.975 135.205  0.00  0.00    +0.000 A 
ATOM     12  C   UNL     1     110.414 126.160 135.375  0.00  0.00    +0.000 A 
ENDROOT
BRANCH   5  14
ATOM     13  O   UNL     1     112.787 125.706 138.081  0.00  0.00    +0.000 OA
ATOM     14  C   UNL     1     113.347 125.448 136.791  0.00  0.00    +0.000 A 
ATOM     15  C   UNL     1     113.429 125.487 137.612  0.00  0.00    +0.000 A 
ATOM     16  C   UNL     1     113.989 125.230 136.322  0.00  0.00    +0.000 A 
ATOM     17  C   UNL     1     114.154 125.308 137.962  0.00  0.00    +0.000 A 
ATOM     18  C   UNL     1     114.714 125.051 136.673  0.00  0.00    +0.000 A 
ATOM     19  C   UNL     1     114.797 125.090 137.492  0.00  0.00    +0.000 A 
ENDBRANCH   5  14
BRANCH   4  20
ATOM     20  O   UNL     1     110.556 128.392 135.242  0.00  0.00    +0.000 OA
BRANCH  20  29
ATOM     21  O   UNL     1     110.165 128.786 136.559  0.00  0.00    +0.000 OA
ATOM     22  O   UNL     1     108.259 130.050 135.614  0.00  0.00    +0.000 OA
ATOM     23  O   UNL     1     108.504 130.023 137.245  0.00  0.00    +0.000 OA
ATOM     24  O   UNL     1     109.285 129.235 134.612  0.00  0.00    +0.000 OA
ATOM     25  C   UNL     1     108.894 129.629 135.929  0.00  0.00    +0.000 C 
ATOM     26  C   UNL     1     109.017 129.615 136.744  0.00  0.00    +0.000 C 
ATOM     27  C   UNL     1     109.408 129.221 135.428  0.00  0.00    +0.000 C 
ATOM     28  C   UNL     1     109.653 129.193 137.059  0.00  0.00    +0.000 C 
ATOM     29  C   UNL     1     110.044 128.799 135.743  0.00  0.00    +0.000 C 
BRANCH  28  31
ATOM     30  O   UNL     1     110.507 129.397 138.186  0.00  0.00    +0.000 OA
ATOM     31  C   UNL     1     109.775 129.180 137.874  0.00  0.00    +0.000 C 
ENDBRANCH  28  31
ENDBRANCH  20  29
ENDBRANCH   4  20
TORSDOF 4
ENDMDL
MODEL 2
REMARK VINA RESULT:      -9.4      1.516      1.732
REMARK  Name = 42607843
REMARK  4 active torsions:
REMARK  status: ('A' for Active; 'I' for Inactive)
REMARK    1  A    between atoms: O_2  and  C_15
REMARK    2  A    between atoms: O_2  and  C_17
REMARK    3  A    between atoms: C_14  and  C_16
REMARK    4  A    between atoms: C_18  and  C_26
REMARK                            x       y       z     vdW  Elec       q    Type
REMARK                         _______ _______ _______ _____ _____    ______ ____
ROOT
ATOM      1  O   UNL     1     111.837 125.905 136.904  0.00  0.00    +0.000 OA
ATOM      2  O   UNL     1     109.459 126.118 138.530  0.00  0.00    +0.000 OA
ATOM      3  O   UNL     1     110.626 125.417 139.007  0.00  0.00    +0.000 OA
ATOM      4  C   UNL     1     109.884 126.905 136.477  0.00  0.00    +0.000 A 
ATOM      5  C   UNL     1     112.206 125.474 137.502  0.00  0.00    +0.000 C 
ATOM      6  C   UNL     1     111.803 125.312 138.203  0.00  0.00    +0.000 C 
ATOM      7  C   UNL     1     111.063 126.174 137.006  0.00  0.00    +0.000 A 
ATOM      8  C   UNL     1     110.660 126.011 137.707  0.00  0.00    +0.000 A 
ATOM      9  C   UNL     1     110.689 126.622 136.376  0.00  0.00    +0.000 A 
ATOM     10  C   UNL     1     111.029 125.580 138.305  0.00  0.00    +0.000 C 
ATOM     11  C   UNL     1     109.464 126.735 137.207  0.00  0.00    +0.000 A 
ATOM     12  C   UNL     1     109.854 126.285 137.826  0.00  0.00    +0.000 A 
ENDROOT
BRANCH   5  14
ATOM     13  O   UNL     1     112.485 124.033 136.748  0.00  0.00    +0.000 OA
ATOM     14  C   UNL     1     112.980 125.205 137.400  0.00  0.00    +0.000 A 
ATOM     15  C   UNL     1     113.119 124.484 137.023  0.00  0.00    +0.000 A 
ATOM     16  C   UNL     1     113.613 125.657 137.674  0.00  0.00    +0.000 A 
ATOM     17  C   UNL     1     113.892 124.216 136.920  0.00  0.00    +0.000 A 
ATOM     18  C   UNL     1     114.386 125.388 137.572  0.00  0.00    +0.000 A 
ATOM     19  C   UNL     1     114.526 124.668 137.195  0.00  0.00    +0.000 A 
ENDBRANCH   5  14
BRANCH   4  20
ATOM     20  O   UNL     1     109.517 127.336 135.876  0.00  0.00    +0.000 OA
BRANCH  20  29
ATOM     21  O   UNL     1     110.147 128.603 136.075  0.00  0.00    +0.000 OA
ATOM     22  O   UNL     1     107.964 129.734 135.798  0.00  0.00    +0.000 OA
ATOM     23  O   UNL     1     109.322 130.622 136.088  0.00  0.00    +0.000 OA
ATOM     24  O   UNL     1     108.061 128.090 135.692  0.00  0.00    +0.000 OA
ATOM     25  C   UNL     1     108.691 129.357 135.890  0.00  0.00    +0.000 C 
ATOM     26  C   UNL     1     109.371 129.801 136.035  0.00  0.00    +0.000 C 
ATOM     27  C   UNL     1     108.740 128.534 135.837  0.00  0.00    +0.000 C 
ATOM     28  C   UNL     1     110.099 129.424 136.128  0.00  0.00    +0.000 C 
ATOM     29  C   UNL     1     109.468 128.157 135.929  0.00  0.00    +0.000 C 
BRANCH  28  31
ATOM     30  O   UNL     1     111.446 129.770 135.799  0.00  0.00    +0.000 OA
ATOM     31  C   UNL     1     110.778 129.868 136.273  0.00  0.00    +0.000 C 
ENDBRANCH  28  31
ENDBRANCH  20  29
ENDBRANCH   4  20
TORSDOF 4
ENDMDL
MODEL 3
REMARK VINA RESULT:      -9.3      1.248      1.959
REMARK  Name = 42607843
REMARK  4 active torsions:
REMARK  status: ('A' for Active; 'I' for Inactive)
REMARK    1  A    between atoms: O_2  and  C_15
REMARK    2  A    between atoms: O_2  and  C_17
REMARK    3  A    between atoms: C_14  and  C_16
REMARK    4  A    between atoms: C_18  and  C_26
REMARK                            x       y       z     vdW  Elec       q    Type
REMARK                         _______ _______ _______ _____ _____    ______ ____
ROOT
ATOM      1  O   UNL     1     112.721 126.961 136.330  0.00  0.00    +0.000 OA
ATOM      2  O   UNL     1     113.025 129.629 135.266  0.00  0.00    +0.000 OA
ATOM      3  O   UNL     1     114.159 128.899 135.777  0.00  0.00    +0.000 OA
ATOM      4  C   UNL     1     111.197 128.352 135.472  0.00  0.00    +0.000 A 
ATOM      5  C   UNL     1     113.531 126.933 136.488  0.00  0.00    +0.000 C 
ATOM      6  C   UNL     1     114.010 127.579 136.303  0.00  0.00    +0.000 C 
ATOM      7  C   UNL     1     112.391 127.635 135.988  0.00  0.00    +0.000 A 
ATOM      8  C   UNL     1     112.870 128.281 135.803  0.00  0.00    +0.000 A 
ATOM      9  C   UNL     1     111.547 127.652 135.829  0.00  0.00    +0.000 A 
ATOM     10  C   UNL     1     113.679 128.253 135.961  0.00  0.00    +0.000 C 
ATOM     11  C   UNL     1     111.696 129.024 135.280  0.00  0.00    +0.000 A 
ATOM     12  C   UNL     1     112.538 128.988 135.447  0.00  0.00    +0.000 A 
ENDROOT
BRANCH   5  14
ATOM     13  O   UNL     1     113.472 126.726 138.124  0.00  0.00    +0.000 OA
ATOM     14  C   UNL     1     113.861 126.259 136.830  0.00  0.00    +0.000 A 
ATOM     15  C   UNL     1     113.832 126.155 137.649  0.00  0.00    +0.000 A 
ATOM     16  C   UNL     1     114.221 125.688 136.355  0.00  0.00    +0.000 A 
ATOM     17  C   UNL     1     114.162 125.481 137.991  0.00  0.00    +0.000 A 
ATOM     18  C   UNL     1     114.551 125.015 136.697  0.00  0.00    +0.000 A 
ATOM     19  C   UNL     1     114.521 124.911 137.515  0.00  0.00    +0.000 A 
ENDBRANCH   5  14
BRANCH   4  20
ATOM     20  O   UNL     1     110.387 128.378 135.316  0.00  0.00    +0.000 OA
BRANCH  20  29
ATOM     21  O   UNL     1     109.970 128.827 136.606  0.00  0.00    +0.000 OA
ATOM     22  O   UNL     1     108.243 130.252 135.552  0.00  0.00    +0.000 OA
ATOM     23  O   UNL     1     108.401 130.226 137.193  0.00  0.00    +0.000 OA
ATOM     24  O   UNL     1     109.236 129.328 134.613  0.00  0.00    +0.000 OA
ATOM     25  C   UNL     1     108.818 129.777 135.903  0.00  0.00    +0.000 C 
ATOM     26  C   UNL     1     108.898 129.764 136.724  0.00  0.00    +0.000 C 
ATOM     27  C   UNL     1     109.315 129.314 135.433  0.00  0.00    +0.000 C 
ATOM     28  C   UNL     1     109.474 129.289 137.076  0.00  0.00    +0.000 C 
ATOM     29  C   UNL     1     109.891 128.839 135.785  0.00  0.00    +0.000 C 
BRANCH  28  31
ATOM     30  O   UNL     1     109.434 128.573 138.312  0.00  0.00    +0.000 OA
ATOM     31  C   UNL     1     109.553 129.276 137.896  0.00  0.00    +0.000 C 
ENDBRANCH  28  31
ENDBRANCH  20  29
ENDBRANCH   4  20
TORSDOF 4
ENDMDL
MODEL 4
REMARK VINA RESULT:      -9.2      7.887     10.316
REMARK  Name = 42607843
REMARK  4 active torsions:
REMARK  status: ('A' for Active; 'I' for Inactive)
REMARK    1  A    between atoms: O_2  and  C_15
REMARK    2  A    between atoms: O_2  and  C_17
REMARK    3  A    between atoms: C_14  and  C_16
REMARK    4  A    between atoms: C_18  and  C_26
REMARK                            x       y       z     vdW  Elec       q    Type
REMARK                         _______ _______ _______ _____ _____    ______ ____
ROOT
ATOM      1  O   UNL     1     104.972 127.717 142.588  0.00  0.00    +0.000 OA
ATOM      2  O   UNL     1     107.850 127.492 142.709  0.00  0.00    +0.000 OA
ATOM      3  O   UNL     1     107.216 128.733 142.336  0.00  0.00    +0.000 OA
ATOM      4  C   UNL     1     106.259 125.970 143.122  0.00  0.00    +0.000 A 
ATOM      5  C   UNL     1     105.044 128.507 142.360  0.00  0.00    +0.000 C 
ATOM      6  C   UNL     1     105.792 128.845 142.275  0.00  0.00    +0.000 C 
ATOM      7  C   UNL     1     105.647 127.266 142.733  0.00  0.00    +0.000 A 
ATOM      8  C   UNL     1     106.395 127.604 142.649  0.00  0.00    +0.000 A 
ATOM      9  C   UNL     1     105.559 126.445 142.970  0.00  0.00    +0.000 A 
ATOM     10  C   UNL     1     106.468 128.394 142.420  0.00  0.00    +0.000 C 
ATOM     11  C   UNL     1     107.038 126.323 143.035  0.00  0.00    +0.000 A 
ATOM     12  C   UNL     1     107.106 127.145 142.796  0.00  0.00    +0.000 A 
ENDROOT
BRANCH   5  14
ATOM     13  O   UNL     1     104.308 128.440 140.884  0.00  0.00    +0.000 OA
ATOM     14  C   UNL     1     104.369 128.958 142.215  0.00  0.00    +0.000 A 
ATOM     15  C   UNL     1     104.001 128.924 141.477  0.00  0.00    +0.000 A 
ATOM     16  C   UNL     1     104.062 129.443 142.808  0.00  0.00    +0.000 A 
ATOM     17  C   UNL     1     103.326 129.376 141.332  0.00  0.00    +0.000 A 
ATOM     18  C   UNL     1     103.387 129.893 142.663  0.00  0.00    +0.000 A 
ATOM     19  C   UNL     1     103.019 129.860 141.925  0.00  0.00    +0.000 A 
ENDBRANCH   5  14
BRANCH   4  20
ATOM     20  O   UNL     1     106.184 125.181 143.351  0.00  0.00    +0.000 OA
BRANCH  20  29
ATOM     21  O   UNL     1     106.345 125.361 144.759  0.00  0.00    +0.000 OA
ATOM     22  O   UNL     1     104.554 123.703 145.175  0.00  0.00    +0.000 OA
ATOM     23  O   UNL     1     105.312 124.435 146.444  0.00  0.00    +0.000 OA
ATOM     24  O   UNL     1     104.990 124.076 143.628  0.00  0.00    +0.000 OA
ATOM     25  C   UNL     1     105.151 124.255 145.037  0.00  0.00    +0.000 C 
ATOM     26  C   UNL     1     105.530 124.622 145.671  0.00  0.00    +0.000 C 
ATOM     27  C   UNL     1     105.369 124.442 144.263  0.00  0.00    +0.000 C 
ATOM     28  C   UNL     1     106.127 125.174 145.532  0.00  0.00    +0.000 C 
ATOM     29  C   UNL     1     105.966 124.995 144.124  0.00  0.00    +0.000 C 
BRANCH  28  31
ATOM     30  O   UNL     1     107.321 125.464 146.261  0.00  0.00    +0.000 OA
ATOM     31  C   UNL     1     106.505 125.540 146.167  0.00  0.00    +0.000 C 
ENDBRANCH  28  31
ENDBRANCH  20  29
ENDBRANCH   4  20
TORSDOF 4
ENDMDL
MODEL 5
REMARK VINA RESULT:      -9.1      7.264     10.343
REMARK  Name = 42607843
REMARK  4 active torsions:
REMARK  status: ('A' for Active; 'I' for Inactive)
REMARK    1  A    between atoms: O_2  and  C_15
REMARK    2  A    between atoms: O_2  and  C_17
REMARK    3  A    between atoms: C_14  and  C_16
REMARK    4  A    between atoms: C_18  and  C_26
REMARK                            x       y       z     vdW  Elec       q    Type
REMARK                         _______ _______ _______ _____ _____    ______ ____
ROOT
ATOM      1  O   UNL     1     103.174 130.258 141.992  0.00  0.00    +0.000 OA
ATOM      2  O   UNL     1     103.709 127.990 140.285  0.00  0.00    +0.000 OA
ATOM      3  O   UNL     1     102.779 129.018 139.887  0.00  0.00    +0.000 OA
ATOM      4  C   UNL     1     104.537 128.514 142.300  0.00  0.00    +0.000 A 
ATOM      5  C   UNL     1     102.645 130.554 141.432  0.00  0.00    +0.000 C 
ATOM      6  C   UNL     1     102.513 130.140 140.731  0.00  0.00    +0.000 C 
ATOM      7  C   UNL     1     103.571 129.549 141.851  0.00  0.00    +0.000 A 
ATOM      8  C   UNL     1     103.440 129.136 141.149  0.00  0.00    +0.000 A 
ATOM      9  C   UNL     1     104.119 129.252 142.441  0.00  0.00    +0.000 A 
ATOM     10  C   UNL     1     102.911 129.431 140.589  0.00  0.00    +0.000 C 
ATOM     11  C   UNL     1     104.399 128.084 141.569  0.00  0.00    +0.000 A 
ATOM     12  C   UNL     1     103.847 128.396 140.990  0.00  0.00    +0.000 A 
ENDROOT
BRANCH   5  14
ATOM     13  O   UNL     1     103.332 131.987 140.988  0.00  0.00    +0.000 OA
ATOM     14  C   UNL     1     102.247 131.263 141.574  0.00  0.00    +0.000 A 
ATOM     15  C   UNL     1     102.591 131.979 141.351  0.00  0.00    +0.000 A 
ATOM     16  C   UNL     1     101.507 131.255 141.937  0.00  0.00    +0.000 A 
ATOM     17  C   UNL     1     102.194 132.688 141.493  0.00  0.00    +0.000 A 
ATOM     18  C   UNL     1     101.110 131.964 142.078  0.00  0.00    +0.000 A 
ATOM     19  C   UNL     1     101.453 132.681 141.856  0.00  0.00    +0.000 A 
ENDBRANCH   5  14
BRANCH   4  20
ATOM     20  O   UNL     1     105.065 128.221 142.861  0.00  0.00    +0.000 OA
BRANCH  20  29
ATOM     21  O   UNL     1     106.234 128.836 142.317  0.00  0.00    +0.000 OA
ATOM     22  O   UNL     1     107.574 126.855 142.954  0.00  0.00    +0.000 OA
ATOM     23  O   UNL     1     108.296 128.130 142.198  0.00  0.00    +0.000 OA
ATOM     24  O   UNL     1     105.958 126.900 143.286  0.00  0.00    +0.000 OA
ATOM     25  C   UNL     1     107.127 127.515 142.742  0.00  0.00    +0.000 C 
ATOM     26  C   UNL     1     107.488 128.153 142.364  0.00  0.00    +0.000 C 
ATOM     27  C   UNL     1     106.319 127.538 142.908  0.00  0.00    +0.000 C 
ATOM     28  C   UNL     1     107.042 128.814 142.152  0.00  0.00    +0.000 C 
ATOM     29  C   UNL     1     105.872 128.198 142.696  0.00  0.00    +0.000 C 
BRANCH  28  31
ATOM     30  O   UNL     1     107.200 129.640 140.997  0.00  0.00    +0.000 OA
ATOM     31  C   UNL     1     107.403 129.451 141.774  0.00  0.00    +0.000 C 
ENDBRANCH  28  31
ENDBRANCH  20  29
ENDBRANCH   4  20
TORSDOF 4
ENDMDL
MODEL 6
REMARK VINA RESULT:      -9.0      9.088     10.717
REMARK  Name = 42607843
REMARK  4 active torsions:
REMARK  status: ('A' for Active; 'I' for Inactive)
REMARK    1  A    between atoms: O_2  and  C_15
REMARK    2  A    between atoms: O_2  and  C_17
REMARK    3  A    between atoms: C_14  and  C_16
REMARK    4  A    between atoms: C_18  and  C_26
REMARK                            x       y       z     vdW  Elec       q    Type
REMARK                         _______ _______ _______ _____ _____    ______ ____
ROOT
ATOM      1  O   UNL     1     106.513 125.569 146.548  0.00  0.00    +0.000 OA
ATOM      2  O   UNL     1     105.731 128.222 145.713  0.00  0.00    +0.000 OA
ATOM      3  O   UNL     1     106.283 127.987 147.024  0.00  0.00    +0.000 OA
ATOM      4  C   UNL     1     105.638 126.271 144.615  0.00  0.00    +0.000 A 
ATOM      5  C   UNL     1     106.747 125.870 147.280  0.00  0.00    +0.000 C 
ATOM      6  C   UNL     1     106.670 126.676 147.439  0.00  0.00    +0.000 C 
ATOM      7  C   UNL     1     106.203 126.074 145.975  0.00  0.00    +0.000 A 
ATOM      8  C   UNL     1     106.126 126.880 146.133  0.00  0.00    +0.000 A 
ATOM      9  C   UNL     1     105.963 125.749 145.217  0.00  0.00    +0.000 A 
ATOM     10  C   UNL     1     106.360 127.181 146.865  0.00  0.00    +0.000 C 
ATOM     11  C   UNL     1     105.559 127.110 144.781  0.00  0.00    +0.000 A 
ATOM     12  C   UNL     1     105.804 127.417 145.545  0.00  0.00    +0.000 A 
ENDROOT
BRANCH   5  14
ATOM     13  O   UNL     1     108.375 125.612 147.357  0.00  0.00    +0.000 OA
ATOM     14  C   UNL     1     107.058 125.364 147.854  0.00  0.00    +0.000 A 
ATOM     15  C   UNL     1     107.872 125.235 147.892  0.00  0.00    +0.000 A 
ATOM     16  C   UNL     1     106.554 124.988 148.388  0.00  0.00    +0.000 A 
ATOM     17  C   UNL     1     108.183 124.730 148.465  0.00  0.00    +0.000 A 
ATOM     18  C   UNL     1     106.865 124.483 148.961  0.00  0.00    +0.000 A 
ATOM     19  C   UNL     1     107.679 124.354 149.000  0.00  0.00    +0.000 A 
ENDBRANCH   5  14
BRANCH   4  20
ATOM     20  O   UNL     1     105.405 125.968 143.884  0.00  0.00    +0.000 OA
BRANCH  20  29
ATOM     21  O   UNL     1     106.495 126.466 143.106  0.00  0.00    +0.000 OA
ATOM     22  O   UNL     1     106.567 124.339 141.844  0.00  0.00    +0.000 OA
ATOM     23  O   UNL     1     107.632 125.546 141.487  0.00  0.00    +0.000 OA
ATOM     24  O   UNL     1     105.453 124.549 143.043  0.00  0.00    +0.000 OA
ATOM     25  C   UNL     1     106.543 125.048 142.264  0.00  0.00    +0.000 C 
ATOM     26  C   UNL     1     107.076 125.652 142.086  0.00  0.00    +0.000 C 
ATOM     27  C   UNL     1     105.986 125.154 142.864  0.00  0.00    +0.000 C 
ATOM     28  C   UNL     1     107.052 126.361 142.507  0.00  0.00    +0.000 C 
ATOM     29  C   UNL     1     105.962 125.863 143.285  0.00  0.00    +0.000 C 
BRANCH  28  31
ATOM     30  O   UNL     1     108.167 127.177 142.873  0.00  0.00    +0.000 OA
ATOM     31  C   UNL     1     107.584 126.965 142.328  0.00  0.00    +0.000 C 
ENDBRANCH  28  31
ENDBRANCH  20  29
ENDBRANCH   4  20
TORSDOF 4
ENDMDL
MODEL 7
REMARK VINA RESULT:      -9.0      2.299      4.057
REMARK  Name = 42607843
REMARK  4 active torsions:
REMARK  status: ('A' for Active; 'I' for Inactive)
REMARK    1  A    between atoms: O_2  and  C_15
REMARK    2  A    between atoms: O_2  and  C_17
REMARK    3  A    between atoms: C_14  and  C_16
REMARK    4  A    between atoms: C_18  and  C_26
REMARK                            x       y       z     vdW  Elec       q    Type
REMARK                         _______ _______ _______ _____ _____    ______ ____
ROOT
ATOM      1  O   UNL     1     112.673 128.319 135.601  0.00  0.00    +0.000 OA
ATOM      2  O   UNL     1     109.933 128.446 134.694  0.00  0.00    +0.000 OA
ATOM      3  O   UNL     1     110.798 129.598 134.612  0.00  0.00    +0.000 OA
ATOM      4  C   UNL     1     111.086 126.745 135.585  0.00  0.00    +0.000 A 
ATOM      5  C   UNL     1     112.778 129.110 135.390  0.00  0.00    +0.000 C 
ATOM      6  C   UNL     1     112.153 129.536 135.061  0.00  0.00    +0.000 C 
ATOM      7  C   UNL     1     111.942 127.955 135.483  0.00  0.00    +0.000 A 
ATOM      8  C   UNL     1     111.317 128.380 135.153  0.00  0.00    +0.000 A 
ATOM      9  C   UNL     1     111.845 127.131 135.706  0.00  0.00    +0.000 A 
ATOM     10  C   UNL     1     111.423 129.171 134.942  0.00  0.00    +0.000 C 
ATOM     11  C   UNL     1     110.436 127.189 135.242  0.00  0.00    +0.000 A 
ATOM     12  C   UNL     1     110.552 128.012 135.024  0.00  0.00    +0.000 A 
ENDROOT
BRANCH   5  14
ATOM     13  O   UNL     1     113.065 129.946 136.784  0.00  0.00    +0.000 OA
ATOM     14  C   UNL     1     113.509 129.475 135.509  0.00  0.00    +0.000 A 
ATOM     15  C   UNL     1     113.652 129.893 136.206  0.00  0.00    +0.000 A 
ATOM     16  C   UNL     1     114.095 129.422 134.931  0.00  0.00    +0.000 A 
ATOM     17  C   UNL     1     114.382 130.258 136.325  0.00  0.00    +0.000 A 
ATOM     18  C   UNL     1     114.825 129.786 135.051  0.00  0.00    +0.000 A 
ATOM     19  C   UNL     1     114.969 130.205 135.747  0.00  0.00    +0.000 A 
ENDBRANCH   5  14
BRANCH   4  20
ATOM     20  O   UNL     1     110.983 125.954 135.797  0.00  0.00    +0.000 OA
BRANCH  20  29
ATOM     21  O   UNL     1     110.451 126.182 137.104  0.00  0.00    +0.000 OA
ATOM     22  O   UNL     1     111.723 124.239 137.960  0.00  0.00    +0.000 OA
ATOM     23  O   UNL     1     110.767 125.114 138.980  0.00  0.00    +0.000 OA
ATOM     24  O   UNL     1     111.831 124.659 136.368  0.00  0.00    +0.000 OA
ATOM     25  C   UNL     1     111.299 124.887 137.675  0.00  0.00    +0.000 C 
ATOM     26  C   UNL     1     110.821 125.325 138.184  0.00  0.00    +0.000 C 
ATOM     27  C   UNL     1     111.353 125.097 136.878  0.00  0.00    +0.000 C 
ATOM     28  C   UNL     1     110.397 125.972 137.899  0.00  0.00    +0.000 C 
ATOM     29  C   UNL     1     110.929 125.745 136.592  0.00  0.00    +0.000 C 
BRANCH  28  31
ATOM     30  O   UNL     1     109.115 126.496 138.249  0.00  0.00    +0.000 OA
ATOM     31  C   UNL     1     109.919 126.409 138.409  0.00  0.00    +0.000 C 
ENDBRANCH  28  31
ENDBRANCH  20  29
ENDBRANCH   4  20
TORSDOF 4
ENDMDL
MODEL 8
REMARK VINA RESULT:      -9.0      3.431      4.730
REMARK  Name = 42607843
REMARK  4 active torsions:
REMARK  status: ('A' for Active; 'I' for Inactive)
REMARK    1  A    between atoms: O_2  and  C_15
REMARK    2  A    between atoms: O_2  and  C_17
REMARK    3  A    between atoms: C_14  and  C_16
REMARK    4  A    between atoms: C_18  and  C_26
REMARK                            x       y       z     vdW  Elec       q    Type
REMARK                         _______ _______ _______ _____ _____    ______ ____
ROOT
ATOM      1  O   UNL     1     113.551 126.289 138.798  0.00  0.00    +0.000 OA
ATOM      2  O   UNL     1     110.829 126.408 139.759  0.00  0.00    +0.000 OA
ATOM      3  O   UNL     1     111.148 125.770 138.506  0.00  0.00    +0.000 OA
ATOM      4  C   UNL     1     112.722 127.188 140.669  0.00  0.00    +0.000 A 
ATOM      5  C   UNL     1     113.295 125.883 138.126  0.00  0.00    +0.000 C 
ATOM      6  C   UNL     1     112.494 125.711 138.029  0.00  0.00    +0.000 C 
ATOM      7  C   UNL     1     113.006 126.522 139.372  0.00  0.00    +0.000 A 
ATOM      8  C   UNL     1     112.205 126.349 139.275  0.00  0.00    +0.000 A 
ATOM      9  C   UNL     1     113.285 126.943 140.067  0.00  0.00    +0.000 A 
ATOM     10  C   UNL     1     111.949 125.943 138.603  0.00  0.00    +0.000 C 
ATOM     11  C   UNL     1     111.888 127.008 140.567  0.00  0.00    +0.000 A 
ATOM     12  C   UNL     1     111.628 126.586 139.865  0.00  0.00    +0.000 A 
ENDROOT
BRANCH   5  14
ATOM     13  O   UNL     1     113.571 126.845 136.814  0.00  0.00    +0.000 OA
ATOM     14  C   UNL     1     113.840 125.651 137.552  0.00  0.00    +0.000 A 
ATOM     15  C   UNL     1     113.978 126.132 136.896  0.00  0.00    +0.000 A 
ATOM     16  C   UNL     1     114.246 124.937 137.634  0.00  0.00    +0.000 A 
ATOM     17  C   UNL     1     114.522 125.899 136.322  0.00  0.00    +0.000 A 
ATOM     18  C   UNL     1     114.791 124.705 137.060  0.00  0.00    +0.000 A 
ATOM     19  C   UNL     1     114.929 125.186 136.404  0.00  0.00    +0.000 A 
ENDBRANCH   5  14
BRANCH   4  20
ATOM     20  O   UNL     1     112.981 127.594 141.339  0.00  0.00    +0.000 OA
BRANCH  20  29
ATOM     21  O   UNL     1     113.307 128.864 140.772  0.00  0.00    +0.000 OA
ATOM     22  O   UNL     1     112.103 129.995 142.615  0.00  0.00    +0.000 OA
ATOM     23  O   UNL     1     112.831 130.888 141.435  0.00  0.00    +0.000 OA
ATOM     24  O   UNL     1     112.178 128.348 142.567  0.00  0.00    +0.000 OA
ATOM     25  C   UNL     1     112.505 129.618 142.001  0.00  0.00    +0.000 C 
ATOM     26  C   UNL     1     112.869 130.065 141.410  0.00  0.00    +0.000 C 
ATOM     27  C   UNL     1     112.542 128.794 141.977  0.00  0.00    +0.000 C 
ATOM     28  C   UNL     1     113.270 129.688 140.796  0.00  0.00    +0.000 C 
ATOM     29  C   UNL     1     112.943 128.417 141.363  0.00  0.00    +0.000 C 
BRANCH  28  31
ATOM     30  O   UNL     1     114.447 130.070 140.081  0.00  0.00    +0.000 OA
ATOM     31  C   UNL     1     113.634 130.134 140.206  0.00  0.00    +0.000 C 
ENDBRANCH  28  31
ENDBRANCH  20  29
ENDBRANCH   4  20
TORSDOF 4
ENDMDL
MODEL 9
REMARK VINA RESULT:      -8.9      2.558      4.866
REMARK  Name = 42607843
REMARK  4 active torsions:
REMARK  status: ('A' for Active; 'I' for Inactive)
REMARK    1  A    between atoms: O_2  and  C_15
REMARK    2  A    between atoms: O_2  and  C_17
REMARK    3  A    between atoms: C_14  and  C_16
REMARK    4  A    between atoms: C_18  and  C_26
REMARK                            x       y       z     vdW  Elec       q    Type
REMARK                         _______ _______ _______ _____ _____    ______ ____
ROOT
ATOM      1  O   UNL     1     113.541 128.735 136.084  0.00  0.00    +0.000 OA
ATOM      2  O   UNL     1     110.877 127.931 135.309  0.00  0.00    +0.000 OA
ATOM      3  O   UNL     1     111.567 128.988 134.612  0.00  0.00    +0.000 OA
ATOM      4  C   UNL     1     112.207 127.158 136.938  0.00  0.00    +0.000 A 
ATOM      5  C   UNL     1     113.543 129.302 135.485  0.00  0.00    +0.000 C 
ATOM      6  C   UNL     1     112.885 129.386 134.994  0.00  0.00    +0.000 C 
ATOM      7  C   UNL     1     112.881 128.252 136.192  0.00  0.00    +0.000 A 
ATOM      8  C   UNL     1     112.223 128.336 135.702  0.00  0.00    +0.000 A 
ATOM      9  C   UNL     1     112.892 127.665 136.820  0.00  0.00    +0.000 A 
ATOM     10  C   UNL     1     112.225 128.903 135.103  0.00  0.00    +0.000 C 
ATOM     11  C   UNL     1     111.522 127.246 136.427  0.00  0.00    +0.000 A 
ATOM     12  C   UNL     1     111.530 127.839 135.805  0.00  0.00    +0.000 A 
ENDROOT
BRANCH   5  14
ATOM     13  O   UNL     1     113.714 130.678 136.380  0.00  0.00    +0.000 OA
ATOM     14  C   UNL     1     114.203 129.785 135.376  0.00  0.00    +0.000 A 
ATOM     15  C   UNL     1     114.288 130.474 135.824  0.00  0.00    +0.000 A 
ATOM     16  C   UNL     1     114.777 129.581 134.820  0.00  0.00    +0.000 A 
ATOM     17  C   UNL     1     114.948 130.957 135.715  0.00  0.00    +0.000 A 
ATOM     18  C   UNL     1     115.436 130.064 134.712  0.00  0.00    +0.000 A 
ATOM     19  C   UNL     1     115.522 130.752 135.159  0.00  0.00    +0.000 A 
ENDBRANCH   5  14
BRANCH   4  20
ATOM     20  O   UNL     1     112.208 126.592 137.538  0.00  0.00    +0.000 OA
BRANCH  20  29
ATOM     21  O   UNL     1     113.113 125.637 136.979  0.00  0.00    +0.000 OA
ATOM     22  O   UNL     1     111.578 123.805 137.623  0.00  0.00    +0.000 OA
ATOM     23  O   UNL     1     112.994 123.462 136.849  0.00  0.00    +0.000 OA
ATOM     24  O   UNL     1     111.185 125.370 137.967  0.00  0.00    +0.000 OA
ATOM     25  C   UNL     1     112.090 124.416 137.408  0.00  0.00    +0.000 C 
ATOM     26  C   UNL     1     112.798 124.245 137.021  0.00  0.00    +0.000 C 
ATOM     27  C   UNL     1     111.893 125.199 137.580  0.00  0.00    +0.000 C 
ATOM     28  C   UNL     1     113.309 124.855 136.807  0.00  0.00    +0.000 C 
ATOM     29  C   UNL     1     112.405 125.810 137.366  0.00  0.00    +0.000 C 
BRANCH  28  31
ATOM     30  O   UNL     1     114.729 124.983 136.709  0.00  0.00    +0.000 OA
ATOM     31  C   UNL     1     114.017 124.683 136.420  0.00  0.00    +0.000 C 
ENDBRANCH  28  31
ENDBRANCH  20  29
ENDBRANCH   4  20
TORSDOF 4
ENDMDL
MODEL 10
REMARK VINA RESULT:      -8.9      2.911      4.152
REMARK  Name = 42607843
REMARK  4 active torsions:
REMARK  status: ('A' for Active; 'I' for Inactive)
REMARK    1  A    between atoms: O_2  and  C_15
REMARK    2  A    between atoms: O_2  and  C_17
REMARK    3  A    between atoms: C_14  and  C_16
REMARK    4  A    between atoms: C_18  and  C_26
REMARK                            x       y       z     vdW  Elec       q    Type
REMARK                         _______ _______ _______ _____ _____    ______ ____
ROOT
ATOM      1  O   UNL     1     113.156 127.145 137.489  0.00  0.00    +0.000 OA
ATOM      2  O   UNL     1     113.605 129.656 136.132  0.00  0.00    +0.000 OA
ATOM      3  O   UNL     1     114.090 128.414 135.580  0.00  0.00    +0.000 OA
ATOM      4  C   UNL     1     112.550 129.220 138.059  0.00  0.00    +0.000 A 
ATOM      5  C   UNL     1     113.557 126.749 136.887  0.00  0.00    +0.000 C 
ATOM      6  C   UNL     1     113.868 127.172 136.251  0.00  0.00    +0.000 C 
ATOM      7  C   UNL     1     113.066 127.965 137.455  0.00  0.00    +0.000 A 
ATOM      8  C   UNL     1     113.377 128.388 136.819  0.00  0.00    +0.000 A 
ATOM      9  C   UNL     1     112.647 128.366 138.089  0.00  0.00    +0.000 A 
ATOM     10  C   UNL     1     113.778 127.992 136.217  0.00  0.00    +0.000 C 
ATOM     11  C   UNL     1     112.874 129.660 137.396  0.00  0.00    +0.000 A 
ATOM     12  C   UNL     1     113.290 129.241 136.772  0.00  0.00    +0.000 A 
ENDROOT
BRANCH   5  14
ATOM     13  O   UNL     1     112.404 125.765 136.234  0.00  0.00    +0.000 OA
ATOM     14  C   UNL     1     113.647 125.930 136.921  0.00  0.00    +0.000 A 
ATOM     15  C   UNL     1     113.070 125.438 136.594  0.00  0.00    +0.000 A 
ATOM     16  C   UNL     1     114.313 125.602 137.281  0.00  0.00    +0.000 A 
ATOM     17  C   UNL     1     113.160 124.618 136.628  0.00  0.00    +0.000 A 
ATOM     18  C   UNL     1     114.402 124.783 137.314  0.00  0.00    +0.000 A 
ATOM     19  C   UNL     1     113.826 124.291 136.988  0.00  0.00    +0.000 A 
ENDBRANCH   5  14
BRANCH   4  20
ATOM     20  O   UNL     1     112.148 129.614 138.663  0.00  0.00    +0.000 OA
BRANCH  20  29
ATOM     21  O   UNL     1     113.293 130.013 139.418  0.00  0.00    +0.000 OA
ATOM     22  O   UNL     1     112.067 129.556 141.519  0.00  0.00    +0.000 OA
ATOM     23  O   UNL     1     113.620 130.107 141.574  0.00  0.00    +0.000 OA
ATOM     24  O   UNL     1     111.330 129.309 140.063  0.00  0.00    +0.000 OA
ATOM     25  C   UNL     1     112.475 129.708 140.819  0.00  0.00    +0.000 C 
ATOM     26  C   UNL     1     113.252 129.984 140.846  0.00  0.00    +0.000 C 
ATOM     27  C   UNL     1     112.107 129.585 140.090  0.00  0.00    +0.000 C 
ATOM     28  C   UNL     1     113.661 130.136 140.146  0.00  0.00    +0.000 C 
ATOM     29  C   UNL     1     112.516 129.737 139.390  0.00  0.00    +0.000 C 
BRANCH  28  31
ATOM     30  O   UNL     1     114.643 131.110 139.785  0.00  0.00    +0.000 OA
ATOM     31  C   UNL     1     114.438 130.412 140.173  0.00  0.00    +0.000 C 
ENDBRANCH  28  31
ENDBRANCH  20  29
ENDBRANCH   4  20
TORSDOF 4
ENDMDL
