MODEL 1
REMARK VINA RESULT:      -9.1      0.000      0.000
REMARK  Name = 44258781
REMARK  7 active torsions:
REMARK  status: ('A' for Active; 'I' for Inactive)
REMARK    1  A    between atoms: O_2  and  C_17
REMARK    2  A    between atoms: O_2  and  C_19
REMARK    3  A    between atoms: C_16  and  C_18
REMARK    4  A    between atoms: C_20  and  C_21
REMARK    5  A    between atoms: C_21  and  C_22
REMARK    6  A    between atoms: C_22  and  C_23
REMARK    7  A    between atoms: C_31  and  C_33
REMARK                            x       y       z     vdW  Elec       q    Type
REMARK                         _______ _______ _______ _____ _____    ______ ____
ROOT
ATOM      1  O   UNL     1     112.181 128.949 137.537  0.00  0.00    +0.000 OA
ATOM      2  O   UNL     1     114.032 127.113 136.281  0.00  0.00    +0.000 OA
ATOM      3  O   UNL     1     113.778 128.387 135.653  0.00  0.00    +0.000 OA
ATOM      4  O   UNL     1     112.974 129.874 135.657  0.00  0.00    +0.000 OA
ATOM      5  C   UNL     1     112.869 126.930 138.119  0.00  0.00    +0.000 A 
ATOM      6  C   UNL     1     113.389 126.750 137.504  0.00  0.00    +0.000 A 
ATOM      7  C   UNL     1     113.513 127.294 136.896  0.00  0.00    +0.000 A 
ATOM      8  C   UNL     1     112.474 127.655 138.126  0.00  0.00    +0.000 A 
ATOM      9  C   UNL     1     113.118 128.018 136.904  0.00  0.00    +0.000 A 
ATOM     10  C   UNL     1     112.599 128.198 137.518  0.00  0.00    +0.000 A 
ATOM     11  C   UNL     1     113.256 128.576 136.265  0.00  0.00    +0.000 A 
ATOM     12  C   UNL     1     112.306 129.520 136.907  0.00  0.00    +0.000 A 
ATOM     13  C   UNL     1     112.847 129.332 136.266  0.00  0.00    +0.000 A 
ENDROOT
BRANCH  12  15
ATOM     14  O   UNL     1     110.722 132.414 136.946  0.00  0.00    +0.000 OA
ATOM     15  C   UNL     1     111.910 130.244 136.917  0.00  0.00    +0.000 A 
ATOM     16  C   UNL     1     111.163 130.310 136.572  0.00  0.00    +0.000 A 
ATOM     17  C   UNL     1     112.260 130.901 137.272  0.00  0.00    +0.000 A 
ATOM     18  C   UNL     1     110.767 131.033 136.581  0.00  0.00    +0.000 A 
ATOM     19  C   UNL     1     111.864 131.624 137.282  0.00  0.00    +0.000 A 
ATOM     20  C   UNL     1     111.118 131.691 136.937  0.00  0.00    +0.000 A 
ENDBRANCH  12  15
BRANCH   5  21
ATOM     21  O   UNL     1     112.745 126.387 138.727  0.00  0.00    +0.000 OA
BRANCH  21  30
ATOM     22  O   UNL     1     113.343 127.094 139.815  0.00  0.00    +0.000 OA
ATOM     23  O   UNL     1     111.418 126.506 141.256  0.00  0.00    +0.000 OA
ATOM     24  O   UNL     1     112.658 127.410 141.864  0.00  0.00    +0.000 OA
ATOM     25  O   UNL     1     111.462 125.994 139.688  0.00  0.00    +0.000 OA
ATOM     26  C   UNL     1     112.060 126.702 140.776  0.00  0.00    +0.000 C 
ATOM     27  C   UNL     1     112.680 127.154 141.079  0.00  0.00    +0.000 C 
ATOM     28  C   UNL     1     112.082 126.446 139.991  0.00  0.00    +0.000 C 
ATOM     29  C   UNL     1     113.321 127.350 140.599  0.00  0.00    +0.000 C 
ATOM     30  C   UNL     1     112.723 126.642 139.511  0.00  0.00    +0.000 C 
BRANCH  29  32
ATOM     31  O   UNL     1     114.719 127.541 140.827  0.00  0.00    +0.000 OA
ATOM     32  C   UNL     1     113.941 127.802 140.903  0.00  0.00    +0.000 C 
ENDBRANCH  29  32
ENDBRANCH  21  30
ENDBRANCH   5  21
BRANCH   6  33
ATOM     33  C   UNL     1     113.784 126.026 137.497  0.00  0.00    +0.000 C 
BRANCH  33  34
ATOM     34  C   UNL     1     113.588 125.455 136.934  0.00  0.00    +0.000 C 
BRANCH  34  36
ATOM     35  O   UNL     1     114.602 125.005 137.295  0.00  0.00    +0.000 OA
ATOM     36  C   UNL     1     113.900 124.693 136.993  0.00  0.00    +0.000 C 
ATOM     37  C   UNL     1     114.213 123.932 137.054  0.00  0.00    +0.000 C 
ATOM     38  C   UNL     1     113.198 124.382 136.692  0.00  0.00    +0.000 C 
ENDBRANCH  34  36
ENDBRANCH  33  34
ENDBRANCH   6  33
TORSDOF 7
ENDMDL
MODEL 2
REMARK VINA RESULT:      -9.0      1.722      4.187
REMARK  Name = 44258781
REMARK  7 active torsions:
REMARK  status: ('A' for Active; 'I' for Inactive)
REMARK    1  A    between atoms: O_2  and  C_17
REMARK    2  A    between atoms: O_2  and  C_19
REMARK    3  A    between atoms: C_16  and  C_18
REMARK    4  A    between atoms: C_20  and  C_21
REMARK    5  A    between atoms: C_21  and  C_22
REMARK    6  A    between atoms: C_22  and  C_23
REMARK    7  A    between atoms: C_31  and  C_33
REMARK                            x       y       z     vdW  Elec       q    Type
REMARK                         _______ _______ _______ _____ _____    ______ ____
ROOT
ATOM      1  O   UNL     1     113.292 128.739 139.231  0.00  0.00    +0.000 OA
ATOM      2  O   UNL     1     112.616 125.931 139.413  0.00  0.00    +0.000 OA
ATOM      3  O   UNL     1     113.192 126.587 140.562  0.00  0.00    +0.000 OA
ATOM      4  O   UNL     1     113.811 127.987 141.276  0.00  0.00    +0.000 OA
ATOM      5  C   UNL     1     112.409 127.343 137.761  0.00  0.00    +0.000 A 
ATOM      6  C   UNL     1     112.377 126.643 138.198  0.00  0.00    +0.000 A 
ATOM      7  C   UNL     1     112.647 126.630 138.977  0.00  0.00    +0.000 A 
ATOM      8  C   UNL     1     112.710 128.029 138.105  0.00  0.00    +0.000 A 
ATOM      9  C   UNL     1     112.949 127.317 139.320  0.00  0.00    +0.000 A 
ATOM     10  C   UNL     1     112.980 128.017 138.885  0.00  0.00    +0.000 A 
ATOM     11  C   UNL     1     113.227 127.291 140.133  0.00  0.00    +0.000 A 
ATOM     12  C   UNL     1     113.575 128.732 140.042  0.00  0.00    +0.000 A 
ATOM     13  C   UNL     1     113.542 128.004 140.496  0.00  0.00    +0.000 A 
ENDROOT
BRANCH  12  15
ATOM     14  O   UNL     1     114.780 131.485 141.405  0.00  0.00    +0.000 OA
ATOM     15  C   UNL     1     113.876 129.421 140.383  0.00  0.00    +0.000 A 
ATOM     16  C   UNL     1     113.395 129.887 140.865  0.00  0.00    +0.000 A 
ATOM     17  C   UNL     1     114.658 129.643 140.242  0.00  0.00    +0.000 A 
ATOM     18  C   UNL     1     113.696 130.575 141.206  0.00  0.00    +0.000 A 
ATOM     19  C   UNL     1     114.959 130.331 140.582  0.00  0.00    +0.000 A 
ATOM     20  C   UNL     1     114.479 130.797 141.064  0.00  0.00    +0.000 A 
ENDBRANCH  12  15
BRANCH   5  21
ATOM     21  O   UNL     1     112.139 127.356 136.982  0.00  0.00    +0.000 OA
BRANCH  21  30
ATOM     22  O   UNL     1     110.978 128.177 137.122  0.00  0.00    +0.000 OA
ATOM     23  O   UNL     1     111.649 129.466 135.118  0.00  0.00    +0.000 OA
ATOM     24  O   UNL     1     110.264 129.858 135.926  0.00  0.00    +0.000 OA
ATOM     25  O   UNL     1     112.586 128.215 135.646  0.00  0.00    +0.000 OA
ATOM     26  C   UNL     1     111.425 129.037 135.786  0.00  0.00    +0.000 C 
ATOM     27  C   UNL     1     110.733 129.232 136.190  0.00  0.00    +0.000 C 
ATOM     28  C   UNL     1     111.894 128.411 136.050  0.00  0.00    +0.000 C 
ATOM     29  C   UNL     1     110.510 128.802 136.858  0.00  0.00    +0.000 C 
ATOM     30  C   UNL     1     111.670 127.981 136.718  0.00  0.00    +0.000 C 
BRANCH  29  32
ATOM     31  O   UNL     1     109.311 128.405 137.527  0.00  0.00    +0.000 OA
ATOM     32  C   UNL     1     109.817 128.999 137.261  0.00  0.00    +0.000 C 
ENDBRANCH  29  32
ENDBRANCH  21  30
ENDBRANCH   5  21
BRANCH   6  33
ATOM     33  C   UNL     1     112.076 125.956 137.854  0.00  0.00    +0.000 C 
BRANCH  33  34
ATOM     34  C   UNL     1     112.582 125.330 137.671  0.00  0.00    +0.000 C 
BRANCH  34  36
ATOM     35  O   UNL     1     111.567 124.756 137.640  0.00  0.00    +0.000 OA
ATOM     36  C   UNL     1     112.295 124.676 137.259  0.00  0.00    +0.000 C 
ATOM     37  C   UNL     1     112.007 124.021 136.847  0.00  0.00    +0.000 C 
ATOM     38  C   UNL     1     113.023 124.596 136.879  0.00  0.00    +0.000 C 
ENDBRANCH  34  36
ENDBRANCH  33  34
ENDBRANCH   6  33
TORSDOF 7
ENDMDL
MODEL 3
REMARK VINA RESULT:      -9.0      8.749     11.149
REMARK  Name = 44258781
REMARK  7 active torsions:
REMARK  status: ('A' for Active; 'I' for Inactive)
REMARK    1  A    between atoms: O_2  and  C_17
REMARK    2  A    between atoms: O_2  and  C_19
REMARK    3  A    between atoms: C_16  and  C_18
REMARK    4  A    between atoms: C_20  and  C_21
REMARK    5  A    between atoms: C_21  and  C_22
REMARK    6  A    between atoms: C_22  and  C_23
REMARK    7  A    between atoms: C_31  and  C_33
REMARK                            x       y       z     vdW  Elec       q    Type
REMARK                         _______ _______ _______ _____ _____    ______ ____
ROOT
ATOM      1  O   UNL     1     105.504 126.519 144.474  0.00  0.00    +0.000 OA
ATOM      2  O   UNL     1     107.237 126.875 146.765  0.00  0.00    +0.000 OA
ATOM      3  O   UNL     1     107.295 127.835 145.689  0.00  0.00    +0.000 OA
ATOM      4  O   UNL     1     106.743 128.363 144.182  0.00  0.00    +0.000 OA
ATOM      5  C   UNL     1     105.761 125.330 146.321  0.00  0.00    +0.000 A 
ATOM      6  C   UNL     1     106.345 125.761 146.714  0.00  0.00    +0.000 A 
ATOM      7  C   UNL     1     106.654 126.444 146.371  0.00  0.00    +0.000 A 
ATOM      8  C   UNL     1     105.488 125.583 145.584  0.00  0.00    +0.000 A 
ATOM      9  C   UNL     1     106.380 126.697 145.635  0.00  0.00    +0.000 A 
ATOM     10  C   UNL     1     105.798 126.266 145.242  0.00  0.00    +0.000 A 
ATOM     11  C   UNL     1     106.711 127.410 145.288  0.00  0.00    +0.000 A 
ATOM     12  C   UNL     1     105.823 127.230 144.112  0.00  0.00    +0.000 A 
ATOM     13  C   UNL     1     106.430 127.679 144.521  0.00  0.00    +0.000 A 
ENDROOT
BRANCH  12  15
ATOM     14  O   UNL     1     104.721 128.232 141.167  0.00  0.00    +0.000 OA
ATOM     15  C   UNL     1     105.547 127.480 143.376  0.00  0.00    +0.000 A 
ATOM     16  C   UNL     1     105.795 127.094 142.690  0.00  0.00    +0.000 A 
ATOM     17  C   UNL     1     105.025 128.117 143.325  0.00  0.00    +0.000 A 
ATOM     18  C   UNL     1     105.519 127.345 141.953  0.00  0.00    +0.000 A 
ATOM     19  C   UNL     1     104.749 128.367 142.590  0.00  0.00    +0.000 A 
ATOM     20  C   UNL     1     104.997 127.981 141.904  0.00  0.00    +0.000 A 
ENDBRANCH  12  15
BRANCH   5  21
ATOM     21  O   UNL     1     105.451 124.646 146.663  0.00  0.00    +0.000 OA
BRANCH  21  30
ATOM     22  O   UNL     1     104.155 125.082 147.078  0.00  0.00    +0.000 OA
ATOM     23  O   UNL     1     103.143 123.095 146.004  0.00  0.00    +0.000 OA
ATOM     24  O   UNL     1     102.184 124.193 146.778  0.00  0.00    +0.000 OA
ATOM     25  O   UNL     1     104.776 123.322 145.947  0.00  0.00    +0.000 OA
ATOM     26  C   UNL     1     103.480 123.757 146.362  0.00  0.00    +0.000 C 
ATOM     27  C   UNL     1     103.002 124.307 146.749  0.00  0.00    +0.000 C 
ATOM     28  C   UNL     1     104.298 123.871 146.334  0.00  0.00    +0.000 C 
ATOM     29  C   UNL     1     103.339 124.969 147.107  0.00  0.00    +0.000 C 
ATOM     30  C   UNL     1     104.635 124.533 146.692  0.00  0.00    +0.000 C 
BRANCH  29  32
ATOM     31  O   UNL     1     103.121 125.881 148.186  0.00  0.00    +0.000 OA
ATOM     32  C   UNL     1     102.859 125.518 147.494  0.00  0.00    +0.000 C 
ENDBRANCH  29  32
ENDBRANCH  21  30
ENDBRANCH   5  21
BRANCH   6  33
ATOM     33  C   UNL     1     106.618 125.508 147.450  0.00  0.00    +0.000 C 
BRANCH  33  34
ATOM     34  C   UNL     1     107.415 125.319 147.552  0.00  0.00    +0.000 C 
BRANCH  34  36
ATOM     35  O   UNL     1     106.985 125.247 148.634  0.00  0.00    +0.000 OA
ATOM     36  C   UNL     1     107.672 124.983 148.260  0.00  0.00    +0.000 C 
ATOM     37  C   UNL     1     107.928 124.648 148.969  0.00  0.00    +0.000 C 
ATOM     38  C   UNL     1     108.359 124.720 147.886  0.00  0.00    +0.000 C 
ENDBRANCH  34  36
ENDBRANCH  33  34
ENDBRANCH   6  33
TORSDOF 7
ENDMDL
MODEL 4
REMARK VINA RESULT:      -8.7      2.868      5.773
REMARK  Name = 44258781
REMARK  7 active torsions:
REMARK  status: ('A' for Active; 'I' for Inactive)
REMARK    1  A    between atoms: O_2  and  C_17
REMARK    2  A    between atoms: O_2  and  C_19
REMARK    3  A    between atoms: C_16  and  C_18
REMARK    4  A    between atoms: C_20  and  C_21
REMARK    5  A    between atoms: C_21  and  C_22
REMARK    6  A    between atoms: C_22  and  C_23
REMARK    7  A    between atoms: C_31  and  C_33
REMARK                            x       y       z     vdW  Elec       q    Type
REMARK                         _______ _______ _______ _____ _____    ______ ____
ROOT
ATOM      1  O   UNL     1     110.574 127.528 136.490  0.00  0.00    +0.000 OA
ATOM      2  O   UNL     1     108.093 128.900 135.906  0.00  0.00    +0.000 OA
ATOM      3  O   UNL     1     108.158 127.468 135.734  0.00  0.00    +0.000 OA
ATOM      4  O   UNL     1     109.047 126.034 135.817  0.00  0.00    +0.000 OA
ATOM      5  C   UNL     1     110.015 129.665 136.603  0.00  0.00    +0.000 A 
ATOM      6  C   UNL     1     109.228 129.642 136.357  0.00  0.00    +0.000 A 
ATOM      7  C   UNL     1     108.880 128.922 136.153  0.00  0.00    +0.000 A 
ATOM      8  C   UNL     1     110.454 128.967 136.645  0.00  0.00    +0.000 A 
ATOM      9  C   UNL     1     109.320 128.225 136.195  0.00  0.00    +0.000 A 
ATOM     10  C   UNL     1     110.106 128.248 136.441  0.00  0.00    +0.000 A 
ATOM     11  C   UNL     1     108.946 127.482 135.980  0.00  0.00    +0.000 A 
ATOM     12  C   UNL     1     110.218 126.776 136.278  0.00  0.00    +0.000 A 
ATOM     13  C   UNL     1     109.398 126.752 136.022  0.00  0.00    +0.000 A 
ENDROOT
BRANCH  12  15
ATOM     14  O   UNL     1     111.984 123.994 136.450  0.00  0.00    +0.000 OA
ATOM     15  C   UNL     1     110.660 126.080 136.322  0.00  0.00    +0.000 A 
ATOM     16  C   UNL     1     110.758 125.698 137.046  0.00  0.00    +0.000 A 
ATOM     17  C   UNL     1     111.003 125.767 135.640  0.00  0.00    +0.000 A 
ATOM     18  C   UNL     1     111.199 125.002 137.089  0.00  0.00    +0.000 A 
ATOM     19  C   UNL     1     111.445 125.071 135.683  0.00  0.00    +0.000 A 
ATOM     20  C   UNL     1     111.543 124.689 136.407  0.00  0.00    +0.000 A 
ENDBRANCH  12  15
BRANCH   5  21
ATOM     21  O   UNL     1     110.363 130.384 136.807  0.00  0.00    +0.000 OA
BRANCH  21  30
ATOM     22  O   UNL     1     110.525 130.199 138.215  0.00  0.00    +0.000 OA
ATOM     23  O   UNL     1     112.830 131.088 138.068  0.00  0.00    +0.000 OA
ATOM     24  O   UNL     1     112.223 130.606 139.525  0.00  0.00    +0.000 OA
ATOM     25  O   UNL     1     111.900 130.977 136.709  0.00  0.00    +0.000 OA
ATOM     26  C   UNL     1     112.061 130.792 138.117  0.00  0.00    +0.000 C 
ATOM     27  C   UNL     1     111.758 130.551 138.845  0.00  0.00    +0.000 C 
ATOM     28  C   UNL     1     111.596 130.736 137.437  0.00  0.00    +0.000 C 
ATOM     29  C   UNL     1     110.989 130.254 138.894  0.00  0.00    +0.000 C 
ATOM     30  C   UNL     1     110.828 130.440 137.486  0.00  0.00    +0.000 C 
BRANCH  29  32
ATOM     31  O   UNL     1     109.903 130.178 139.819  0.00  0.00    +0.000 OA
ATOM     32  C   UNL     1     110.686 130.013 139.623  0.00  0.00    +0.000 C 
ENDBRANCH  29  32
ENDBRANCH  21  30
ENDBRANCH   5  21
BRANCH   6  33
ATOM     33  C   UNL     1     108.789 130.339 136.315  0.00  0.00    +0.000 C 
BRANCH  33  34
ATOM     34  C   UNL     1     108.571 130.645 135.579  0.00  0.00    +0.000 C 
BRANCH  34  36
ATOM     35  O   UNL     1     107.736 131.172 136.201  0.00  0.00    +0.000 OA
ATOM     36  C   UNL     1     108.181 131.371 135.535  0.00  0.00    +0.000 C 
ATOM     37  C   UNL     1     107.791 132.096 135.491  0.00  0.00    +0.000 C 
ATOM     38  C   UNL     1     108.626 131.569 134.869  0.00  0.00    +0.000 C 
ENDBRANCH  34  36
ENDBRANCH  33  34
ENDBRANCH   6  33
TORSDOF 7
ENDMDL
MODEL 5
REMARK VINA RESULT:      -8.7      2.099      3.800
REMARK  Name = 44258781
REMARK  7 active torsions:
REMARK  status: ('A' for Active; 'I' for Inactive)
REMARK    1  A    between atoms: O_2  and  C_17
REMARK    2  A    between atoms: O_2  and  C_19
REMARK    3  A    between atoms: C_16  and  C_18
REMARK    4  A    between atoms: C_20  and  C_21
REMARK    5  A    between atoms: C_21  and  C_22
REMARK    6  A    between atoms: C_22  and  C_23
REMARK    7  A    between atoms: C_31  and  C_33
REMARK                            x       y       z     vdW  Elec       q    Type
REMARK                         _______ _______ _______ _____ _____    ______ ____
ROOT
ATOM      1  O   UNL     1     110.916 128.891 136.486  0.00  0.00    +0.000 OA
ATOM      2  O   UNL     1     111.873 126.595 137.966  0.00  0.00    +0.000 OA
ATOM      3  O   UNL     1     110.480 126.960 138.066  0.00  0.00    +0.000 OA
ATOM      4  O   UNL     1     109.213 127.989 137.629  0.00  0.00    +0.000 OA
ATOM      5  C   UNL     1     112.922 127.974 136.639  0.00  0.00    +0.000 A 
ATOM      6  C   UNL     1     112.777 127.345 137.154  0.00  0.00    +0.000 A 
ATOM      7  C   UNL     1     112.017 127.223 137.452  0.00  0.00    +0.000 A 
ATOM      8  C   UNL     1     112.307 128.479 136.422  0.00  0.00    +0.000 A 
ATOM      9  C   UNL     1     111.403 127.729 137.234  0.00  0.00    +0.000 A 
ATOM     10  C   UNL     1     111.548 128.357 136.720  0.00  0.00    +0.000 A 
ATOM     11  C   UNL     1     110.616 127.591 137.551  0.00  0.00    +0.000 A 
ATOM     12  C   UNL     1     110.123 128.769 136.793  0.00  0.00    +0.000 A 
ATOM     13  C   UNL     1     109.971 128.115 137.329  0.00  0.00    +0.000 A 
ENDROOT
BRANCH  12  15
ATOM     14  O   UNL     1     107.672 130.798 135.918  0.00  0.00    +0.000 OA
ATOM     15  C   UNL     1     109.510 129.276 136.574  0.00  0.00    +0.000 A 
ATOM     16  C   UNL     1     109.366 129.962 137.011  0.00  0.00    +0.000 A 
ATOM     17  C   UNL     1     109.041 129.099 135.919  0.00  0.00    +0.000 A 
ATOM     18  C   UNL     1     108.753 130.469 136.792  0.00  0.00    +0.000 A 
ATOM     19  C   UNL     1     108.429 129.605 135.700  0.00  0.00    +0.000 A 
ATOM     20  C   UNL     1     108.285 130.290 136.136  0.00  0.00    +0.000 A 
ENDBRANCH  12  15
BRANCH   5  21
ATOM     21  O   UNL     1     113.682 128.096 136.341  0.00  0.00    +0.000 OA
BRANCH  21  30
ATOM     22  O   UNL     1     113.920 129.408 136.856  0.00  0.00    +0.000 OA
ATOM     23  O   UNL     1     114.907 130.080 134.688  0.00  0.00    +0.000 OA
ATOM     24  O   UNL     1     114.816 131.168 135.926  0.00  0.00    +0.000 OA
ATOM     25  O   UNL     1     114.340 128.544 134.896  0.00  0.00    +0.000 OA
ATOM     26  C   UNL     1     114.578 129.856 135.411  0.00  0.00    +0.000 C 
ATOM     27  C   UNL     1     114.532 130.399 136.030  0.00  0.00    +0.000 C 
ATOM     28  C   UNL     1     114.294 129.088 135.515  0.00  0.00    +0.000 C 
ATOM     29  C   UNL     1     114.203 130.175 136.753  0.00  0.00    +0.000 C 
ATOM     30  C   UNL     1     113.965 128.864 136.238  0.00  0.00    +0.000 C 
BRANCH  29  32
ATOM     31  O   UNL     1     114.324 130.482 138.143  0.00  0.00    +0.000 OA
ATOM     32  C   UNL     1     114.158 130.720 137.371  0.00  0.00    +0.000 C 
ENDBRANCH  29  32
ENDBRANCH  21  30
ENDBRANCH   5  21
BRANCH   6  33
ATOM     33  C   UNL     1     113.392 126.840 137.371  0.00  0.00    +0.000 C 
BRANCH  33  34
ATOM     34  C   UNL     1     113.393 126.057 137.110  0.00  0.00    +0.000 C 
BRANCH  34  36
ATOM     35  O   UNL     1     114.098 125.906 138.027  0.00  0.00    +0.000 OA
ATOM     36  C   UNL     1     114.036 125.568 137.276  0.00  0.00    +0.000 C 
ATOM     37  C   UNL     1     114.680 125.080 137.444  0.00  0.00    +0.000 C 
ATOM     38  C   UNL     1     113.973 125.230 136.526  0.00  0.00    +0.000 C 
ENDBRANCH  34  36
ENDBRANCH  33  34
ENDBRANCH   6  33
TORSDOF 7
ENDMDL
MODEL 6
REMARK VINA RESULT:      -8.7      1.594      2.217
REMARK  Name = 44258781
REMARK  7 active torsions:
REMARK  status: ('A' for Active; 'I' for Inactive)
REMARK    1  A    between atoms: O_2  and  C_17
REMARK    2  A    between atoms: O_2  and  C_19
REMARK    3  A    between atoms: C_16  and  C_18
REMARK    4  A    between atoms: C_20  and  C_21
REMARK    5  A    between atoms: C_21  and  C_22
REMARK    6  A    between atoms: C_22  and  C_23
REMARK    7  A    between atoms: C_31  and  C_33
REMARK                            x       y       z     vdW  Elec       q    Type
REMARK                         _______ _______ _______ _____ _____    ______ ____
ROOT
ATOM      1  O   UNL     1     113.733 128.550 136.747  0.00  0.00    +0.000 OA
ATOM      2  O   UNL     1     111.833 126.526 135.931  0.00  0.00    +0.000 OA
ATOM      3  O   UNL     1     112.056 127.662 135.070  0.00  0.00    +0.000 OA
ATOM      4  O   UNL     1     112.855 129.120 134.767  0.00  0.00    +0.000 OA
ATOM      5  C   UNL     1     113.077 126.675 137.718  0.00  0.00    +0.000 A 
ATOM      6  C   UNL     1     112.531 126.388 137.170  0.00  0.00    +0.000 A 
ATOM      7  C   UNL     1     112.378 126.812 136.479  0.00  0.00    +0.000 A 
ATOM      8  C   UNL     1     113.470 127.386 137.575  0.00  0.00    +0.000 A 
ATOM      9  C   UNL     1     112.772 127.523 136.337  0.00  0.00    +0.000 A 
ATOM     10  C   UNL     1     113.317 127.810 136.884  0.00  0.00    +0.000 A 
ATOM     11  C   UNL     1     112.604 127.956 135.614  0.00  0.00    +0.000 A 
ATOM     12  C   UNL     1     113.579 128.996 136.030  0.00  0.00    +0.000 A 
ATOM     13  C   UNL     1     113.010 128.698 135.459  0.00  0.00    +0.000 A 
ENDROOT
BRANCH  12  15
ATOM     14  O   UNL     1     115.156 131.840 135.469  0.00  0.00    +0.000 OA
ATOM     15  C   UNL     1     113.973 129.707 135.890  0.00  0.00    +0.000 A 
ATOM     16  C   UNL     1     114.637 129.721 135.400  0.00  0.00    +0.000 A 
ATOM     17  C   UNL     1     113.704 130.404 136.239  0.00  0.00    +0.000 A 
ATOM     18  C   UNL     1     115.032 130.432 135.259  0.00  0.00    +0.000 A 
ATOM     19  C   UNL     1     114.098 131.115 136.099  0.00  0.00    +0.000 A 
ATOM     20  C   UNL     1     114.762 131.129 135.610  0.00  0.00    +0.000 A 
ENDBRANCH  12  15
BRANCH   5  21
ATOM     21  O   UNL     1     113.230 126.250 138.409  0.00  0.00    +0.000 OA
BRANCH  21  30
ATOM     22  O   UNL     1     112.601 127.076 139.391  0.00  0.00    +0.000 OA
ATOM     23  O   UNL     1     114.627 126.937 140.806  0.00  0.00    +0.000 OA
ATOM     24  O   UNL     1     113.322 127.809 141.316  0.00  0.00    +0.000 OA
ATOM     25  O   UNL     1     114.581 126.158 139.352  0.00  0.00    +0.000 OA
ATOM     26  C   UNL     1     113.952 126.983 140.334  0.00  0.00    +0.000 C 
ATOM     27  C   UNL     1     113.299 127.419 140.589  0.00  0.00    +0.000 C 
ATOM     28  C   UNL     1     113.928 126.594 139.607  0.00  0.00    +0.000 C 
ATOM     29  C   UNL     1     112.624 127.465 140.117  0.00  0.00    +0.000 C 
ATOM     30  C   UNL     1     113.253 126.640 139.135  0.00  0.00    +0.000 C 
BRANCH  29  32
ATOM     31  O   UNL     1     111.213 127.583 140.316  0.00  0.00    +0.000 OA
ATOM     32  C   UNL     1     111.972 127.901 140.373  0.00  0.00    +0.000 C 
ENDBRANCH  29  32
ENDBRANCH  21  30
ENDBRANCH   5  21
BRANCH   6  33
ATOM     33  C   UNL     1     112.138 125.677 137.313  0.00  0.00    +0.000 C 
BRANCH  33  34
ATOM     34  C   UNL     1     112.305 125.014 136.850  0.00  0.00    +0.000 C 
BRANCH  34  36
ATOM     35  O   UNL     1     111.320 124.623 137.339  0.00  0.00    +0.000 OA
ATOM     36  C   UNL     1     112.019 124.273 137.074  0.00  0.00    +0.000 C 
ATOM     37  C   UNL     1     111.732 123.533 137.299  0.00  0.00    +0.000 C 
ATOM     38  C   UNL     1     112.718 123.923 136.810  0.00  0.00    +0.000 C 
ENDBRANCH  34  36
ENDBRANCH  33  34
ENDBRANCH   6  33
TORSDOF 7
ENDMDL
MODEL 7
REMARK VINA RESULT:      -8.7      0.930      1.575
REMARK  Name = 44258781
REMARK  7 active torsions:
REMARK  status: ('A' for Active; 'I' for Inactive)
REMARK    1  A    between atoms: O_2  and  C_17
REMARK    2  A    between atoms: O_2  and  C_19
REMARK    3  A    between atoms: C_16  and  C_18
REMARK    4  A    between atoms: C_20  and  C_21
REMARK    5  A    between atoms: C_21  and  C_22
REMARK    6  A    between atoms: C_22  and  C_23
REMARK    7  A    between atoms: C_31  and  C_33
REMARK                            x       y       z     vdW  Elec       q    Type
REMARK                         _______ _______ _______ _____ _____    ______ ____
ROOT
ATOM      1  O   UNL     1     112.007 129.185 137.585  0.00  0.00    +0.000 OA
ATOM      2  O   UNL     1     112.247 126.910 135.813  0.00  0.00    +0.000 OA
ATOM      3  O   UNL     1     111.742 128.155 135.287  0.00  0.00    +0.000 OA
ATOM      4  O   UNL     1     111.319 129.772 135.536  0.00  0.00    +0.000 OA
ATOM      5  C   UNL     1     112.714 127.120 137.935  0.00  0.00    +0.000 A 
ATOM      6  C   UNL     1     112.626 126.787 137.185  0.00  0.00    +0.000 A 
ATOM      7  C   UNL     1     112.334 127.243 136.562  0.00  0.00    +0.000 A 
ATOM      8  C   UNL     1     112.509 127.909 138.062  0.00  0.00    +0.000 A 
ATOM      9  C   UNL     1     112.129 128.032 136.691  0.00  0.00    +0.000 A 
ATOM     10  C   UNL     1     112.216 128.365 137.440  0.00  0.00    +0.000 A 
ATOM     11  C   UNL     1     111.826 128.496 136.035  0.00  0.00    +0.000 A 
ATOM     12  C   UNL     1     111.702 129.666 136.941  0.00  0.00    +0.000 A 
ATOM     13  C   UNL     1     111.611 129.319 136.160  0.00  0.00    +0.000 A 
ENDROOT
BRANCH  12  15
ATOM     14  O   UNL     1     110.885 132.820 137.462  0.00  0.00    +0.000 OA
ATOM     15  C   UNL     1     111.498 130.454 137.072  0.00  0.00    +0.000 A 
ATOM     16  C   UNL     1     112.065 131.047 136.987  0.00  0.00    +0.000 A 
ATOM     17  C   UNL     1     110.726 130.651 137.287  0.00  0.00    +0.000 A 
ATOM     18  C   UNL     1     111.861 131.836 137.117  0.00  0.00    +0.000 A 
ATOM     19  C   UNL     1     110.521 131.439 137.417  0.00  0.00    +0.000 A 
ATOM     20  C   UNL     1     111.089 132.031 137.332  0.00  0.00    +0.000 A 
ENDBRANCH  12  15
BRANCH   5  21
ATOM     21  O   UNL     1     113.006 126.664 138.558  0.00  0.00    +0.000 OA
BRANCH  21  30
ATOM     22  O   UNL     1     111.826 126.530 139.353  0.00  0.00    +0.000 OA
ATOM     23  O   UNL     1     113.136 127.057 141.385  0.00  0.00    +0.000 OA
ATOM     24  O   UNL     1     111.520 126.747 141.503  0.00  0.00    +0.000 OA
ATOM     25  O   UNL     1     113.879 127.016 139.913  0.00  0.00    +0.000 OA
ATOM     26  C   UNL     1     112.700 126.881 140.708  0.00  0.00    +0.000 C 
ATOM     27  C   UNL     1     111.892 126.726 140.766  0.00  0.00    +0.000 C 
ATOM     28  C   UNL     1     113.071 126.861 139.971  0.00  0.00    +0.000 C 
ATOM     29  C   UNL     1     111.455 126.551 140.089  0.00  0.00    +0.000 C 
ATOM     30  C   UNL     1     112.635 126.685 139.293  0.00  0.00    +0.000 C 
BRANCH  29  32
ATOM     31  O   UNL     1     110.326 125.730 139.782  0.00  0.00    +0.000 OA
ATOM     32  C   UNL     1     110.647 126.396 140.148  0.00  0.00    +0.000 C 
ENDBRANCH  29  32
ENDBRANCH  21  30
ENDBRANCH   5  21
BRANCH   6  33
ATOM     33  C   UNL     1     112.831 125.998 137.058  0.00  0.00    +0.000 C 
BRANCH  33  34
ATOM     34  C   UNL     1     113.504 125.813 136.616  0.00  0.00    +0.000 C 
BRANCH  34  36
ATOM     35  O   UNL     1     112.968 124.779 136.545  0.00  0.00    +0.000 OA
ATOM     36  C   UNL     1     113.755 125.029 136.558  0.00  0.00    +0.000 C 
ATOM     37  C   UNL     1     114.005 124.245 136.499  0.00  0.00    +0.000 C 
ATOM     38  C   UNL     1     114.540 125.280 136.571  0.00  0.00    +0.000 C 
ENDBRANCH  34  36
ENDBRANCH  33  34
ENDBRANCH   6  33
TORSDOF 7
ENDMDL
MODEL 8
REMARK VINA RESULT:      -8.7      1.431      1.688
REMARK  Name = 44258781
REMARK  7 active torsions:
REMARK  status: ('A' for Active; 'I' for Inactive)
REMARK    1  A    between atoms: O_2  and  C_17
REMARK    2  A    between atoms: O_2  and  C_19
REMARK    3  A    between atoms: C_16  and  C_18
REMARK    4  A    between atoms: C_20  and  C_21
REMARK    5  A    between atoms: C_21  and  C_22
REMARK    6  A    between atoms: C_22  and  C_23
REMARK    7  A    between atoms: C_31  and  C_33
REMARK                            x       y       z     vdW  Elec       q    Type
REMARK                         _______ _______ _______ _____ _____    ______ ____
ROOT
ATOM      1  O   UNL     1     110.634 128.208 137.128  0.00  0.00    +0.000 OA
ATOM      2  O   UNL     1     113.224 127.296 136.216  0.00  0.00    +0.000 OA
ATOM      3  O   UNL     1     112.496 128.249 135.413  0.00  0.00    +0.000 OA
ATOM      4  O   UNL     1     111.121 129.204 135.182  0.00  0.00    +0.000 OA
ATOM      5  C   UNL     1     112.082 126.786 138.004  0.00  0.00    +0.000 A 
ATOM      6  C   UNL     1     112.688 126.801 137.443  0.00  0.00    +0.000 A 
ATOM      7  C   UNL     1     112.620 127.281 136.776  0.00  0.00    +0.000 A 
ATOM      8  C   UNL     1     111.409 127.250 137.897  0.00  0.00    +0.000 A 
ATOM      9  C   UNL     1     111.945 127.745 136.669  0.00  0.00    +0.000 A 
ATOM     10  C   UNL     1     111.341 127.729 137.229  0.00  0.00    +0.000 A 
ATOM     11  C   UNL     1     111.886 128.240 135.969  0.00  0.00    +0.000 A 
ATOM     12  C   UNL     1     110.556 128.709 136.435  0.00  0.00    +0.000 A 
ATOM     13  C   UNL     1     111.186 128.726 135.851  0.00  0.00    +0.000 A 
ENDROOT
BRANCH  12  15
ATOM     14  O   UNL     1     107.857 130.560 136.015  0.00  0.00    +0.000 OA
ATOM     15  C   UNL     1     109.881 129.172 136.330  0.00  0.00    +0.000 A 
ATOM     16  C   UNL     1     109.858 129.941 136.628  0.00  0.00    +0.000 A 
ATOM     17  C   UNL     1     109.230 128.866 135.928  0.00  0.00    +0.000 A 
ATOM     18  C   UNL     1     109.183 130.404 136.523  0.00  0.00    +0.000 A 
ATOM     19  C   UNL     1     108.555 129.328 135.822  0.00  0.00    +0.000 A 
ATOM     20  C   UNL     1     108.532 130.097 136.120  0.00  0.00    +0.000 A 
ENDBRANCH  12  15
BRANCH   5  21
ATOM     21  O   UNL     1     112.151 126.306 138.672  0.00  0.00    +0.000 OA
BRANCH  21  30
ATOM     22  O   UNL     1     112.332 127.291 139.692  0.00  0.00    +0.000 OA
ATOM     23  O   UNL     1     110.653 126.140 141.100  0.00  0.00    +0.000 OA
ATOM     24  O   UNL     1     111.393 127.508 141.651  0.00  0.00    +0.000 OA
ATOM     25  O   UNL     1     111.032 125.539 139.611  0.00  0.00    +0.000 OA
ATOM     26  C   UNL     1     111.212 126.524 140.631  0.00  0.00    +0.000 C 
ATOM     27  C   UNL     1     111.583 127.208 140.906  0.00  0.00    +0.000 C 
ATOM     28  C   UNL     1     111.402 126.223 139.886  0.00  0.00    +0.000 C 
ATOM     29  C   UNL     1     112.142 127.591 140.436  0.00  0.00    +0.000 C 
ATOM     30  C   UNL     1     111.962 126.607 139.416  0.00  0.00    +0.000 C 
BRANCH  29  32
ATOM     31  O   UNL     1     113.323 128.378 140.605  0.00  0.00    +0.000 OA
ATOM     32  C   UNL     1     112.512 128.275 140.712  0.00  0.00    +0.000 C 
ENDBRANCH  29  32
ENDBRANCH  21  30
ENDBRANCH   5  21
BRANCH   6  33
ATOM     33  C   UNL     1     113.361 126.337 137.551  0.00  0.00    +0.000 C 
BRANCH  33  34
ATOM     34  C   UNL     1     113.494 125.684 137.064  0.00  0.00    +0.000 C 
BRANCH  34  36
ATOM     35  O   UNL     1     114.565 125.796 137.513  0.00  0.00    +0.000 OA
ATOM     36  C   UNL     1     114.114 125.165 137.230  0.00  0.00    +0.000 C 
ATOM     37  C   UNL     1     114.734 124.648 137.397  0.00  0.00    +0.000 C 
ATOM     38  C   UNL     1     113.662 124.536 136.948  0.00  0.00    +0.000 C 
ENDBRANCH  34  36
ENDBRANCH  33  34
ENDBRANCH   6  33
TORSDOF 7
ENDMDL
MODEL 9
REMARK VINA RESULT:      -8.6      2.369      4.776
REMARK  Name = 44258781
REMARK  7 active torsions:
REMARK  status: ('A' for Active; 'I' for Inactive)
REMARK    1  A    between atoms: O_2  and  C_17
REMARK    2  A    between atoms: O_2  and  C_19
REMARK    3  A    between atoms: C_16  and  C_18
REMARK    4  A    between atoms: C_20  and  C_21
REMARK    5  A    between atoms: C_21  and  C_22
REMARK    6  A    between atoms: C_22  and  C_23
REMARK    7  A    between atoms: C_31  and  C_33
REMARK                            x       y       z     vdW  Elec       q    Type
REMARK                         _______ _______ _______ _____ _____    ______ ____
ROOT
ATOM      1  O   UNL     1     110.601 126.198 139.099  0.00  0.00    +0.000 OA
ATOM      2  O   UNL     1     113.488 126.331 138.937  0.00  0.00    +0.000 OA
ATOM      3  O   UNL     1     112.844 126.623 140.195  0.00  0.00    +0.000 OA
ATOM      4  O   UNL     1     111.425 126.775 141.100  0.00  0.00    +0.000 OA
ATOM      5  C   UNL     1     111.996 125.841 137.421  0.00  0.00    +0.000 A 
ATOM      6  C   UNL     1     112.726 125.980 137.781  0.00  0.00    +0.000 A 
ATOM      7  C   UNL     1     112.759 126.192 138.578  0.00  0.00    +0.000 A 
ATOM      8  C   UNL     1     111.300 125.913 137.858  0.00  0.00    +0.000 A 
ATOM      9  C   UNL     1     112.062 126.264 139.014  0.00  0.00    +0.000 A 
ATOM     10  C   UNL     1     111.333 126.125 138.655  0.00  0.00    +0.000 A 
ATOM     11  C   UNL     1     112.110 126.486 139.843  0.00  0.00    +0.000 A 
ATOM     12  C   UNL     1     110.629 126.418 139.929  0.00  0.00    +0.000 A 
ATOM     13  C   UNL     1     111.388 126.563 140.304  0.00  0.00    +0.000 A 
ENDROOT
BRANCH  12  15
ATOM     14  O   UNL     1     107.838 126.705 141.666  0.00  0.00    +0.000 OA
ATOM     15  C   UNL     1     109.931 126.490 140.363  0.00  0.00    +0.000 A 
ATOM     16  C   UNL     1     109.615 127.237 140.516  0.00  0.00    +0.000 A 
ATOM     17  C   UNL     1     109.549 125.815 140.645  0.00  0.00    +0.000 A 
ATOM     18  C   UNL     1     108.918 127.309 140.951  0.00  0.00    +0.000 A 
ATOM     19  C   UNL     1     108.851 125.886 141.079  0.00  0.00    +0.000 A 
ATOM     20  C   UNL     1     108.536 126.633 141.232  0.00  0.00    +0.000 A 
ENDBRANCH  12  15
BRANCH   5  21
ATOM     21  O   UNL     1     111.963 125.629 136.624  0.00  0.00    +0.000 OA
BRANCH  21  30
ATOM     22  O   UNL     1     111.378 126.801 136.054  0.00  0.00    +0.000 OA
ATOM     23  O   UNL     1     109.792 125.390 134.781  0.00  0.00    +0.000 OA
ATOM     24  O   UNL     1     109.735 127.033 134.635  0.00  0.00    +0.000 OA
ATOM     25  O   UNL     1     110.905 124.688 135.776  0.00  0.00    +0.000 OA
ATOM     26  C   UNL     1     110.320 125.861 135.205  0.00  0.00    +0.000 C 
ATOM     27  C   UNL     1     110.293 126.682 135.133  0.00  0.00    +0.000 C 
ATOM     28  C   UNL     1     110.878 125.509 135.703  0.00  0.00    +0.000 C 
ATOM     29  C   UNL     1     110.822 127.152 135.557  0.00  0.00    +0.000 C 
ATOM     30  C   UNL     1     111.406 125.980 136.127  0.00  0.00    +0.000 C 
BRANCH  29  32
ATOM     31  O   UNL     1     111.490 128.404 135.389  0.00  0.00    +0.000 OA
ATOM     32  C   UNL     1     110.793 127.973 135.483  0.00  0.00    +0.000 C 
ENDBRANCH  29  32
ENDBRANCH  21  30
ENDBRANCH   5  21
BRANCH   6  33
ATOM     33  C   UNL     1     113.421 125.907 137.344  0.00  0.00    +0.000 C 
BRANCH  33  34
ATOM     34  C   UNL     1     113.948 125.292 137.506  0.00  0.00    +0.000 C 
BRANCH  34  36
ATOM     35  O   UNL     1     114.583 125.939 136.771  0.00  0.00    +0.000 OA
ATOM     36  C   UNL     1     114.578 125.144 136.995  0.00  0.00    +0.000 C 
ATOM     37  C   UNL     1     115.209 124.997 136.484  0.00  0.00    +0.000 C 
ATOM     38  C   UNL     1     114.573 124.350 137.219  0.00  0.00    +0.000 C 
ENDBRANCH  34  36
ENDBRANCH  33  34
ENDBRANCH   6  33
TORSDOF 7
ENDMDL
MODEL 10
REMARK VINA RESULT:      -8.6      7.888     11.223
REMARK  Name = 44258781
REMARK  7 active torsions:
REMARK  status: ('A' for Active; 'I' for Inactive)
REMARK    1  A    between atoms: O_2  and  C_17
REMARK    2  A    between atoms: O_2  and  C_19
REMARK    3  A    between atoms: C_16  and  C_18
REMARK    4  A    between atoms: C_20  and  C_21
REMARK    5  A    between atoms: C_21  and  C_22
REMARK    6  A    between atoms: C_22  and  C_23
REMARK    7  A    between atoms: C_31  and  C_33
REMARK                            x       y       z     vdW  Elec       q    Type
REMARK                         _______ _______ _______ _____ _____    ______ ____
ROOT
ATOM      1  O   UNL     1     104.836 125.520 145.487  0.00  0.00    +0.000 OA
ATOM      2  O   UNL     1     107.264 126.725 146.499  0.00  0.00    +0.000 OA
ATOM      3  O   UNL     1     106.669 125.633 147.231  0.00  0.00    +0.000 OA
ATOM      4  O   UNL     1     105.438 124.484 147.380  0.00  0.00    +0.000 OA
ATOM      5  C   UNL     1     106.080 127.180 144.723  0.00  0.00    +0.000 A 
ATOM      6  C   UNL     1     106.676 127.215 145.293  0.00  0.00    +0.000 A 
ATOM      7  C   UNL     1     106.669 126.691 145.930  0.00  0.00    +0.000 A 
ATOM      8  C   UNL     1     105.477 126.621 144.791  0.00  0.00    +0.000 A 
ATOM      9  C   UNL     1     106.065 126.132 145.997  0.00  0.00    +0.000 A 
ATOM     10  C   UNL     1     105.470 126.097 145.428  0.00  0.00    +0.000 A 
ATOM     11  C   UNL     1     106.068 125.592 146.665  0.00  0.00    +0.000 A 
ATOM     12  C   UNL     1     104.822 124.971 146.148  0.00  0.00    +0.000 A 
ATOM     13  C   UNL     1     105.442 125.007 146.741  0.00  0.00    +0.000 A 
ENDROOT
BRANCH  12  15
ATOM     14  O   UNL     1     102.405 122.740 146.407  0.00  0.00    +0.000 OA
ATOM     15  C   UNL     1     104.218 124.413 146.213  0.00  0.00    +0.000 A 
ATOM     16  C   UNL     1     103.553 124.577 146.673  0.00  0.00    +0.000 A 
ATOM     17  C   UNL     1     104.278 123.692 145.817  0.00  0.00    +0.000 A 
ATOM     18  C   UNL     1     102.949 124.019 146.738  0.00  0.00    +0.000 A 
ATOM     19  C   UNL     1     103.674 123.134 145.881  0.00  0.00    +0.000 A 
ATOM     20  C   UNL     1     103.009 123.297 146.342  0.00  0.00    +0.000 A 
ENDBRANCH  12  15
BRANCH   5  21
ATOM     21  O   UNL     1     106.087 127.704 144.086  0.00  0.00    +0.000 OA
BRANCH  21  30
ATOM     22  O   UNL     1     106.371 126.792 143.023  0.00  0.00    +0.000 OA
ATOM     23  O   UNL     1     104.630 127.871 141.633  0.00  0.00    +0.000 OA
ATOM     24  O   UNL     1     105.493 126.600 141.034  0.00  0.00    +0.000 OA
ATOM     25  O   UNL     1     104.927 128.424 143.160  0.00  0.00    +0.000 OA
ATOM     26  C   UNL     1     105.210 127.512 142.097  0.00  0.00    +0.000 C 
ATOM     27  C   UNL     1     105.642 126.876 141.797  0.00  0.00    +0.000 C 
ATOM     28  C   UNL     1     105.359 127.788 142.860  0.00  0.00    +0.000 C 
ATOM     29  C   UNL     1     106.222 126.516 142.261  0.00  0.00    +0.000 C 
ATOM     30  C   UNL     1     105.939 127.428 143.324  0.00  0.00    +0.000 C 
BRANCH  29  32
ATOM     31  O   UNL     1     107.462 125.821 142.112  0.00  0.00    +0.000 OA
ATOM     32  C   UNL     1     106.654 125.880 141.960  0.00  0.00    +0.000 C 
ENDBRANCH  29  32
ENDBRANCH  21  30
ENDBRANCH   5  21
BRANCH   6  33
ATOM     33  C   UNL     1     107.279 127.774 145.225  0.00  0.00    +0.000 C 
BRANCH  33  34
ATOM     34  C   UNL     1     107.299 128.422 145.736  0.00  0.00    +0.000 C 
BRANCH  34  36
ATOM     35  O   UNL     1     108.402 128.472 145.358  0.00  0.00    +0.000 OA
ATOM     36  C   UNL     1     107.846 129.027 145.612  0.00  0.00    +0.000 C 
ATOM     37  C   UNL     1     108.393 129.632 145.487  0.00  0.00    +0.000 C 
ATOM     38  C   UNL     1     107.290 129.581 145.866  0.00  0.00    +0.000 C 
ENDBRANCH  34  36
ENDBRANCH  33  34
ENDBRANCH   6  33
TORSDOF 7
ENDMDL
