MODEL 1
REMARK VINA RESULT:      -8.8      0.000      0.000
REMARK  Name = 42607611
REMARK  6 active torsions:
REMARK  status: ('A' for Active; 'I' for Inactive)
REMARK    1  A    between atoms: O_2  and  C_16
REMARK    2  A    between atoms: O_2  and  C_18
REMARK    3  A    between atoms: C_15  and  C_17
REMARK    4  A    between atoms: C_19  and  C_23
REMARK    5  A    between atoms: C_23  and  C_25
REMARK    6  A    between atoms: C_26  and  C_27
REMARK                            x       y       z     vdW  Elec       q    Type
REMARK                         _______ _______ _______ _____ _____    ______ ____
ROOT
ATOM      1  O   UNL     1     108.483 125.466 147.610  0.00  0.00    +0.000 OA
ATOM      2  O   UNL     1     107.175 123.903 149.612  0.00  0.00    +0.000 OA
ATOM      3  C   UNL     1     106.383 124.920 147.850  0.00  0.00    +0.000 A 
ATOM      4  C   UNL     1     107.073 125.252 147.540  0.00  0.00    +0.000 A 
ATOM      5  C   UNL     1     106.418 124.470 148.541  0.00  0.00    +0.000 A 
ATOM      6  C   UNL     1     107.795 125.134 147.920  0.00  0.00    +0.000 A 
ATOM      7  C   UNL     1     107.141 124.353 148.922  0.00  0.00    +0.000 A 
ATOM      8  C   UNL     1     107.829 124.685 148.611  0.00  0.00    +0.000 A 
ENDROOT
BRANCH   4  10
ATOM      9  O   UNL     1     107.067 125.330 146.113  0.00  0.00    +0.000 OA
ATOM     10  C   UNL     1     107.038 125.701 146.849  0.00  0.00    +0.000 C 
BRANCH  10  11
ATOM     11  C   UNL     1     106.973 126.523 146.895  0.00  0.00    +0.000 C 
ATOM     12  C   UNL     1     106.917 126.971 146.205  0.00  0.00    +0.000 C 
BRANCH  12  15
ATOM     13  O   UNL     1     108.005 129.570 145.725  0.00  0.00    +0.000 OA
ATOM     14  O   UNL     1     106.659 130.256 146.388  0.00  0.00    +0.000 OA
ATOM     15  C   UNL     1     106.852 127.793 146.250  0.00  0.00    +0.000 A 
ATOM     16  C   UNL     1     107.461 128.270 145.965  0.00  0.00    +0.000 A 
ATOM     17  C   UNL     1     106.179 128.136 146.582  0.00  0.00    +0.000 A 
ATOM     18  C   UNL     1     107.396 129.092 146.011  0.00  0.00    +0.000 A 
ATOM     19  C   UNL     1     106.114 128.957 146.627  0.00  0.00    +0.000 A 
ATOM     20  C   UNL     1     106.723 129.435 146.342  0.00  0.00    +0.000 A 
ENDBRANCH  12  15
ENDBRANCH  10  11
ENDBRANCH   4  10
BRANCH   3  21
ATOM     21  O   UNL     1     105.661 125.037 147.470  0.00  0.00    +0.000 OA
BRANCH  21  30
ATOM     22  O   UNL     1     104.858 125.540 148.538  0.00  0.00    +0.000 OA
ATOM     23  O   UNL     1     103.060 123.949 147.936  0.00  0.00    +0.000 OA
ATOM     24  O   UNL     1     102.855 124.984 149.206  0.00  0.00    +0.000 OA
ATOM     25  O   UNL     1     104.462 123.976 147.069  0.00  0.00    +0.000 OA
ATOM     26  C   UNL     1     103.659 124.480 148.137  0.00  0.00    +0.000 C 
ATOM     27  C   UNL     1     103.557 124.997 148.772  0.00  0.00    +0.000 C 
ATOM     28  C   UNL     1     104.361 124.494 147.703  0.00  0.00    +0.000 C 
ATOM     29  C   UNL     1     104.156 125.528 148.973  0.00  0.00    +0.000 C 
ATOM     30  C   UNL     1     104.960 125.024 147.904  0.00  0.00    +0.000 C 
BRANCH  29  32
ATOM     31  O   UNL     1     104.276 126.836 149.535  0.00  0.00    +0.000 OA
ATOM     32  C   UNL     1     104.054 126.044 149.607  0.00  0.00    +0.000 C 
ENDBRANCH  29  32
ENDBRANCH  21  30
ENDBRANCH   3  21
TORSDOF 6
ENDMDL
MODEL 2
REMARK VINA RESULT:      -8.6     11.969     13.963
REMARK  Name = 42607611
REMARK  6 active torsions:
REMARK  status: ('A' for Active; 'I' for Inactive)
REMARK    1  A    between atoms: O_2  and  C_16
REMARK    2  A    between atoms: O_2  and  C_18
REMARK    3  A    between atoms: C_15  and  C_17
REMARK    4  A    between atoms: C_19  and  C_23
REMARK    5  A    between atoms: C_23  and  C_25
REMARK    6  A    between atoms: C_26  and  C_27
REMARK                            x       y       z     vdW  Elec       q    Type
REMARK                         _______ _______ _______ _____ _____    ______ ____
ROOT
ATOM      1  O   UNL     1     114.542 128.896 134.654  0.00  0.00    +0.000 OA
ATOM      2  O   UNL     1     114.904 131.413 135.955  0.00  0.00    +0.000 OA
ATOM      3  C   UNL     1     113.663 129.699 136.484  0.00  0.00    +0.000 A 
ATOM      4  C   UNL     1     113.837 129.183 135.863  0.00  0.00    +0.000 A 
ATOM      5  C   UNL     1     114.019 130.442 136.514  0.00  0.00    +0.000 A 
ATOM      6  C   UNL     1     114.368 129.411 135.274  0.00  0.00    +0.000 A 
ATOM      7  C   UNL     1     114.549 130.670 135.924  0.00  0.00    +0.000 A 
ATOM      8  C   UNL     1     114.723 130.155 135.305  0.00  0.00    +0.000 A 
ENDROOT
BRANCH   4  10
ATOM      9  O   UNL     1     112.765 128.340 135.436  0.00  0.00    +0.000 OA
ATOM     10  C   UNL     1     113.481 128.439 135.833  0.00  0.00    +0.000 C 
BRANCH  10  11
ATOM     11  C   UNL     1     113.843 127.794 136.201  0.00  0.00    +0.000 C 
ATOM     12  C   UNL     1     113.466 127.060 136.207  0.00  0.00    +0.000 C 
BRANCH  12  15
ATOM     13  O   UNL     1     113.864 125.435 138.524  0.00  0.00    +0.000 OA
ATOM     14  O   UNL     1     114.910 124.482 137.676  0.00  0.00    +0.000 OA
ATOM     15  C   UNL     1     113.828 126.415 136.575  0.00  0.00    +0.000 A 
ATOM     16  C   UNL     1     113.665 126.248 137.366  0.00  0.00    +0.000 A 
ATOM     17  C   UNL     1     114.351 125.939 136.151  0.00  0.00    +0.000 A 
ATOM     18  C   UNL     1     114.026 125.603 137.733  0.00  0.00    +0.000 A 
ATOM     19  C   UNL     1     114.712 125.295 136.518  0.00  0.00    +0.000 A 
ATOM     20  C   UNL     1     114.550 125.126 137.309  0.00  0.00    +0.000 A 
ENDBRANCH  12  15
ENDBRANCH  10  11
ENDBRANCH   4  10
BRANCH   3  21
ATOM     21  O   UNL     1     113.133 129.470 137.073  0.00  0.00    +0.000 OA
BRANCH  21  30
ATOM     22  O   UNL     1     112.120 130.470 136.953  0.00  0.00    +0.000 OA
ATOM     23  O   UNL     1     112.183 130.828 139.401  0.00  0.00    +0.000 OA
ATOM     24  O   UNL     1     111.149 131.710 138.465  0.00  0.00    +0.000 OA
ATOM     25  O   UNL     1     113.174 129.709 138.705  0.00  0.00    +0.000 OA
ATOM     26  C   UNL     1     112.162 130.709 138.585  0.00  0.00    +0.000 C 
ATOM     27  C   UNL     1     111.645 131.150 138.116  0.00  0.00    +0.000 C 
ATOM     28  C   UNL     1     112.658 130.149 138.237  0.00  0.00    +0.000 C 
ATOM     29  C   UNL     1     111.624 131.031 137.300  0.00  0.00    +0.000 C 
ATOM     30  C   UNL     1     112.637 130.030 137.421  0.00  0.00    +0.000 C 
BRANCH  29  32
ATOM     31  O   UNL     1     110.670 131.101 136.239  0.00  0.00    +0.000 OA
ATOM     32  C   UNL     1     111.107 131.471 136.832  0.00  0.00    +0.000 C 
ENDBRANCH  29  32
ENDBRANCH  21  30
ENDBRANCH   3  21
TORSDOF 6
ENDMDL
MODEL 3
REMARK VINA RESULT:      -8.5      6.583      8.022
REMARK  Name = 42607611
REMARK  6 active torsions:
REMARK  status: ('A' for Active; 'I' for Inactive)
REMARK    1  A    between atoms: O_2  and  C_16
REMARK    2  A    between atoms: O_2  and  C_18
REMARK    3  A    between atoms: C_15  and  C_17
REMARK    4  A    between atoms: C_19  and  C_23
REMARK    5  A    between atoms: C_23  and  C_25
REMARK    6  A    between atoms: C_26  and  C_27
REMARK                            x       y       z     vdW  Elec       q    Type
REMARK                         _______ _______ _______ _____ _____    ______ ____
ROOT
ATOM      1  O   UNL     1     106.384 122.739 140.470  0.00  0.00    +0.000 OA
ATOM      2  O   UNL     1     108.228 124.810 141.156  0.00  0.00    +0.000 OA
ATOM      3  C   UNL     1     106.047 124.803 141.096  0.00  0.00    +0.000 A 
ATOM      4  C   UNL     1     105.901 124.027 140.853  0.00  0.00    +0.000 A 
ATOM      5  C   UNL     1     106.823 125.063 141.196  0.00  0.00    +0.000 A 
ATOM      6  C   UNL     1     106.530 123.513 140.712  0.00  0.00    +0.000 A 
ATOM      7  C   UNL     1     107.453 124.549 141.055  0.00  0.00    +0.000 A 
ATOM      8  C   UNL     1     107.306 123.775 140.813  0.00  0.00    +0.000 A 
ENDROOT
BRANCH   4  10
ATOM      9  O   UNL     1     104.699 123.477 141.397  0.00  0.00    +0.000 OA
ATOM     10  C   UNL     1     105.124 123.767 140.753  0.00  0.00    +0.000 C 
BRANCH  10  11
ATOM     11  C   UNL     1     104.773 123.797 140.006  0.00  0.00    +0.000 C 
ATOM     12  C   UNL     1     104.007 123.510 139.899  0.00  0.00    +0.000 C 
BRANCH  12  15
ATOM     13  O   UNL     1     101.662 123.632 138.270  0.00  0.00    +0.000 OA
ATOM     14  O   UNL     1     102.604 123.629 136.915  0.00  0.00    +0.000 OA
ATOM     15  C   UNL     1     103.656 123.540 139.152  0.00  0.00    +0.000 A 
ATOM     16  C   UNL     1     102.835 123.571 139.085  0.00  0.00    +0.000 A 
ATOM     17  C   UNL     1     104.127 123.539 138.475  0.00  0.00    +0.000 A 
ATOM     18  C   UNL     1     102.484 123.601 138.338  0.00  0.00    +0.000 A 
ATOM     19  C   UNL     1     103.776 123.568 137.730  0.00  0.00    +0.000 A 
ATOM     20  C   UNL     1     102.955 123.599 137.660  0.00  0.00    +0.000 A 
ENDBRANCH  12  15
ENDBRANCH  10  11
ENDBRANCH   4  10
BRANCH   3  21
ATOM     21  O   UNL     1     105.418 125.317 141.237  0.00  0.00    +0.000 OA
BRANCH  21  30
ATOM     22  O   UNL     1     105.704 125.740 142.570  0.00  0.00    +0.000 OA
ATOM     23  O   UNL     1     105.307 128.092 141.910  0.00  0.00    +0.000 OA
ATOM     24  O   UNL     1     105.727 127.731 143.465  0.00  0.00    +0.000 OA
ATOM     25  O   UNL     1     105.153 126.885 140.797  0.00  0.00    +0.000 OA
ATOM     26  C   UNL     1     105.440 127.308 142.130  0.00  0.00    +0.000 C 
ATOM     27  C   UNL     1     105.649 127.127 142.908  0.00  0.00    +0.000 C 
ATOM     28  C   UNL     1     105.363 126.704 141.574  0.00  0.00    +0.000 C 
ATOM     29  C   UNL     1     105.782 126.343 143.128  0.00  0.00    +0.000 C 
ATOM     30  C   UNL     1     105.495 125.920 141.794  0.00  0.00    +0.000 C 
BRANCH  29  32
ATOM     31  O   UNL     1     105.534 125.635 144.345  0.00  0.00    +0.000 OA
ATOM     32  C   UNL     1     105.991 126.163 143.905  0.00  0.00    +0.000 C 
ENDBRANCH  29  32
ENDBRANCH  21  30
ENDBRANCH   3  21
TORSDOF 6
ENDMDL
MODEL 4
REMARK VINA RESULT:      -8.4      4.163      5.639
REMARK  Name = 42607611
REMARK  6 active torsions:
REMARK  status: ('A' for Active; 'I' for Inactive)
REMARK    1  A    between atoms: O_2  and  C_16
REMARK    2  A    between atoms: O_2  and  C_18
REMARK    3  A    between atoms: C_15  and  C_17
REMARK    4  A    between atoms: C_19  and  C_23
REMARK    5  A    between atoms: C_23  and  C_25
REMARK    6  A    between atoms: C_26  and  C_27
REMARK                            x       y       z     vdW  Elec       q    Type
REMARK                         _______ _______ _______ _____ _____    ______ ____
ROOT
ATOM      1  O   UNL     1     106.392 127.402 142.116  0.00  0.00    +0.000 OA
ATOM      2  O   UNL     1     105.106 128.008 144.594  0.00  0.00    +0.000 OA
ATOM      3  C   UNL     1     105.920 126.134 143.829  0.00  0.00    +0.000 A 
ATOM      4  C   UNL     1     106.199 126.375 143.090  0.00  0.00    +0.000 A 
ATOM      5  C   UNL     1     105.555 126.678 144.330  0.00  0.00    +0.000 A 
ATOM      6  C   UNL     1     106.113 127.161 142.853  0.00  0.00    +0.000 A 
ATOM      7  C   UNL     1     105.470 127.464 144.093  0.00  0.00    +0.000 A 
ATOM      8  C   UNL     1     105.748 127.705 143.355  0.00  0.00    +0.000 A 
ENDROOT
BRANCH   4  10
ATOM      9  O   UNL     1     107.373 125.687 142.654  0.00  0.00    +0.000 OA
ATOM     10  C   UNL     1     106.563 125.830 142.589  0.00  0.00    +0.000 C 
BRANCH  10  11
ATOM     11  C   UNL     1     106.117 125.429 142.023  0.00  0.00    +0.000 C 
ATOM     12  C   UNL     1     106.479 124.878 141.527  0.00  0.00    +0.000 C 
BRANCH  12  15
ATOM     13  O   UNL     1     104.712 122.744 140.826  0.00  0.00    +0.000 OA
ATOM     14  O   UNL     1     104.694 123.273 139.263  0.00  0.00    +0.000 OA
ATOM     15  C   UNL     1     106.033 124.477 140.960  0.00  0.00    +0.000 A 
ATOM     16  C   UNL     1     105.596 123.811 141.176  0.00  0.00    +0.000 A 
ATOM     17  C   UNL     1     106.024 124.741 140.179  0.00  0.00    +0.000 A 
ATOM     18  C   UNL     1     105.149 123.410 140.610  0.00  0.00    +0.000 A 
ATOM     19  C   UNL     1     105.578 124.340 139.613  0.00  0.00    +0.000 A 
ATOM     20  C   UNL     1     105.140 123.674 139.828  0.00  0.00    +0.000 A 
ENDBRANCH  12  15
ENDBRANCH  10  11
ENDBRANCH   4  10
BRANCH   3  21
ATOM     21  O   UNL     1     106.005 125.348 144.065  0.00  0.00    +0.000 OA
BRANCH  21  30
ATOM     22  O   UNL     1     106.510 125.472 145.396  0.00  0.00    +0.000 OA
ATOM     23  O   UNL     1     104.757 123.923 146.204  0.00  0.00    +0.000 OA
ATOM     24  O   UNL     1     105.846 124.563 147.266  0.00  0.00    +0.000 OA
ATOM     25  O   UNL     1     104.837 124.315 144.604  0.00  0.00    +0.000 OA
ATOM     26  C   UNL     1     105.341 124.439 145.935  0.00  0.00    +0.000 C 
ATOM     27  C   UNL     1     105.886 124.759 146.466  0.00  0.00    +0.000 C 
ATOM     28  C   UNL     1     105.382 124.636 145.135  0.00  0.00    +0.000 C 
ATOM     29  C   UNL     1     106.471 125.276 146.196  0.00  0.00    +0.000 C 
ATOM     30  C   UNL     1     105.966 125.152 144.865  0.00  0.00    +0.000 C 
BRANCH  29  32
ATOM     31  O   UNL     1     107.815 125.404 146.663  0.00  0.00    +0.000 OA
ATOM     32  C   UNL     1     107.015 125.595 146.727  0.00  0.00    +0.000 C 
ENDBRANCH  29  32
ENDBRANCH  21  30
ENDBRANCH   3  21
TORSDOF 6
ENDMDL
MODEL 5
REMARK VINA RESULT:      -8.3     10.522     12.386
REMARK  Name = 42607611
REMARK  6 active torsions:
REMARK  status: ('A' for Active; 'I' for Inactive)
REMARK    1  A    between atoms: O_2  and  C_16
REMARK    2  A    between atoms: O_2  and  C_18
REMARK    3  A    between atoms: C_15  and  C_17
REMARK    4  A    between atoms: C_19  and  C_23
REMARK    5  A    between atoms: C_23  and  C_25
REMARK    6  A    between atoms: C_26  and  C_27
REMARK                            x       y       z     vdW  Elec       q    Type
REMARK                         _______ _______ _______ _____ _____    ______ ____
ROOT
ATOM      1  O   UNL     1     114.111 124.874 136.176  0.00  0.00    +0.000 OA
ATOM      2  O   UNL     1     111.852 123.227 136.765  0.00  0.00    +0.000 OA
ATOM      3  C   UNL     1     112.409 125.203 137.503  0.00  0.00    +0.000 A 
ATOM      4  C   UNL     1     113.117 125.327 137.097  0.00  0.00    +0.000 A 
ATOM      5  C   UNL     1     111.988 124.503 137.392  0.00  0.00    +0.000 A 
ATOM      6  C   UNL     1     113.403 124.751 136.581  0.00  0.00    +0.000 A 
ATOM      7  C   UNL     1     112.274 123.926 136.876  0.00  0.00    +0.000 A 
ATOM      8  C   UNL     1     112.981 124.050 136.471  0.00  0.00    +0.000 A 
ENDROOT
BRANCH   4  10
ATOM      9  O   UNL     1     114.026 126.116 137.868  0.00  0.00    +0.000 OA
ATOM     10  C   UNL     1     113.539 126.028 137.208  0.00  0.00    +0.000 C 
BRANCH  10  11
ATOM     11  C   UNL     1     113.472 126.640 136.659  0.00  0.00    +0.000 C 
ATOM     12  C   UNL     1     113.830 127.368 136.808  0.00  0.00    +0.000 C 
BRANCH  12  15
ATOM     13  O   UNL     1     112.313 129.488 135.637  0.00  0.00    +0.000 OA
ATOM     14  O   UNL     1     113.563 129.817 134.612  0.00  0.00    +0.000 OA
ATOM     15  C   UNL     1     113.763 127.981 136.259  0.00  0.00    +0.000 A 
ATOM     16  C   UNL     1     113.071 128.428 136.223  0.00  0.00    +0.000 A 
ATOM     17  C   UNL     1     114.389 128.145 135.746  0.00  0.00    +0.000 A 
ATOM     18  C   UNL     1     113.005 129.041 135.673  0.00  0.00    +0.000 A 
ATOM     19  C   UNL     1     114.322 128.757 135.197  0.00  0.00    +0.000 A 
ATOM     20  C   UNL     1     113.630 129.205 135.161  0.00  0.00    +0.000 A 
ENDBRANCH  12  15
ENDBRANCH  10  11
ENDBRANCH   4  10
BRANCH   3  21
ATOM     21  O   UNL     1     112.123 125.780 138.019  0.00  0.00    +0.000 OA
BRANCH  21  30
ATOM     22  O   UNL     1     110.884 126.137 137.405  0.00  0.00    +0.000 OA
ATOM     23  O   UNL     1     109.733 125.891 139.582  0.00  0.00    +0.000 OA
ATOM     24  O   UNL     1     108.878 126.331 138.242  0.00  0.00    +0.000 OA
ATOM     25  O   UNL     1     111.356 125.616 139.471  0.00  0.00    +0.000 OA
ATOM     26  C   UNL     1     110.117 125.973 138.856  0.00  0.00    +0.000 C 
ATOM     27  C   UNL     1     109.689 126.193 138.185  0.00  0.00    +0.000 C 
ATOM     28  C   UNL     1     110.928 125.835 138.800  0.00  0.00    +0.000 C 
ATOM     29  C   UNL     1     110.073 126.275 137.460  0.00  0.00    +0.000 C 
ATOM     30  C   UNL     1     111.312 125.918 138.074  0.00  0.00    +0.000 C 
BRANCH  29  32
ATOM     31  O   UNL     1     110.032 126.600 136.069  0.00  0.00    +0.000 OA
ATOM     32  C   UNL     1     109.645 126.495 136.790  0.00  0.00    +0.000 C 
ENDBRANCH  29  32
ENDBRANCH  21  30
ENDBRANCH   3  21
TORSDOF 6
ENDMDL
MODEL 6
REMARK VINA RESULT:      -8.3     10.280     12.502
REMARK  Name = 42607611
REMARK  6 active torsions:
REMARK  status: ('A' for Active; 'I' for Inactive)
REMARK    1  A    between atoms: O_2  and  C_16
REMARK    2  A    between atoms: O_2  and  C_18
REMARK    3  A    between atoms: C_15  and  C_17
REMARK    4  A    between atoms: C_19  and  C_23
REMARK    5  A    between atoms: C_23  and  C_25
REMARK    6  A    between atoms: C_26  and  C_27
REMARK                            x       y       z     vdW  Elec       q    Type
REMARK                         _______ _______ _______ _____ _____    ______ ____
ROOT
ATOM      1  O   UNL     1     108.826 126.498 138.003  0.00  0.00    +0.000 OA
ATOM      2  O   UNL     1     111.079 125.811 139.620  0.00  0.00    +0.000 OA
ATOM      3  C   UNL     1     110.943 126.322 137.503  0.00  0.00    +0.000 A 
ATOM      4  C   UNL     1     110.132 126.452 137.426  0.00  0.00    +0.000 A 
ATOM      5  C   UNL     1     111.259 126.109 138.235  0.00  0.00    +0.000 A 
ATOM      6  C   UNL     1     109.636 126.368 138.081  0.00  0.00    +0.000 A 
ATOM      7  C   UNL     1     110.763 126.025 138.889  0.00  0.00    +0.000 A 
ATOM      8  C   UNL     1     109.953 126.155 138.812  0.00  0.00    +0.000 A 
ENDROOT
BRANCH   4  10
ATOM      9  O   UNL     1     109.540 126.085 136.178  0.00  0.00    +0.000 OA
ATOM     10  C   UNL     1     109.817 126.666 136.694  0.00  0.00    +0.000 C 
BRANCH  10  11
ATOM     11  C   UNL     1     109.778 127.462 136.479  0.00  0.00    +0.000 C 
ATOM     12  C   UNL     1     109.409 127.680 135.774  0.00  0.00    +0.000 C 
BRANCH  12  15
ATOM     13  O   UNL     1     108.076 130.206 135.863  0.00  0.00    +0.000 OA
ATOM     14  O   UNL     1     109.255 130.862 134.913  0.00  0.00    +0.000 OA
ATOM     15  C   UNL     1     109.371 128.476 135.558  0.00  0.00    +0.000 A 
ATOM     16  C   UNL     1     108.743 128.943 135.818  0.00  0.00    +0.000 A 
ATOM     17  C   UNL     1     109.960 128.804 135.083  0.00  0.00    +0.000 A 
ATOM     18  C   UNL     1     108.704 129.739 135.603  0.00  0.00    +0.000 A 
ATOM     19  C   UNL     1     109.921 129.599 134.868  0.00  0.00    +0.000 A 
ATOM     20  C   UNL     1     109.293 130.067 135.128  0.00  0.00    +0.000 A 
ENDBRANCH  12  15
ENDBRANCH  10  11
ENDBRANCH   4  10
BRANCH   3  21
ATOM     21  O   UNL     1     111.439 126.406 136.849  0.00  0.00    +0.000 OA
BRANCH  21  30
ATOM     22  O   UNL     1     112.027 125.107 136.775  0.00  0.00    +0.000 OA
ATOM     23  O   UNL     1     114.266 126.134 136.540  0.00  0.00    +0.000 OA
ATOM     24  O   UNL     1     114.109 124.492 136.545  0.00  0.00    +0.000 OA
ATOM     25  O   UNL     1     112.932 127.091 136.692  0.00  0.00    +0.000 OA
ATOM     26  C   UNL     1     113.520 125.792 136.618  0.00  0.00    +0.000 C 
ATOM     27  C   UNL     1     113.441 124.970 136.621  0.00  0.00    +0.000 C 
ATOM     28  C   UNL     1     112.852 126.270 136.694  0.00  0.00    +0.000 C 
ATOM     29  C   UNL     1     112.694 124.627 136.699  0.00  0.00    +0.000 C 
ATOM     30  C   UNL     1     112.106 125.927 136.773  0.00  0.00    +0.000 C 
BRANCH  29  32
ATOM     31  O   UNL     1     111.952 123.454 136.360  0.00  0.00    +0.000 OA
ATOM     32  C   UNL     1     112.616 123.807 136.701  0.00  0.00    +0.000 C 
ENDBRANCH  29  32
ENDBRANCH  21  30
ENDBRANCH   3  21
TORSDOF 6
ENDMDL
MODEL 7
REMARK VINA RESULT:      -8.3     11.623     12.943
REMARK  Name = 42607611
REMARK  6 active torsions:
REMARK  status: ('A' for Active; 'I' for Inactive)
REMARK    1  A    between atoms: O_2  and  C_16
REMARK    2  A    between atoms: O_2  and  C_18
REMARK    3  A    between atoms: C_15  and  C_17
REMARK    4  A    between atoms: C_19  and  C_23
REMARK    5  A    between atoms: C_23  and  C_25
REMARK    6  A    between atoms: C_26  and  C_27
REMARK                            x       y       z     vdW  Elec       q    Type
REMARK                         _______ _______ _______ _____ _____    ______ ____
ROOT
ATOM      1  O   UNL     1     110.334 126.370 134.612  0.00  0.00    +0.000 OA
ATOM      2  O   UNL     1     111.180 124.075 136.090  0.00  0.00    +0.000 OA
ATOM      3  C   UNL     1     111.670 126.188 136.329  0.00  0.00    +0.000 A 
ATOM      4  C   UNL     1     111.230 126.521 135.714  0.00  0.00    +0.000 A 
ATOM      5  C   UNL     1     111.653 125.373 136.453  0.00  0.00    +0.000 A 
ATOM      6  C   UNL     1     110.774 126.037 135.225  0.00  0.00    +0.000 A 
ATOM      7  C   UNL     1     111.197 124.890 135.965  0.00  0.00    +0.000 A 
ATOM      8  C   UNL     1     110.758 125.222 135.351  0.00  0.00    +0.000 A 
ENDROOT
BRANCH   4  10
ATOM      9  O   UNL     1     111.835 127.669 135.116  0.00  0.00    +0.000 OA
ATOM     10  C   UNL     1     111.247 127.336 135.590  0.00  0.00    +0.000 C 
BRANCH  10  11
ATOM     11  C   UNL     1     110.676 127.818 135.940  0.00  0.00    +0.000 C 
ATOM     12  C   UNL     1     110.659 128.625 135.771  0.00  0.00    +0.000 C 
BRANCH  12  15
ATOM     13  O   UNL     1     108.123 129.939 135.659  0.00  0.00    +0.000 OA
ATOM     14  O   UNL     1     108.375 130.554 137.169  0.00  0.00    +0.000 OA
ATOM     15  C   UNL     1     110.087 129.108 136.121  0.00  0.00    +0.000 A 
ATOM     16  C   UNL     1     109.391 129.282 135.715  0.00  0.00    +0.000 A 
ATOM     17  C   UNL     1     110.213 129.415 136.876  0.00  0.00    +0.000 A 
ATOM     18  C   UNL     1     108.819 129.765 136.065  0.00  0.00    +0.000 A 
ATOM     19  C   UNL     1     109.643 129.897 137.225  0.00  0.00    +0.000 A 
ATOM     20  C   UNL     1     108.945 130.072 136.820  0.00  0.00    +0.000 A 
ENDBRANCH  12  15
ENDBRANCH  10  11
ENDBRANCH   4  10
BRANCH   3  21
ATOM     21  O   UNL     1     112.127 126.672 136.817  0.00  0.00    +0.000 OA
BRANCH  21  30
ATOM     22  O   UNL     1     113.401 126.035 136.717  0.00  0.00    +0.000 OA
ATOM     23  O   UNL     1     113.649 126.142 139.177  0.00  0.00    +0.000 OA
ATOM     24  O   UNL     1     114.841 125.469 138.256  0.00  0.00    +0.000 OA
ATOM     25  O   UNL     1     112.292 126.743 138.458  0.00  0.00    +0.000 OA
ATOM     26  C   UNL     1     113.566 126.106 138.357  0.00  0.00    +0.000 C 
ATOM     27  C   UNL     1     114.163 125.769 137.896  0.00  0.00    +0.000 C 
ATOM     28  C   UNL     1     112.888 126.407 137.997  0.00  0.00    +0.000 C 
ATOM     29  C   UNL     1     114.080 125.734 137.076  0.00  0.00    +0.000 C 
ATOM     30  C   UNL     1     112.805 126.371 137.177  0.00  0.00    +0.000 C 
BRANCH  29  32
ATOM     31  O   UNL     1     114.967 125.801 135.957  0.00  0.00    +0.000 OA
ATOM     32  C   UNL     1     114.676 125.397 136.616  0.00  0.00    +0.000 C 
ENDBRANCH  29  32
ENDBRANCH  21  30
ENDBRANCH   3  21
TORSDOF 6
ENDMDL
MODEL 8
REMARK VINA RESULT:      -8.3     11.534     12.616
REMARK  Name = 42607611
REMARK  6 active torsions:
REMARK  status: ('A' for Active; 'I' for Inactive)
REMARK    1  A    between atoms: O_2  and  C_16
REMARK    2  A    between atoms: O_2  and  C_18
REMARK    3  A    between atoms: C_15  and  C_17
REMARK    4  A    between atoms: C_19  and  C_23
REMARK    5  A    between atoms: C_23  and  C_25
REMARK    6  A    between atoms: C_26  and  C_27
REMARK                            x       y       z     vdW  Elec       q    Type
REMARK                         _______ _______ _______ _____ _____    ______ ____
ROOT
ATOM      1  O   UNL     1     112.769 129.314 137.628  0.00  0.00    +0.000 OA
ATOM      2  O   UNL     1     113.355 127.238 139.501  0.00  0.00    +0.000 OA
ATOM      3  C   UNL     1     112.360 127.171 137.560  0.00  0.00    +0.000 A 
ATOM      4  C   UNL     1     112.389 127.968 137.343  0.00  0.00    +0.000 A 
ATOM      5  C   UNL     1     112.682 126.929 138.279  0.00  0.00    +0.000 A 
ATOM      6  C   UNL     1     112.740 128.520 137.845  0.00  0.00    +0.000 A 
ATOM      7  C   UNL     1     113.033 127.481 138.782  0.00  0.00    +0.000 A 
ATOM      8  C   UNL     1     113.062 128.276 138.565  0.00  0.00    +0.000 A 
ENDROOT
BRANCH   4  10
ATOM      9  O   UNL     1     112.516 128.164 135.933  0.00  0.00    +0.000 OA
ATOM     10  C   UNL     1     112.067 128.210 136.623  0.00  0.00    +0.000 C 
BRANCH  10  11
ATOM     11  C   UNL     1     111.294 128.499 136.595  0.00  0.00    +0.000 C 
ATOM     12  C   UNL     1     110.965 128.724 135.872  0.00  0.00    +0.000 C 
BRANCH  12  15
ATOM     13  O   UNL     1     108.148 128.251 135.790  0.00  0.00    +0.000 OA
ATOM     14  O   UNL     1     107.876 129.878 135.757  0.00  0.00    +0.000 OA
ATOM     15  C   UNL     1     110.192 129.013 135.843  0.00  0.00    +0.000 A 
ATOM     16  C   UNL     1     109.557 128.488 135.831  0.00  0.00    +0.000 A 
ATOM     17  C   UNL     1     110.056 129.827 135.827  0.00  0.00    +0.000 A 
ATOM     18  C   UNL     1     108.784 128.777 135.802  0.00  0.00    +0.000 A 
ATOM     19  C   UNL     1     109.285 130.115 135.798  0.00  0.00    +0.000 A 
ATOM     20  C   UNL     1     108.648 129.590 135.786  0.00  0.00    +0.000 A 
ENDBRANCH  12  15
ENDBRANCH  10  11
ENDBRANCH   4  10
BRANCH   3  21
ATOM     21  O   UNL     1     112.009 126.619 137.057  0.00  0.00    +0.000 OA
BRANCH  21  30
ATOM     22  O   UNL     1     113.083 125.704 136.838  0.00  0.00    +0.000 OA
ATOM     23  O   UNL     1     111.571 123.810 137.338  0.00  0.00    +0.000 OA
ATOM     24  O   UNL     1     113.150 123.525 136.952  0.00  0.00    +0.000 OA
ATOM     25  O   UNL     1     111.001 125.356 137.391  0.00  0.00    +0.000 OA
ATOM     26  C   UNL     1     112.075 124.441 137.171  0.00  0.00    +0.000 C 
ATOM     27  C   UNL     1     112.865 124.299 136.978  0.00  0.00    +0.000 C 
ATOM     28  C   UNL     1     111.790 125.215 137.197  0.00  0.00    +0.000 C 
ATOM     29  C   UNL     1     113.369 124.931 136.811  0.00  0.00    +0.000 C 
ATOM     30  C   UNL     1     112.294 125.846 137.031  0.00  0.00    +0.000 C 
BRANCH  29  32
ATOM     31  O   UNL     1     114.568 125.320 136.139  0.00  0.00    +0.000 OA
ATOM     32  C   UNL     1     114.158 124.789 136.618  0.00  0.00    +0.000 C 
ENDBRANCH  29  32
ENDBRANCH  21  30
ENDBRANCH   3  21
TORSDOF 6
ENDMDL
MODEL 9
REMARK VINA RESULT:      -8.2     11.359     12.888
REMARK  Name = 42607611
REMARK  6 active torsions:
REMARK  status: ('A' for Active; 'I' for Inactive)
REMARK    1  A    between atoms: O_2  and  C_16
REMARK    2  A    between atoms: O_2  and  C_18
REMARK    3  A    between atoms: C_15  and  C_17
REMARK    4  A    between atoms: C_19  and  C_23
REMARK    5  A    between atoms: C_23  and  C_25
REMARK    6  A    between atoms: C_26  and  C_27
REMARK                            x       y       z     vdW  Elec       q    Type
REMARK                         _______ _______ _______ _____ _____    ______ ____
ROOT
ATOM      1  O   UNL     1     113.407 128.902 137.913  0.00  0.00    +0.000 OA
ATOM      2  O   UNL     1     110.916 129.920 138.871  0.00  0.00    +0.000 OA
ATOM      3  C   UNL     1     111.362 128.534 137.245  0.00  0.00    +0.000 A 
ATOM      4  C   UNL     1     112.186 128.499 137.293  0.00  0.00    +0.000 A 
ATOM      5  C   UNL     1     110.939 129.008 137.772  0.00  0.00    +0.000 A 
ATOM      6  C   UNL     1     112.585 128.938 137.866  0.00  0.00    +0.000 A 
ATOM      7  C   UNL     1     111.339 129.447 138.345  0.00  0.00    +0.000 A 
ATOM      8  C   UNL     1     112.161 129.412 138.392  0.00  0.00    +0.000 A 
ENDROOT
BRANCH   4  10
ATOM      9  O   UNL     1     112.878 128.339 136.053  0.00  0.00    +0.000 OA
ATOM     10  C   UNL     1     112.608 128.025 136.767  0.00  0.00    +0.000 C 
BRANCH  10  11
ATOM     11  C   UNL     1     112.762 127.236 136.955  0.00  0.00    +0.000 C 
ATOM     12  C   UNL     1     113.217 126.773 136.446  0.00  0.00    +0.000 C 
BRANCH  12  15
ATOM     13  O   UNL     1     114.976 124.773 137.485  0.00  0.00    +0.000 OA
ATOM     14  O   UNL     1     113.833 123.619 137.199  0.00  0.00    +0.000 OA
ATOM     15  C   UNL     1     113.371 125.983 136.635  0.00  0.00    +0.000 A 
ATOM     16  C   UNL     1     114.097 125.773 136.966  0.00  0.00    +0.000 A 
ATOM     17  C   UNL     1     112.799 125.406 136.492  0.00  0.00    +0.000 A 
ATOM     18  C   UNL     1     114.251 124.984 137.154  0.00  0.00    +0.000 A 
ATOM     19  C   UNL     1     112.953 124.618 136.680  0.00  0.00    +0.000 A 
ATOM     20  C   UNL     1     113.679 124.407 137.011  0.00  0.00    +0.000 A 
ENDBRANCH  12  15
ENDBRANCH  10  11
ENDBRANCH   4  10
BRANCH   3  21
ATOM     21  O   UNL     1     110.963 128.096 136.672  0.00  0.00    +0.000 OA
BRANCH  21  30
ATOM     22  O   UNL     1     110.202 129.105 136.008  0.00  0.00    +0.000 OA
ATOM     23  O   UNL     1     108.172 127.703 136.202  0.00  0.00    +0.000 OA
ATOM     24  O   UNL     1     108.087 129.180 135.473  0.00  0.00    +0.000 OA
ATOM     25  O   UNL     1     109.609 127.161 136.802  0.00  0.00    +0.000 OA
ATOM     26  C   UNL     1     108.848 128.170 136.137  0.00  0.00    +0.000 C 
ATOM     27  C   UNL     1     108.806 128.910 135.772  0.00  0.00    +0.000 C 
ATOM     28  C   UNL     1     109.568 127.899 136.437  0.00  0.00    +0.000 C 
ATOM     29  C   UNL     1     109.483 129.377 135.708  0.00  0.00    +0.000 C 
ATOM     30  C   UNL     1     110.244 128.367 136.372  0.00  0.00    +0.000 C 
BRANCH  29  32
ATOM     31  O   UNL     1     109.974 130.312 134.745  0.00  0.00    +0.000 OA
ATOM     32  C   UNL     1     109.440 130.115 135.343  0.00  0.00    +0.000 C 
ENDBRANCH  29  32
ENDBRANCH  21  30
ENDBRANCH   3  21
TORSDOF 6
ENDMDL
MODEL 10
REMARK VINA RESULT:      -8.2     10.880     12.653
REMARK  Name = 42607611
REMARK  6 active torsions:
REMARK  status: ('A' for Active; 'I' for Inactive)
REMARK    1  A    between atoms: O_2  and  C_16
REMARK    2  A    between atoms: O_2  and  C_18
REMARK    3  A    between atoms: C_15  and  C_17
REMARK    4  A    between atoms: C_19  and  C_23
REMARK    5  A    between atoms: C_23  and  C_25
REMARK    6  A    between atoms: C_26  and  C_27
REMARK                            x       y       z     vdW  Elec       q    Type
REMARK                         _______ _______ _______ _____ _____    ______ ____
ROOT
ATOM      1  O   UNL     1     114.155 127.256 140.672  0.00  0.00    +0.000 OA
ATOM      2  O   UNL     1     114.201 130.091 141.026  0.00  0.00    +0.000 OA
ATOM      3  C   UNL     1     113.079 128.844 139.630  0.00  0.00    +0.000 A 
ATOM      4  C   UNL     1     113.342 128.092 139.847  0.00  0.00    +0.000 A 
ATOM      5  C   UNL     1     113.365 129.510 140.024  0.00  0.00    +0.000 A 
ATOM      6  C   UNL     1     113.892 128.007 140.456  0.00  0.00    +0.000 A 
ATOM      7  C   UNL     1     113.915 129.425 140.633  0.00  0.00    +0.000 A 
ATOM      8  C   UNL     1     114.178 128.674 140.849  0.00  0.00    +0.000 A 
ENDROOT
BRANCH   4  10
ATOM      9  O   UNL     1     112.331 127.097 139.671  0.00  0.00    +0.000 OA
ATOM     10  C   UNL     1     113.056 127.426 139.453  0.00  0.00    +0.000 C 
BRANCH  10  11
ATOM     11  C   UNL     1     113.494 127.089 138.840  0.00  0.00    +0.000 C 
ATOM     12  C   UNL     1     113.211 126.419 138.451  0.00  0.00    +0.000 C 
BRANCH  12  15
ATOM     13  O   UNL     1     114.969 124.377 137.500  0.00  0.00    +0.000 OA
ATOM     14  O   UNL     1     114.965 125.070 136.003  0.00  0.00    +0.000 OA
ATOM     15  C   UNL     1     113.649 126.082 137.839  0.00  0.00    +0.000 A 
ATOM     16  C   UNL     1     114.090 125.398 137.976  0.00  0.00    +0.000 A 
ATOM     17  C   UNL     1     113.647 126.428 137.090  0.00  0.00    +0.000 A 
ATOM     18  C   UNL     1     114.529 125.061 137.363  0.00  0.00    +0.000 A 
ATOM     19  C   UNL     1     114.085 126.091 136.478  0.00  0.00    +0.000 A 
ATOM     20  C   UNL     1     114.526 125.407 136.614  0.00  0.00    +0.000 A 
ENDBRANCH  12  15
ENDBRANCH  10  11
ENDBRANCH   4  10
BRANCH   3  21
ATOM     21  O   UNL     1     112.529 128.929 139.021  0.00  0.00    +0.000 OA
BRANCH  21  30
ATOM     22  O   UNL     1     113.208 129.804 138.120  0.00  0.00    +0.000 OA
ATOM     23  O   UNL     1     111.202 131.250 138.013  0.00  0.00    +0.000 OA
ATOM     24  O   UNL     1     112.550 131.645 137.147  0.00  0.00    +0.000 OA
ATOM     25  O   UNL     1     111.192 129.893 138.950  0.00  0.00    +0.000 OA
ATOM     26  C   UNL     1     111.871 130.768 138.049  0.00  0.00    +0.000 C 
ATOM     27  C   UNL     1     112.546 130.965 137.616  0.00  0.00    +0.000 C 
ATOM     28  C   UNL     1     111.866 130.089 138.517  0.00  0.00    +0.000 C 
ATOM     29  C   UNL     1     113.214 130.483 137.651  0.00  0.00    +0.000 C 
ATOM     30  C   UNL     1     112.535 129.607 138.553  0.00  0.00    +0.000 C 
BRANCH  29  32
ATOM     31  O   UNL     1     114.284 130.102 136.784  0.00  0.00    +0.000 OA
ATOM     32  C   UNL     1     113.888 130.681 137.219  0.00  0.00    +0.000 C 
ENDBRANCH  29  32
ENDBRANCH  21  30
ENDBRANCH   3  21
TORSDOF 6
ENDMDL
