MODEL 1
REMARK VINA RESULT:      -9.4      0.000      0.000
REMARK  Name = 73119625
REMARK  6 active torsions:
REMARK  status: ('A' for Active; 'I' for Inactive)
REMARK    1  A    between atoms: O_2  and  C_18
REMARK    2  A    between atoms: O_2  and  C_21
REMARK    3  A    between atoms: O_13  and  C_34
REMARK    4  A    between atoms: O_14  and  C_36
REMARK    5  A    between atoms: C_19  and  C_20
REMARK    6  A    between atoms: C_22  and  C_26
REMARK                            x       y       z     vdW  Elec       q    Type
REMARK                         _______ _______ _______ _____ _____    ______ ____
ROOT
ATOM      1  O   UNL     1     113.030 126.906 136.612  0.00  0.00    +0.000 OA
ATOM      2  O   UNL     1     111.563 123.937 136.460  0.00  0.00    +0.000 OA
ATOM      3  O   UNL     1     112.758 123.997 137.035  0.00  0.00    +0.000 OA
ATOM      4  O   UNL     1     110.750 126.785 135.517  0.00  0.00    +0.000 OA
ATOM      5  O   UNL     1     110.727 125.366 135.777  0.00  0.00    +0.000 OA
ATOM      6  C   UNL     1     111.900 127.586 135.928  0.00  0.00    +0.000 A 
ATOM      7  C   UNL     1     112.674 127.623 136.300  0.00  0.00    +0.000 A 
ATOM      8  C   UNL     1     111.494 126.831 135.872  0.00  0.00    +0.000 A 
ATOM      9  C   UNL     1     111.865 126.125 136.190  0.00  0.00    +0.000 A 
ATOM     10  C   UNL     1     112.608 126.160 136.548  0.00  0.00    +0.000 A 
ATOM     11  C   UNL     1     111.470 125.403 136.134  0.00  0.00    +0.000 A 
ATOM     12  C   UNL     1     111.816 124.717 136.435  0.00  0.00    +0.000 A 
ATOM     13  C   UNL     1     112.954 125.475 136.848  0.00  0.00    +0.000 A 
ATOM     14  C   UNL     1     112.558 124.754 136.792  0.00  0.00    +0.000 A 
ATOM     15  C   UNL     1     112.144 123.493 136.830  0.00  0.00    +0.000 C 
ENDROOT
BRANCH   7  16
ATOM     16  C   UNL     1     113.072 128.343 136.357  0.00  0.00    +0.000 A 
ATOM     17  C   UNL     1     113.111 128.737 137.082  0.00  0.00    +0.000 A 
ATOM     18  C   UNL     1     113.432 128.671 135.691  0.00  0.00    +0.000 A 
ATOM     19  C   UNL     1     113.509 129.457 137.140  0.00  0.00    +0.000 A 
ATOM     20  C   UNL     1     113.829 129.391 135.749  0.00  0.00    +0.000 A 
ATOM     21  C   UNL     1     113.869 129.785 136.473  0.00  0.00    +0.000 A 
BRANCH  19  22
ATOM     22  O   UNL     1     113.548 129.850 137.865  0.00  0.00    +0.000 OA
ATOM     23  C   UNL     1     113.425 129.434 138.566  0.00  0.00    +0.000 C 
ENDBRANCH  19  22
BRANCH  21  24
ATOM     24  O   UNL     1     114.266 130.504 136.531  0.00  0.00    +0.000 OA
ATOM     25  C   UNL     1     114.644 130.822 135.870  0.00  0.00    +0.000 C 
ENDBRANCH  21  24
ENDBRANCH   7  16
BRANCH   6  26
ATOM     26  O   UNL     1     111.551 128.269 135.625  0.00  0.00    +0.000 OA
BRANCH  26  34
ATOM     27  O   UNL     1     110.646 128.432 136.719  0.00  0.00    +0.000 OA
ATOM     28  O   UNL     1     108.998 129.478 135.200  0.00  0.00    +0.000 OA
ATOM     29  O   UNL     1     110.451 128.967 134.612  0.00  0.00    +0.000 OA
ATOM     30  O   UNL     1     108.643 129.293 136.799  0.00  0.00    +0.000 OA
ATOM     31  C   UNL     1     109.547 129.130 135.706  0.00  0.00    +0.000 C 
ATOM     32  C   UNL     1     110.275 128.874 135.412  0.00  0.00    +0.000 C 
ATOM     33  C   UNL     1     109.370 129.037 136.506  0.00  0.00    +0.000 C 
ATOM     34  C   UNL     1     110.824 128.525 135.919  0.00  0.00    +0.000 C 
ATOM     35  C   UNL     1     109.920 128.688 137.013  0.00  0.00    +0.000 C 
BRANCH  35  38
ATOM     36  O   UNL     1     109.344 127.921 138.072  0.00  0.00    +0.000 OA
ATOM     37  O   UNL     1     109.962 129.178 138.354  0.00  0.00    +0.000 OA
ATOM     38  C   UNL     1     109.742 128.595 137.813  0.00  0.00    +0.000 C 
ENDBRANCH  35  38
ENDBRANCH  26  34
ENDBRANCH   6  26
TORSDOF 6
ENDMDL
MODEL 2
REMARK VINA RESULT:      -9.1      1.084      4.333
REMARK  Name = 73119625
REMARK  6 active torsions:
REMARK  status: ('A' for Active; 'I' for Inactive)
REMARK    1  A    between atoms: O_2  and  C_18
REMARK    2  A    between atoms: O_2  and  C_21
REMARK    3  A    between atoms: O_13  and  C_34
REMARK    4  A    between atoms: O_14  and  C_36
REMARK    5  A    between atoms: C_19  and  C_20
REMARK    6  A    between atoms: C_22  and  C_26
REMARK                            x       y       z     vdW  Elec       q    Type
REMARK                         _______ _______ _______ _____ _____    ______ ____
ROOT
ATOM      1  O   UNL     1     113.199 127.516 136.038  0.00  0.00    +0.000 OA
ATOM      2  O   UNL     1     114.406 130.602 136.136  0.00  0.00    +0.000 OA
ATOM      3  O   UNL     1     114.653 129.886 135.044  0.00  0.00    +0.000 OA
ATOM      4  O   UNL     1     112.732 128.887 138.115  0.00  0.00    +0.000 OA
ATOM      5  O   UNL     1     113.466 129.982 137.528  0.00  0.00    +0.000 OA
ATOM      6  C   UNL     1     112.582 127.632 137.384  0.00  0.00    +0.000 A 
ATOM      7  C   UNL     1     112.742 127.169 136.677  0.00  0.00    +0.000 A 
ATOM      8  C   UNL     1     112.881 128.435 137.440  0.00  0.00    +0.000 A 
ATOM      9  C   UNL     1     113.336 128.765 136.790  0.00  0.00    +0.000 A 
ATOM     10  C   UNL     1     113.490 128.321 136.112  0.00  0.00    +0.000 A 
ATOM     11  C   UNL     1     113.620 129.537 136.851  0.00  0.00    +0.000 A 
ATOM     12  C   UNL     1     114.058 129.866 136.233  0.00  0.00    +0.000 A 
ATOM     13  C   UNL     1     113.927 128.649 135.496  0.00  0.00    +0.000 A 
ATOM     14  C   UNL     1     114.212 129.421 135.556  0.00  0.00    +0.000 A 
ATOM     15  C   UNL     1     114.773 130.614 135.402  0.00  0.00    +0.000 C 
ENDROOT
BRANCH   7  16
ATOM     16  C   UNL     1     112.459 126.397 136.614  0.00  0.00    +0.000 A 
ATOM     17  C   UNL     1     111.811 126.233 136.131  0.00  0.00    +0.000 A 
ATOM     18  C   UNL     1     112.824 125.787 137.034  0.00  0.00    +0.000 A 
ATOM     19  C   UNL     1     111.528 125.461 136.068  0.00  0.00    +0.000 A 
ATOM     20  C   UNL     1     112.541 125.015 136.971  0.00  0.00    +0.000 A 
ATOM     21  C   UNL     1     111.892 124.852 136.488  0.00  0.00    +0.000 A 
BRANCH  19  22
ATOM     22  O   UNL     1     110.879 125.297 135.584  0.00  0.00    +0.000 OA
ATOM     23  C   UNL     1     110.650 125.839 135.005  0.00  0.00    +0.000 C 
ENDBRANCH  19  22
BRANCH  21  24
ATOM     24  O   UNL     1     111.610 124.080 136.425  0.00  0.00    +0.000 OA
ATOM     25  C   UNL     1     111.960 123.474 136.862  0.00  0.00    +0.000 C 
ENDBRANCH  21  24
ENDBRANCH   7  16
BRANCH   6  26
ATOM     26  O   UNL     1     112.144 127.306 138.003  0.00  0.00    +0.000 OA
BRANCH  26  34
ATOM     27  O   UNL     1     110.940 128.008 137.686  0.00  0.00    +0.000 OA
ATOM     28  O   UNL     1     110.336 128.056 140.085  0.00  0.00    +0.000 OA
ATOM     29  O   UNL     1     111.741 127.338 139.603  0.00  0.00    +0.000 OA
ATOM     30  O   UNL     1     109.335 128.741 138.969  0.00  0.00    +0.000 OA
ATOM     31  C   UNL     1     110.538 128.040 139.286  0.00  0.00    +0.000 C 
ATOM     32  C   UNL     1     111.241 127.681 139.044  0.00  0.00    +0.000 C 
ATOM     33  C   UNL     1     110.037 128.383 138.727  0.00  0.00    +0.000 C 
ATOM     34  C   UNL     1     111.442 127.665 138.244  0.00  0.00    +0.000 C 
ATOM     35  C   UNL     1     110.238 128.367 137.927  0.00  0.00    +0.000 C 
BRANCH  35  38
ATOM     36  O   UNL     1     109.815 129.509 137.180  0.00  0.00    +0.000 OA
ATOM     37  O   UNL     1     109.158 128.253 136.999  0.00  0.00    +0.000 OA
ATOM     38  C   UNL     1     109.737 128.709 137.369  0.00  0.00    +0.000 C 
ENDBRANCH  35  38
ENDBRANCH  26  34
ENDBRANCH   6  26
TORSDOF 6
ENDMDL
MODEL 3
REMARK VINA RESULT:      -8.9      2.130      5.011
REMARK  Name = 73119625
REMARK  6 active torsions:
REMARK  status: ('A' for Active; 'I' for Inactive)
REMARK    1  A    between atoms: O_2  and  C_18
REMARK    2  A    between atoms: O_2  and  C_21
REMARK    3  A    between atoms: O_13  and  C_34
REMARK    4  A    between atoms: O_14  and  C_36
REMARK    5  A    between atoms: C_19  and  C_20
REMARK    6  A    between atoms: C_22  and  C_26
REMARK                            x       y       z     vdW  Elec       q    Type
REMARK                         _______ _______ _______ _____ _____    ______ ____
ROOT
ATOM      1  O   UNL     1     113.408 127.400 136.570  0.00  0.00    +0.000 OA
ATOM      2  O   UNL     1     113.712 130.697 136.737  0.00  0.00    +0.000 OA
ATOM      3  O   UNL     1     114.317 130.081 135.728  0.00  0.00    +0.000 OA
ATOM      4  O   UNL     1     112.257 128.583 138.491  0.00  0.00    +0.000 OA
ATOM      5  O   UNL     1     112.758 129.839 137.986  0.00  0.00    +0.000 OA
ATOM      6  C   UNL     1     112.571 127.338 137.795  0.00  0.00    +0.000 A 
ATOM      7  C   UNL     1     112.963 126.939 137.142  0.00  0.00    +0.000 A 
ATOM      8  C   UNL     1     112.630 128.192 137.867  0.00  0.00    +0.000 A 
ATOM      9  C   UNL     1     113.080 128.636 137.285  0.00  0.00    +0.000 A 
ATOM     10  C   UNL     1     113.457 128.254 136.658  0.00  0.00    +0.000 A 
ATOM     11  C   UNL     1     113.134 129.456 137.359  0.00  0.00    +0.000 A 
ATOM     12  C   UNL     1     113.563 129.894 136.807  0.00  0.00    +0.000 A 
ATOM     13  C   UNL     1     113.885 128.691 136.106  0.00  0.00    +0.000 A 
ATOM     14  C   UNL     1     113.938 129.511 136.181  0.00  0.00    +0.000 A 
ATOM     15  C   UNL     1     114.177 130.812 136.071  0.00  0.00    +0.000 C 
ENDROOT
BRANCH   7  16
ATOM     16  C   UNL     1     112.911 126.120 137.065  0.00  0.00    +0.000 A 
ATOM     17  C   UNL     1     113.565 125.647 137.240  0.00  0.00    +0.000 A 
ATOM     18  C   UNL     1     112.207 125.772 136.814  0.00  0.00    +0.000 A 
ATOM     19  C   UNL     1     113.513 124.827 137.163  0.00  0.00    +0.000 A 
ATOM     20  C   UNL     1     112.155 124.952 136.737  0.00  0.00    +0.000 A 
ATOM     21  C   UNL     1     112.809 124.479 136.912  0.00  0.00    +0.000 A 
BRANCH  19  22
ATOM     22  O   UNL     1     114.167 124.354 137.338  0.00  0.00    +0.000 OA
ATOM     23  C   UNL     1     114.922 124.686 137.355  0.00  0.00    +0.000 C 
ENDBRANCH  19  22
BRANCH  21  24
ATOM     24  O   UNL     1     112.757 123.660 136.835  0.00  0.00    +0.000 OA
ATOM     25  C   UNL     1     112.021 123.288 136.857  0.00  0.00    +0.000 C 
ENDBRANCH  21  24
ENDBRANCH   7  16
BRANCH   6  26
ATOM     26  O   UNL     1     112.141 126.903 138.349  0.00  0.00    +0.000 OA
BRANCH  26  34
ATOM     27  O   UNL     1     113.143 127.044 139.358  0.00  0.00    +0.000 OA
ATOM     28  O   UNL     1     111.421 126.745 141.110  0.00  0.00    +0.000 OA
ATOM     29  O   UNL     1     110.993 126.704 139.517  0.00  0.00    +0.000 OA
ATOM     30  O   UNL     1     112.996 126.985 141.535  0.00  0.00    +0.000 OA
ATOM     31  C   UNL     1     111.995 126.845 140.526  0.00  0.00    +0.000 C 
ATOM     32  C   UNL     1     111.781 126.824 139.729  0.00  0.00    +0.000 C 
ATOM     33  C   UNL     1     112.783 126.965 140.738  0.00  0.00    +0.000 C 
ATOM     34  C   UNL     1     112.355 126.924 139.145  0.00  0.00    +0.000 C 
ATOM     35  C   UNL     1     113.357 127.064 140.154  0.00  0.00    +0.000 C 
BRANCH  35  38
ATOM     36  O   UNL     1     114.393 127.927 140.627  0.00  0.00    +0.000 OA
ATOM     37  O   UNL     1     114.684 126.562 140.319  0.00  0.00    +0.000 OA
ATOM     38  C   UNL     1     114.144 127.185 140.367  0.00  0.00    +0.000 C 
ENDBRANCH  35  38
ENDBRANCH  26  34
ENDBRANCH   6  26
TORSDOF 6
ENDMDL
MODEL 4
REMARK VINA RESULT:      -8.9      1.429      4.139
REMARK  Name = 73119625
REMARK  6 active torsions:
REMARK  status: ('A' for Active; 'I' for Inactive)
REMARK    1  A    between atoms: O_2  and  C_18
REMARK    2  A    between atoms: O_2  and  C_21
REMARK    3  A    between atoms: O_13  and  C_34
REMARK    4  A    between atoms: O_14  and  C_36
REMARK    5  A    between atoms: C_19  and  C_20
REMARK    6  A    between atoms: C_22  and  C_26
REMARK                            x       y       z     vdW  Elec       q    Type
REMARK                         _______ _______ _______ _____ _____    ______ ____
ROOT
ATOM      1  O   UNL     1     111.398 127.412 136.730  0.00  0.00    +0.000 OA
ATOM      2  O   UNL     1     109.107 129.438 135.449  0.00  0.00    +0.000 OA
ATOM      3  O   UNL     1     108.685 128.482 136.270  0.00  0.00    +0.000 OA
ATOM      4  O   UNL     1     112.195 129.236 135.165  0.00  0.00    +0.000 OA
ATOM      5  O   UNL     1     110.828 129.672 135.015  0.00  0.00    +0.000 OA
ATOM      6  C   UNL     1     112.510 128.098 136.024  0.00  0.00    +0.000 A 
ATOM      7  C   UNL     1     112.236 127.480 136.555  0.00  0.00    +0.000 A 
ATOM      8  C   UNL     1     111.942 128.639 135.676  0.00  0.00    +0.000 A 
ATOM      9  C   UNL     1     111.107 128.556 135.862  0.00  0.00    +0.000 A 
ATOM     10  C   UNL     1     110.844 127.962 136.372  0.00  0.00    +0.000 A 
ATOM     11  C   UNL     1     110.566 129.079 135.524  0.00  0.00    +0.000 A 
ATOM     12  C   UNL     1     109.762 129.009 135.695  0.00  0.00    +0.000 A 
ATOM     13  C   UNL     1     110.041 127.893 136.543  0.00  0.00    +0.000 A 
ATOM     14  C   UNL     1     109.499 128.416 136.205  0.00  0.00    +0.000 A 
ATOM     15  C   UNL     1     108.443 129.112 135.804  0.00  0.00    +0.000 C 
ENDROOT
BRANCH   7  16
ATOM     16  C   UNL     1     112.775 126.955 136.894  0.00  0.00    +0.000 A 
ATOM     17  C   UNL     1     112.962 127.016 137.696  0.00  0.00    +0.000 A 
ATOM     18  C   UNL     1     113.128 126.370 136.432  0.00  0.00    +0.000 A 
ATOM     19  C   UNL     1     113.500 126.492 138.035  0.00  0.00    +0.000 A 
ATOM     20  C   UNL     1     113.667 125.845 136.771  0.00  0.00    +0.000 A 
ATOM     21  C   UNL     1     113.853 125.906 137.573  0.00  0.00    +0.000 A 
BRANCH  19  22
ATOM     22  O   UNL     1     113.687 126.553 138.837  0.00  0.00    +0.000 OA
ATOM     23  C   UNL     1     113.192 126.976 139.344  0.00  0.00    +0.000 C 
ENDBRANCH  19  22
BRANCH  21  24
ATOM     24  O   UNL     1     114.392 125.382 137.912  0.00  0.00    +0.000 OA
ATOM     25  C   UNL     1     114.737 124.790 137.453  0.00  0.00    +0.000 C 
ENDBRANCH  21  24
ENDBRANCH   7  16
BRANCH   6  26
ATOM     26  O   UNL     1     113.314 128.171 135.850  0.00  0.00    +0.000 OA
BRANCH  26  34
ATOM     27  O   UNL     1     113.517 129.307 136.692  0.00  0.00    +0.000 OA
ATOM     28  O   UNL     1     115.279 130.126 135.160  0.00  0.00    +0.000 OA
ATOM     29  O   UNL     1     114.489 128.717 134.829  0.00  0.00    +0.000 OA
ATOM     30  O   UNL     1     114.896 130.989 136.512  0.00  0.00    +0.000 OA
ATOM     31  C   UNL     1     114.692 129.853 135.670  0.00  0.00    +0.000 C 
ATOM     32  C   UNL     1     114.296 129.148 135.505  0.00  0.00    +0.000 C 
ATOM     33  C   UNL     1     114.500 130.285 136.347  0.00  0.00    +0.000 C 
ATOM     34  C   UNL     1     113.709 128.875 136.016  0.00  0.00    +0.000 C 
ATOM     35  C   UNL     1     113.913 130.012 136.858  0.00  0.00    +0.000 C 
BRANCH  35  38
ATOM     36  O   UNL     1     113.191 131.074 137.485  0.00  0.00    +0.000 OA
ATOM     37  O   UNL     1     114.060 130.245 138.259  0.00  0.00    +0.000 OA
ATOM     38  C   UNL     1     113.721 130.443 137.533  0.00  0.00    +0.000 C 
ENDBRANCH  35  38
ENDBRANCH  26  34
ENDBRANCH   6  26
TORSDOF 6
ENDMDL
MODEL 5
REMARK VINA RESULT:      -8.9      1.458      3.979
REMARK  Name = 73119625
REMARK  6 active torsions:
REMARK  status: ('A' for Active; 'I' for Inactive)
REMARK    1  A    between atoms: O_2  and  C_18
REMARK    2  A    between atoms: O_2  and  C_21
REMARK    3  A    between atoms: O_13  and  C_34
REMARK    4  A    between atoms: O_14  and  C_36
REMARK    5  A    between atoms: C_19  and  C_20
REMARK    6  A    between atoms: C_22  and  C_26
REMARK                            x       y       z     vdW  Elec       q    Type
REMARK                         _______ _______ _______ _____ _____    ______ ____
ROOT
ATOM      1  O   UNL     1     110.841 130.160 135.725  0.00  0.00    +0.000 OA
ATOM      2  O   UNL     1     107.564 130.606 135.970  0.00  0.00    +0.000 OA
ATOM      3  O   UNL     1     108.338 131.673 136.135  0.00  0.00    +0.000 OA
ATOM      4  O   UNL     1     109.359 128.131 135.411  0.00  0.00    +0.000 OA
ATOM      5  O   UNL     1     108.205 128.969 135.627  0.00  0.00    +0.000 OA
ATOM      6  C   UNL     1     110.700 128.707 135.455  0.00  0.00    +0.000 A 
ATOM      7  C   UNL     1     111.201 129.398 135.562  0.00  0.00    +0.000 A 
ATOM      8  C   UNL     1     109.847 128.789 135.512  0.00  0.00    +0.000 A 
ATOM      9  C   UNL     1     109.505 129.560 135.676  0.00  0.00    +0.000 A 
ATOM     10  C   UNL     1     109.985 130.223 135.779  0.00  0.00    +0.000 A 
ATOM     11  C   UNL     1     108.685 129.632 135.730  0.00  0.00    +0.000 A 
ATOM     12  C   UNL     1     108.344 130.367 135.886  0.00  0.00    +0.000 A 
ATOM     13  C   UNL     1     109.645 130.957 135.935  0.00  0.00    +0.000 A 
ATOM     14  C   UNL     1     108.825 131.030 135.989  0.00  0.00    +0.000 A 
ATOM     15  C   UNL     1     107.561 131.412 136.124  0.00  0.00    +0.000 C 
ENDROOT
BRANCH   7  16
ATOM     16  C   UNL     1     112.020 129.328 135.509  0.00  0.00    +0.000 A 
ATOM     17  C   UNL     1     112.484 129.380 136.190  0.00  0.00    +0.000 A 
ATOM     18  C   UNL     1     112.378 129.208 134.775  0.00  0.00    +0.000 A 
ATOM     19  C   UNL     1     113.304 129.311 136.137  0.00  0.00    +0.000 A 
ATOM     20  C   UNL     1     113.198 129.138 134.722  0.00  0.00    +0.000 A 
ATOM     21  C   UNL     1     113.662 129.190 135.403  0.00  0.00    +0.000 A 
BRANCH  19  22
ATOM     22  O   UNL     1     113.768 129.362 136.818  0.00  0.00    +0.000 OA
ATOM     23  C   UNL     1     113.445 129.667 137.513  0.00  0.00    +0.000 C 
ENDBRANCH  19  22
BRANCH  21  24
ATOM     24  O   UNL     1     114.482 129.121 135.350  0.00  0.00    +0.000 OA
ATOM     25  C   UNL     1     114.851 129.134 134.612  0.00  0.00    +0.000 C 
ENDBRANCH  21  24
ENDBRANCH   7  16
BRANCH   6  26
ATOM     26  O   UNL     1     111.038 127.970 135.298  0.00  0.00    +0.000 OA
BRANCH  26  34
ATOM     27  O   UNL     1     110.867 127.470 136.626  0.00  0.00    +0.000 OA
ATOM     28  O   UNL     1     110.593 125.181 135.730  0.00  0.00    +0.000 OA
ATOM     29  O   UNL     1     110.855 126.443 134.700  0.00  0.00    +0.000 OA
ATOM     30  O   UNL     1     110.514 125.444 137.355  0.00  0.00    +0.000 OA
ATOM     31  C   UNL     1     110.684 125.944 136.028  0.00  0.00    +0.000 C 
ATOM     32  C   UNL     1     110.815 126.576 135.513  0.00  0.00    +0.000 C 
ATOM     33  C   UNL     1     110.645 126.076 136.841  0.00  0.00    +0.000 C 
ATOM     34  C   UNL     1     110.907 127.339 135.812  0.00  0.00    +0.000 C 
ATOM     35  C   UNL     1     110.736 126.840 137.140  0.00  0.00    +0.000 C 
BRANCH  35  38
ATOM     36  O   UNL     1     111.388 126.999 138.402  0.00  0.00    +0.000 OA
ATOM     37  O   UNL     1     109.964 127.076 138.319  0.00  0.00    +0.000 OA
ATOM     38  C   UNL     1     110.696 126.971 137.953  0.00  0.00    +0.000 C 
ENDBRANCH  35  38
ENDBRANCH  26  34
ENDBRANCH   6  26
TORSDOF 6
ENDMDL
MODEL 6
REMARK VINA RESULT:      -8.8      1.948      4.845
REMARK  Name = 73119625
REMARK  6 active torsions:
REMARK  status: ('A' for Active; 'I' for Inactive)
REMARK    1  A    between atoms: O_2  and  C_18
REMARK    2  A    between atoms: O_2  and  C_21
REMARK    3  A    between atoms: O_13  and  C_34
REMARK    4  A    between atoms: O_14  and  C_36
REMARK    5  A    between atoms: C_19  and  C_20
REMARK    6  A    between atoms: C_22  and  C_26
REMARK                            x       y       z     vdW  Elec       q    Type
REMARK                         _______ _______ _______ _____ _____    ______ ____
ROOT
ATOM      1  O   UNL     1     112.943 128.616 138.284  0.00  0.00    +0.000 OA
ATOM      2  O   UNL     1     114.062 130.102 135.539  0.00  0.00    +0.000 OA
ATOM      3  O   UNL     1     114.277 130.718 136.696  0.00  0.00    +0.000 OA
ATOM      4  O   UNL     1     112.537 127.447 136.074  0.00  0.00    +0.000 OA
ATOM      5  O   UNL     1     113.210 128.533 135.403  0.00  0.00    +0.000 OA
ATOM      6  C   UNL     1     112.388 127.465 137.527  0.00  0.00    +0.000 A 
ATOM      7  C   UNL     1     112.528 127.864 138.276  0.00  0.00    +0.000 A 
ATOM      8  C   UNL     1     112.666 127.824 136.798  0.00  0.00    +0.000 A 
ATOM      9  C   UNL     1     113.079 128.576 136.826  0.00  0.00    +0.000 A 
ATOM     10  C   UNL     1     113.213 128.960 137.544  0.00  0.00    +0.000 A 
ATOM     11  C   UNL     1     113.343 128.916 136.122  0.00  0.00    +0.000 A 
ATOM     12  C   UNL     1     113.741 129.638 136.135  0.00  0.00    +0.000 A 
ATOM     13  C   UNL     1     113.611 129.682 137.557  0.00  0.00    +0.000 A 
ATOM     14  C   UNL     1     113.875 130.021 136.853  0.00  0.00    +0.000 A 
ATOM     15  C   UNL     1     114.393 130.768 135.886  0.00  0.00    +0.000 C 
ENDROOT
BRANCH   7  16
ATOM     16  C   UNL     1     112.265 127.527 138.981  0.00  0.00    +0.000 A 
ATOM     17  C   UNL     1     112.810 127.225 139.522  0.00  0.00    +0.000 A 
ATOM     18  C   UNL     1     111.457 127.492 139.146  0.00  0.00    +0.000 A 
ATOM     19  C   UNL     1     112.547 126.888 140.227  0.00  0.00    +0.000 A 
ATOM     20  C   UNL     1     111.194 127.155 139.851  0.00  0.00    +0.000 A 
ATOM     21  C   UNL     1     111.739 126.852 140.392  0.00  0.00    +0.000 A 
BRANCH  19  22
ATOM     22  O   UNL     1     113.092 126.585 140.769  0.00  0.00    +0.000 OA
ATOM     23  C   UNL     1     113.862 126.880 140.785  0.00  0.00    +0.000 C 
ENDBRANCH  19  22
BRANCH  21  24
ATOM     24  O   UNL     1     111.476 126.516 141.098  0.00  0.00    +0.000 OA
ATOM     25  C   UNL     1     110.670 126.491 141.268  0.00  0.00    +0.000 C 
ENDBRANCH  21  24
ENDBRANCH   7  16
BRANCH   6  26
ATOM     26  O   UNL     1     111.991 126.742 137.510  0.00  0.00    +0.000 OA
BRANCH  26  34
ATOM     27  O   UNL     1     113.187 125.986 137.308  0.00  0.00    +0.000 OA
ATOM     28  O   UNL     1     111.878 124.217 136.178  0.00  0.00    +0.000 OA
ATOM     29  O   UNL     1     111.118 125.562 136.756  0.00  0.00    +0.000 OA
ATOM     30  O   UNL     1     113.509 124.051 136.352  0.00  0.00    +0.000 OA
ATOM     31  C   UNL     1     112.314 124.806 136.554  0.00  0.00    +0.000 C 
ATOM     32  C   UNL     1     111.934 125.480 136.844  0.00  0.00    +0.000 C 
ATOM     33  C   UNL     1     113.130 124.724 136.642  0.00  0.00    +0.000 C 
ATOM     34  C   UNL     1     112.370 126.070 137.221  0.00  0.00    +0.000 C 
ATOM     35  C   UNL     1     113.566 125.314 137.019  0.00  0.00    +0.000 C 
BRANCH  35  38
ATOM     36  O   UNL     1     114.885 125.407 136.476  0.00  0.00    +0.000 OA
ATOM     37  O   UNL     1     114.695 124.972 137.824  0.00  0.00    +0.000 OA
ATOM     38  C   UNL     1     114.382 125.231 137.106  0.00  0.00    +0.000 C 
ENDBRANCH  35  38
ENDBRANCH  26  34
ENDBRANCH   6  26
TORSDOF 6
ENDMDL
MODEL 7
REMARK VINA RESULT:      -8.7      2.034      4.424
REMARK  Name = 73119625
REMARK  6 active torsions:
REMARK  status: ('A' for Active; 'I' for Inactive)
REMARK    1  A    between atoms: O_2  and  C_18
REMARK    2  A    between atoms: O_2  and  C_21
REMARK    3  A    between atoms: O_13  and  C_34
REMARK    4  A    between atoms: O_14  and  C_36
REMARK    5  A    between atoms: C_19  and  C_20
REMARK    6  A    between atoms: C_22  and  C_26
REMARK                            x       y       z     vdW  Elec       q    Type
REMARK                         _______ _______ _______ _____ _____    ______ ____
ROOT
ATOM      1  O   UNL     1     111.749 128.137 138.395  0.00  0.00    +0.000 OA
ATOM      2  O   UNL     1     110.825 127.011 141.373  0.00  0.00    +0.000 OA
ATOM      3  O   UNL     1     110.174 128.064 140.892  0.00  0.00    +0.000 OA
ATOM      4  O   UNL     1     112.986 126.131 139.321  0.00  0.00    +0.000 OA
ATOM      5  O   UNL     1     112.156 126.191 140.499  0.00  0.00    +0.000 OA
ATOM      6  C   UNL     1     112.802 127.101 138.244  0.00  0.00    +0.000 A 
ATOM      7  C   UNL     1     112.380 127.782 137.933  0.00  0.00    +0.000 A 
ATOM      8  C   UNL     1     112.587 126.785 139.014  0.00  0.00    +0.000 A 
ATOM      9  C   UNL     1     111.953 127.153 139.461  0.00  0.00    +0.000 A 
ATOM     10  C   UNL     1     111.547 127.807 139.163  0.00  0.00    +0.000 A 
ATOM     11  C   UNL     1     111.751 126.845 140.200  0.00  0.00    +0.000 A 
ATOM     12  C   UNL     1     111.144 127.190 140.639  0.00  0.00    +0.000 A 
ATOM     13  C   UNL     1     110.941 128.152 139.602  0.00  0.00    +0.000 A 
ATOM     14  C   UNL     1     110.739 127.844 140.340  0.00  0.00    +0.000 A 
ATOM     15  C   UNL     1     110.227 127.550 141.529  0.00  0.00    +0.000 C 
ENDROOT
BRANCH   7  16
ATOM     16  C   UNL     1     112.580 128.092 137.196  0.00  0.00    +0.000 A 
ATOM     17  C   UNL     1     112.078 127.977 136.550  0.00  0.00    +0.000 A 
ATOM     18  C   UNL     1     113.281 128.517 137.102  0.00  0.00    +0.000 A 
ATOM     19  C   UNL     1     112.278 128.287 135.813  0.00  0.00    +0.000 A 
ATOM     20  C   UNL     1     113.481 128.827 136.365  0.00  0.00    +0.000 A 
ATOM     21  C   UNL     1     112.979 128.712 135.719  0.00  0.00    +0.000 A 
BRANCH  19  22
ATOM     22  O   UNL     1     111.777 128.172 135.167  0.00  0.00    +0.000 OA
ATOM     23  C   UNL     1     110.988 127.965 135.290  0.00  0.00    +0.000 C 
ENDBRANCH  19  22
BRANCH  21  24
ATOM     24  O   UNL     1     113.179 129.022 134.982  0.00  0.00    +0.000 OA
ATOM     25  C   UNL     1     113.902 129.405 134.876  0.00  0.00    +0.000 C 
ENDBRANCH  21  24
ENDBRANCH   7  16
BRANCH   6  26
ATOM     26  O   UNL     1     113.410 126.753 137.808  0.00  0.00    +0.000 OA
BRANCH  26  34
ATOM     27  O   UNL     1     112.624 125.646 137.363  0.00  0.00    +0.000 OA
ATOM     28  O   UNL     1     114.646 124.221 137.334  0.00  0.00    +0.000 OA
ATOM     29  O   UNL     1     114.759 125.803 137.789  0.00  0.00    +0.000 OA
ATOM     30  O   UNL     1     113.187 123.589 136.899  0.00  0.00    +0.000 OA
ATOM     31  C   UNL     1     113.972 124.696 137.344  0.00  0.00    +0.000 C 
ATOM     32  C   UNL     1     114.028 125.487 137.571  0.00  0.00    +0.000 C 
ATOM     33  C   UNL     1     113.242 124.380 137.126  0.00  0.00    +0.000 C 
ATOM     34  C   UNL     1     113.354 125.962 137.581  0.00  0.00    +0.000 C 
ATOM     35  C   UNL     1     112.568 124.855 137.136  0.00  0.00    +0.000 C 
BRANCH  35  38
ATOM     36  O   UNL     1     111.377 124.143 137.476  0.00  0.00    +0.000 OA
ATOM     37  O   UNL     1     111.569 124.619 136.142  0.00  0.00    +0.000 OA
ATOM     38  C   UNL     1     111.838 124.539 136.918  0.00  0.00    +0.000 C 
ENDBRANCH  35  38
ENDBRANCH  26  34
ENDBRANCH   6  26
TORSDOF 6
ENDMDL
MODEL 8
REMARK VINA RESULT:      -8.7      1.390      3.031
REMARK  Name = 73119625
REMARK  6 active torsions:
REMARK  status: ('A' for Active; 'I' for Inactive)
REMARK    1  A    between atoms: O_2  and  C_18
REMARK    2  A    between atoms: O_2  and  C_21
REMARK    3  A    between atoms: O_13  and  C_34
REMARK    4  A    between atoms: O_14  and  C_36
REMARK    5  A    between atoms: C_19  and  C_20
REMARK    6  A    between atoms: C_22  and  C_26
REMARK                            x       y       z     vdW  Elec       q    Type
REMARK                         _______ _______ _______ _____ _____    ______ ____
ROOT
ATOM      1  O   UNL     1     111.135 126.446 135.984  0.00  0.00    +0.000 OA
ATOM      2  O   UNL     1     111.729 123.613 137.600  0.00  0.00    +0.000 OA
ATOM      3  O   UNL     1     112.015 123.645 136.304  0.00  0.00    +0.000 OA
ATOM      4  O   UNL     1     110.592 126.376 138.456  0.00  0.00    +0.000 OA
ATOM      5  O   UNL     1     111.049 125.008 138.494  0.00  0.00    +0.000 OA
ATOM      6  C   UNL     1     110.624 127.124 137.203  0.00  0.00    +0.000 A 
ATOM      7  C   UNL     1     110.810 127.145 136.363  0.00  0.00    +0.000 A 
ATOM      8  C   UNL     1     110.767 126.405 137.650  0.00  0.00    +0.000 A 
ATOM      9  C   UNL     1     111.093 125.716 137.253  0.00  0.00    +0.000 A 
ATOM     10  C   UNL     1     111.271 125.735 136.447  0.00  0.00    +0.000 A 
ATOM     11  C   UNL     1     111.227 125.028 137.689  0.00  0.00    +0.000 A 
ATOM     12  C   UNL     1     111.539 124.360 137.319  0.00  0.00    +0.000 A 
ATOM     13  C   UNL     1     111.583 125.068 136.079  0.00  0.00    +0.000 A 
ATOM     14  C   UNL     1     111.717 124.380 136.514  0.00  0.00    +0.000 A 
ATOM     15  C   UNL     1     112.023 123.173 136.974  0.00  0.00    +0.000 C 
ENDROOT
BRANCH   7  16
ATOM     16  C   UNL     1     110.677 127.831 135.926  0.00  0.00    +0.000 A 
ATOM     17  C   UNL     1     111.315 128.290 135.673  0.00  0.00    +0.000 A 
ATOM     18  C   UNL     1     109.906 128.059 135.740  0.00  0.00    +0.000 A 
ATOM     19  C   UNL     1     111.181 128.975 135.235  0.00  0.00    +0.000 A 
ATOM     20  C   UNL     1     109.772 128.745 135.303  0.00  0.00    +0.000 A 
ATOM     21  C   UNL     1     110.410 129.204 135.050  0.00  0.00    +0.000 A 
BRANCH  19  22
ATOM     22  O   UNL     1     111.819 129.434 134.982  0.00  0.00    +0.000 OA
ATOM     23  C   UNL     1     112.576 129.108 134.955  0.00  0.00    +0.000 C 
ENDBRANCH  19  22
BRANCH  21  24
ATOM     24  O   UNL     1     110.277 129.890 134.612  0.00  0.00    +0.000 OA
ATOM     25  C   UNL     1     109.537 130.254 134.629  0.00  0.00    +0.000 C 
ENDBRANCH  21  24
ENDBRANCH   7  16
BRANCH   6  26
ATOM     26  O   UNL     1     110.312 127.791 137.575  0.00  0.00    +0.000 OA
BRANCH  26  34
ATOM     27  O   UNL     1     111.543 128.159 138.201  0.00  0.00    +0.000 OA
ATOM     28  O   UNL     1     110.287 129.155 140.085  0.00  0.00    +0.000 OA
ATOM     29  O   UNL     1     109.475 128.455 138.832  0.00  0.00    +0.000 OA
ATOM     30  O   UNL     1     111.936 129.192 140.082  0.00  0.00    +0.000 OA
ATOM     31  C   UNL     1     110.706 128.824 139.458  0.00  0.00    +0.000 C 
ATOM     32  C   UNL     1     110.299 128.473 138.830  0.00  0.00    +0.000 C 
ATOM     33  C   UNL     1     111.530 128.842 139.455  0.00  0.00    +0.000 C 
ATOM     34  C   UNL     1     110.718 128.141 138.202  0.00  0.00    +0.000 C 
ATOM     35  C   UNL     1     111.949 128.509 138.827  0.00  0.00    +0.000 C 
BRANCH  35  38
ATOM     36  O   UNL     1     113.200 127.948 139.228  0.00  0.00    +0.000 OA
ATOM     37  O   UNL     1     113.171 129.127 138.421  0.00  0.00    +0.000 OA
ATOM     38  C   UNL     1     112.773 128.528 138.825  0.00  0.00    +0.000 C 
ENDBRANCH  35  38
ENDBRANCH  26  34
ENDBRANCH   6  26
TORSDOF 6
ENDMDL
MODEL 9
REMARK VINA RESULT:      -8.7      1.295      2.428
REMARK  Name = 73119625
REMARK  6 active torsions:
REMARK  status: ('A' for Active; 'I' for Inactive)
REMARK    1  A    between atoms: O_2  and  C_18
REMARK    2  A    between atoms: O_2  and  C_21
REMARK    3  A    between atoms: O_13  and  C_34
REMARK    4  A    between atoms: O_14  and  C_36
REMARK    5  A    between atoms: C_19  and  C_20
REMARK    6  A    between atoms: C_22  and  C_26
REMARK                            x       y       z     vdW  Elec       q    Type
REMARK                         _______ _______ _______ _____ _____    ______ ____
ROOT
ATOM      1  O   UNL     1     112.712 126.537 136.193  0.00  0.00    +0.000 OA
ATOM      2  O   UNL     1     111.735 123.800 137.789  0.00  0.00    +0.000 OA
ATOM      3  O   UNL     1     111.934 123.703 136.479  0.00  0.00    +0.000 OA
ATOM      4  O   UNL     1     112.330 126.715 138.690  0.00  0.00    +0.000 OA
ATOM      5  O   UNL     1     111.967 125.318 138.710  0.00  0.00    +0.000 OA
ATOM      6  C   UNL     1     112.710 127.354 137.434  0.00  0.00    +0.000 A 
ATOM      7  C   UNL     1     112.839 127.291 136.586  0.00  0.00    +0.000 A 
ATOM      8  C   UNL     1     112.456 126.663 137.876  0.00  0.00    +0.000 A 
ATOM      9  C   UNL     1     112.335 125.918 137.466  0.00  0.00    +0.000 A 
ATOM     10  C   UNL     1     112.459 125.856 136.652  0.00  0.00    +0.000 A 
ATOM     11  C   UNL     1     112.091 125.258 137.897  0.00  0.00    +0.000 A 
ATOM     12  C   UNL     1     111.971 124.536 137.515  0.00  0.00    +0.000 A 
ATOM     13  C   UNL     1     112.339 125.136 136.271  0.00  0.00    +0.000 A 
ATOM     14  C   UNL     1     112.095 124.476 136.702  0.00  0.00    +0.000 A 
ATOM     15  C   UNL     1     111.712 123.286 137.150  0.00  0.00    +0.000 C 
ENDROOT
BRANCH   7  16
ATOM     16  C   UNL     1     113.082 127.949 136.153  0.00  0.00    +0.000 A 
ATOM     17  C   UNL     1     112.545 128.346 135.668  0.00  0.00    +0.000 A 
ATOM     18  C   UNL     1     113.863 128.211 136.203  0.00  0.00    +0.000 A 
ATOM     19  C   UNL     1     112.788 129.004 135.235  0.00  0.00    +0.000 A 
ATOM     20  C   UNL     1     114.107 128.869 135.770  0.00  0.00    +0.000 A 
ATOM     21  C   UNL     1     113.569 129.266 135.286  0.00  0.00    +0.000 A 
BRANCH  19  22
ATOM     22  O   UNL     1     112.251 129.401 134.750  0.00  0.00    +0.000 OA
ATOM     23  C   UNL     1     111.505 129.078 134.612  0.00  0.00    +0.000 C 
ENDBRANCH  19  22
BRANCH  21  24
ATOM     24  O   UNL     1     113.813 129.924 134.853  0.00  0.00    +0.000 OA
ATOM     25  C   UNL     1     114.569 130.234 134.962  0.00  0.00    +0.000 C 
ENDBRANCH  21  24
ENDBRANCH   7  16
BRANCH   6  26
ATOM     26  O   UNL     1     112.829 128.074 137.819  0.00  0.00    +0.000 OA
BRANCH  26  34
ATOM     27  O   UNL     1     111.436 128.361 137.953  0.00  0.00    +0.000 OA
ATOM     28  O   UNL     1     111.896 129.624 140.030  0.00  0.00    +0.000 OA
ATOM     29  O   UNL     1     113.136 128.916 139.204  0.00  0.00    +0.000 OA
ATOM     30  O   UNL     1     110.350 129.490 139.473  0.00  0.00    +0.000 OA
ATOM     31  C   UNL     1     111.743 129.203 139.339  0.00  0.00    +0.000 C 
ATOM     32  C   UNL     1     112.363 128.849 138.925  0.00  0.00    +0.000 C 
ATOM     33  C   UNL     1     110.970 129.135 139.059  0.00  0.00    +0.000 C 
ATOM     34  C   UNL     1     112.209 128.428 138.232  0.00  0.00    +0.000 C 
ATOM     35  C   UNL     1     110.816 128.714 138.367  0.00  0.00    +0.000 C 
BRANCH  35  38
ATOM     36  O   UNL     1     109.756 129.185 137.531  0.00  0.00    +0.000 OA
ATOM     37  O   UNL     1     109.556 128.042 138.366  0.00  0.00    +0.000 OA
ATOM     38  C   UNL     1     110.043 128.647 138.088  0.00  0.00    +0.000 C 
ENDBRANCH  35  38
ENDBRANCH  26  34
ENDBRANCH   6  26
TORSDOF 6
ENDMDL
MODEL 10
REMARK VINA RESULT:      -8.7      1.193      3.697
REMARK  Name = 73119625
REMARK  6 active torsions:
REMARK  status: ('A' for Active; 'I' for Inactive)
REMARK    1  A    between atoms: O_2  and  C_18
REMARK    2  A    between atoms: O_2  and  C_21
REMARK    3  A    between atoms: O_13  and  C_34
REMARK    4  A    between atoms: O_14  and  C_36
REMARK    5  A    between atoms: C_19  and  C_20
REMARK    6  A    between atoms: C_22  and  C_26
REMARK                            x       y       z     vdW  Elec       q    Type
REMARK                         _______ _______ _______ _____ _____    ______ ____
ROOT
ATOM      1  O   UNL     1     113.166 127.380 136.246  0.00  0.00    +0.000 OA
ATOM      2  O   UNL     1     114.109 130.173 134.730  0.00  0.00    +0.000 OA
ATOM      3  O   UNL     1     115.050 129.470 135.349  0.00  0.00    +0.000 OA
ATOM      4  O   UNL     1     111.379 128.727 135.062  0.00  0.00    +0.000 OA
ATOM      5  O   UNL     1     112.387 129.685 134.680  0.00  0.00    +0.000 OA
ATOM      6  C   UNL     1     111.745 127.555 135.852  0.00  0.00    +0.000 A 
ATOM      7  C   UNL     1     112.354 127.099 136.253  0.00  0.00    +0.000 A 
ATOM      8  C   UNL     1     111.957 128.283 135.450  0.00  0.00    +0.000 A 
ATOM      9  C   UNL     1     112.774 128.548 135.453  0.00  0.00    +0.000 A 
ATOM     10  C   UNL     1     113.360 128.111 135.838  0.00  0.00    +0.000 A 
ATOM     11  C   UNL     1     112.971 129.248 135.065  0.00  0.00    +0.000 A 
ATOM     12  C   UNL     1     113.753 129.513 135.061  0.00  0.00    +0.000 A 
ATOM     13  C   UNL     1     114.140 128.375 135.834  0.00  0.00    +0.000 A 
ATOM     14  C   UNL     1     114.337 129.076 135.446  0.00  0.00    +0.000 A 
ATOM     15  C   UNL     1     114.909 130.146 134.908  0.00  0.00    +0.000 C 
ENDROOT
BRANCH   7  16
ATOM     16  C   UNL     1     112.160 126.399 136.642  0.00  0.00    +0.000 A 
ATOM     17  C   UNL     1     112.114 126.383 137.466  0.00  0.00    +0.000 A 
ATOM     18  C   UNL     1     112.012 125.713 136.208  0.00  0.00    +0.000 A 
ATOM     19  C   UNL     1     111.920 125.682 137.855  0.00  0.00    +0.000 A 
ATOM     20  C   UNL     1     111.817 125.012 136.597  0.00  0.00    +0.000 A 
ATOM     21  C   UNL     1     111.772 124.996 137.421  0.00  0.00    +0.000 A 
BRANCH  19  22
ATOM     22  O   UNL     1     111.875 125.666 138.679  0.00  0.00    +0.000 OA
ATOM     23  C   UNL     1     112.215 126.273 139.122  0.00  0.00    +0.000 C 
ENDBRANCH  19  22
BRANCH  21  24
ATOM     24  O   UNL     1     111.578 124.296 137.810  0.00  0.00    +0.000 OA
ATOM     25  C   UNL     1     111.664 123.571 137.424  0.00  0.00    +0.000 C 
ENDBRANCH  21  24
ENDBRANCH   7  16
BRANCH   6  26
ATOM     26  O   UNL     1     110.962 127.293 135.854  0.00  0.00    +0.000 OA
BRANCH  26  34
ATOM     27  O   UNL     1     110.519 128.248 136.820  0.00  0.00    +0.000 OA
ATOM     28  O   UNL     1     108.279 128.272 135.769  0.00  0.00    +0.000 OA
ATOM     29  O   UNL     1     109.469 127.309 135.153  0.00  0.00    +0.000 OA
ATOM     30  O   UNL     1     108.582 129.218 137.085  0.00  0.00    +0.000 OA
ATOM     31  C   UNL     1     109.025 128.264 136.119  0.00  0.00    +0.000 C 
ATOM     32  C   UNL     1     109.621 127.782 135.811  0.00  0.00    +0.000 C 
ATOM     33  C   UNL     1     109.178 128.737 136.777  0.00  0.00    +0.000 C 
ATOM     34  C   UNL     1     110.368 127.774 136.162  0.00  0.00    +0.000 C 
ATOM     35  C   UNL     1     109.925 128.729 137.128  0.00  0.00    +0.000 C 
BRANCH  35  38
ATOM     36  O   UNL     1     110.299 129.991 137.685  0.00  0.00    +0.000 OA
ATOM     37  O   UNL     1     110.004 128.888 138.545  0.00  0.00    +0.000 OA
ATOM     38  C   UNL     1     110.076 129.202 137.786  0.00  0.00    +0.000 C 
ENDBRANCH  35  38
ENDBRANCH  26  34
ENDBRANCH   6  26
TORSDOF 6
ENDMDL
