MODEL 1
REMARK VINA RESULT:      -8.6      0.000      0.000
REMARK  Name = 44258410
REMARK  6 active torsions:
REMARK  status: ('A' for Active; 'I' for Inactive)
REMARK    1  A    between atoms: O_2  and  C_15
REMARK    2  A    between atoms: O_2  and  C_17
REMARK    3  A    between atoms: O_8  and  C_18
REMARK    4  A    between atoms: O_9  and  C_22
REMARK    5  A    between atoms: C_14  and  C_16
REMARK    6  A    between atoms: C_24  and  C_26
REMARK                            x       y       z     vdW  Elec       q    Type
REMARK                         _______ _______ _______ _____ _____    ______ ____
ROOT
ATOM      1  O   UNL     1     113.574 126.530 138.505  0.00  0.00    +0.000 OA
ATOM      2  O   UNL     1     111.285 125.473 138.740  0.00  0.00    +0.000 OA
ATOM      3  C   UNL     1     112.682 127.746 140.122  0.00  0.00    +0.000 A 
ATOM      4  C   UNL     1     111.937 127.400 140.196  0.00  0.00    +0.000 A 
ATOM      5  C   UNL     1     113.218 127.457 139.564  0.00  0.00    +0.000 A 
ATOM      6  C   UNL     1     113.008 126.822 139.081  0.00  0.00    +0.000 A 
ATOM      7  C   UNL     1     112.262 126.476 139.156  0.00  0.00    +0.000 A 
ATOM      8  C   UNL     1     111.727 126.764 139.713  0.00  0.00    +0.000 A 
ATOM      9  C   UNL     1     112.032 125.814 138.659  0.00  0.00    +0.000 A 
ATOM     10  C   UNL     1     113.361 125.869 137.999  0.00  0.00    +0.000 A 
ATOM     11  C   UNL     1     112.585 125.508 138.077  0.00  0.00    +0.000 A 
ENDROOT
BRANCH  10  12
ATOM     12  C   UNL     1     113.899 125.583 137.443  0.00  0.00    +0.000 A 
ATOM     13  C   UNL     1     114.390 124.948 137.633  0.00  0.00    +0.000 A 
ATOM     14  C   UNL     1     113.944 125.930 136.696  0.00  0.00    +0.000 A 
ATOM     15  C   UNL     1     114.928 124.661 137.076  0.00  0.00    +0.000 A 
ATOM     16  C   UNL     1     114.481 125.644 136.139  0.00  0.00    +0.000 A 
ATOM     17  C   UNL     1     114.973 125.010 136.329  0.00  0.00    +0.000 A 
ENDBRANCH  10  12
BRANCH   4  18
ATOM     18  O   UNL     1     111.402 127.689 140.754  0.00  0.00    +0.000 OA
ATOM     19  C   UNL     1     111.348 127.333 141.497  0.00  0.00    +0.000 C 
ENDBRANCH   4  18
BRANCH   8  20
ATOM     20  O   UNL     1     110.982 126.418 139.788  0.00  0.00    +0.000 OA
ATOM     21  C   UNL     1     110.441 126.463 139.168  0.00  0.00    +0.000 C 
ENDBRANCH   8  20
BRANCH   3  22
ATOM     22  O   UNL     1     112.892 128.382 140.605  0.00  0.00    +0.000 OA
BRANCH  22  31
ATOM     23  O   UNL     1     112.880 129.464 139.673  0.00  0.00    +0.000 OA
ATOM     24  O   UNL     1     115.090 130.205 140.505  0.00  0.00    +0.000 OA
ATOM     25  O   UNL     1     114.342 131.040 139.296  0.00  0.00    +0.000 OA
ATOM     26  O   UNL     1     114.365 128.875 141.160  0.00  0.00    +0.000 OA
ATOM     27  C   UNL     1     114.353 129.958 140.228  0.00  0.00    +0.000 C 
ATOM     28  C   UNL     1     113.979 130.376 139.623  0.00  0.00    +0.000 C 
ATOM     29  C   UNL     1     113.990 129.293 140.555  0.00  0.00    +0.000 C 
ATOM     30  C   UNL     1     113.242 130.129 139.345  0.00  0.00    +0.000 C 
ATOM     31  C   UNL     1     113.254 129.046 140.278  0.00  0.00    +0.000 C 
BRANCH  30  33
ATOM     32  O   UNL     1     112.095 130.815 138.841  0.00  0.00    +0.000 OA
ATOM     33  C   UNL     1     112.868 130.547 138.741  0.00  0.00    +0.000 C 
ENDBRANCH  30  33
ENDBRANCH  22  31
ENDBRANCH   3  22
TORSDOF 6
ENDMDL
MODEL 2
REMARK VINA RESULT:      -8.6      2.532      3.443
REMARK  Name = 44258410
REMARK  6 active torsions:
REMARK  status: ('A' for Active; 'I' for Inactive)
REMARK    1  A    between atoms: O_2  and  C_15
REMARK    2  A    between atoms: O_2  and  C_17
REMARK    3  A    between atoms: O_8  and  C_18
REMARK    4  A    between atoms: O_9  and  C_22
REMARK    5  A    between atoms: C_14  and  C_16
REMARK    6  A    between atoms: C_24  and  C_26
REMARK                            x       y       z     vdW  Elec       q    Type
REMARK                         _______ _______ _______ _____ _____    ______ ____
ROOT
ATOM      1  O   UNL     1     112.824 126.885 136.533  0.00  0.00    +0.000 OA
ATOM      2  O   UNL     1     110.844 125.599 135.617  0.00  0.00    +0.000 OA
ATOM      3  C   UNL     1     111.428 128.520 136.013  0.00  0.00    +0.000 A 
ATOM      4  C   UNL     1     110.785 128.098 135.715  0.00  0.00    +0.000 A 
ATOM      5  C   UNL     1     112.097 128.117 136.281  0.00  0.00    +0.000 A 
ATOM      6  C   UNL     1     112.122 127.293 136.251  0.00  0.00    +0.000 A 
ATOM      7  C   UNL     1     111.478 126.872 135.953  0.00  0.00    +0.000 A 
ATOM      8  C   UNL     1     110.810 127.274 135.685  0.00  0.00    +0.000 A 
ATOM      9  C   UNL     1     111.492 126.013 135.916  0.00  0.00    +0.000 A 
ATOM     10  C   UNL     1     112.855 126.027 136.504  0.00  0.00    +0.000 A 
ATOM     11  C   UNL     1     112.185 125.588 136.194  0.00  0.00    +0.000 A 
ENDROOT
BRANCH  10  12
ATOM     12  C   UNL     1     113.525 125.627 136.773  0.00  0.00    +0.000 A 
ATOM     13  C   UNL     1     114.129 125.432 136.246  0.00  0.00    +0.000 A 
ATOM     14  C   UNL     1     113.591 125.421 137.569  0.00  0.00    +0.000 A 
ATOM     15  C   UNL     1     114.799 125.032 136.514  0.00  0.00    +0.000 A 
ATOM     16  C   UNL     1     114.260 125.022 137.839  0.00  0.00    +0.000 A 
ATOM     17  C   UNL     1     114.864 124.827 137.311  0.00  0.00    +0.000 A 
ENDBRANCH  10  12
BRANCH   4  18
ATOM     18  O   UNL     1     110.116 128.501 135.447  0.00  0.00    +0.000 OA
ATOM     19  C   UNL     1     110.038 128.682 134.646  0.00  0.00    +0.000 C 
ENDBRANCH   4  18
BRANCH   8  20
ATOM     20  O   UNL     1     110.166 126.853 135.387  0.00  0.00    +0.000 OA
ATOM     21  C   UNL     1     109.712 126.383 135.889  0.00  0.00    +0.000 C 
ENDBRANCH   8  20
BRANCH   3  22
ATOM     22  O   UNL     1     111.403 129.344 136.043  0.00  0.00    +0.000 OA
BRANCH  22  31
ATOM     23  O   UNL     1     111.205 129.556 137.442  0.00  0.00    +0.000 OA
ATOM     24  O   UNL     1     112.982 131.279 137.432  0.00  0.00    +0.000 OA
ATOM     25  O   UNL     1     112.191 130.917 138.833  0.00  0.00    +0.000 OA
ATOM     26  O   UNL     1     112.588 130.492 136.036  0.00  0.00    +0.000 OA
ATOM     27  C   UNL     1     112.390 130.705 137.435  0.00  0.00    +0.000 C 
ATOM     28  C   UNL     1     111.994 130.524 138.136  0.00  0.00    +0.000 C 
ATOM     29  C   UNL     1     112.192 130.311 136.737  0.00  0.00    +0.000 C 
ATOM     30  C   UNL     1     111.402 129.949 138.139  0.00  0.00    +0.000 C 
ATOM     31  C   UNL     1     111.600 129.737 136.740  0.00  0.00    +0.000 C 
BRANCH  30  33
ATOM     32  O   UNL     1     110.194 129.626 138.831  0.00  0.00    +0.000 OA
ATOM     33  C   UNL     1     111.007 129.769 138.840  0.00  0.00    +0.000 C 
ENDBRANCH  30  33
ENDBRANCH  22  31
ENDBRANCH   3  22
TORSDOF 6
ENDMDL
MODEL 3
REMARK VINA RESULT:      -8.5      2.946      4.387
REMARK  Name = 44258410
REMARK  6 active torsions:
REMARK  status: ('A' for Active; 'I' for Inactive)
REMARK    1  A    between atoms: O_2  and  C_15
REMARK    2  A    between atoms: O_2  and  C_17
REMARK    3  A    between atoms: O_8  and  C_18
REMARK    4  A    between atoms: O_9  and  C_22
REMARK    5  A    between atoms: C_14  and  C_16
REMARK    6  A    between atoms: C_24  and  C_26
REMARK                            x       y       z     vdW  Elec       q    Type
REMARK                         _______ _______ _______ _____ _____    ______ ____
ROOT
ATOM      1  O   UNL     1     113.008 127.163 136.847  0.00  0.00    +0.000 OA
ATOM      2  O   UNL     1     114.813 128.278 135.464  0.00  0.00    +0.000 OA
ATOM      3  C   UNL     1     112.300 129.258 136.788  0.00  0.00    +0.000 A 
ATOM      4  C   UNL     1     112.890 129.617 136.337  0.00  0.00    +0.000 A 
ATOM      5  C   UNL     1     112.343 128.450 136.953  0.00  0.00    +0.000 A 
ATOM      6  C   UNL     1     112.975 128.003 136.667  0.00  0.00    +0.000 A 
ATOM      7  C   UNL     1     113.564 128.364 136.217  0.00  0.00    +0.000 A 
ATOM      8  C   UNL     1     113.522 129.171 136.051  0.00  0.00    +0.000 A 
ATOM      9  C   UNL     1     114.228 127.910 135.914  0.00  0.00    +0.000 A 
ATOM     10  C   UNL     1     113.664 126.693 136.552  0.00  0.00    +0.000 A 
ATOM     11  C   UNL     1     114.278 127.068 136.082  0.00  0.00    +0.000 A 
ENDROOT
BRANCH  10  12
ATOM     12  C   UNL     1     113.704 125.886 136.719  0.00  0.00    +0.000 A 
ATOM     13  C   UNL     1     113.171 125.365 136.366  0.00  0.00    +0.000 A 
ATOM     14  C   UNL     1     114.278 125.600 137.238  0.00  0.00    +0.000 A 
ATOM     15  C   UNL     1     113.211 124.558 136.532  0.00  0.00    +0.000 A 
ATOM     16  C   UNL     1     114.319 124.794 137.406  0.00  0.00    +0.000 A 
ATOM     17  C   UNL     1     113.785 124.273 137.053  0.00  0.00    +0.000 A 
ENDBRANCH  10  12
BRANCH   4  18
ATOM     18  O   UNL     1     112.847 130.425 136.172  0.00  0.00    +0.000 OA
ATOM     19  C   UNL     1     113.237 130.966 136.657  0.00  0.00    +0.000 C 
ENDBRANCH   4  18
BRANCH   8  20
ATOM     20  O   UNL     1     114.111 129.532 135.601  0.00  0.00    +0.000 OA
ATOM     21  C   UNL     1     114.192 129.346 134.802  0.00  0.00    +0.000 C 
ENDBRANCH   8  20
BRANCH   3  22
ATOM     22  O   UNL     1     111.668 129.704 137.073  0.00  0.00    +0.000 OA
BRANCH  22  31
ATOM     23  O   UNL     1     110.654 129.298 136.152  0.00  0.00    +0.000 OA
ATOM     24  O   UNL     1     109.045 129.079 138.019  0.00  0.00    +0.000 OA
ATOM     25  O   UNL     1     108.568 128.745 136.476  0.00  0.00    +0.000 OA
ATOM     26  O   UNL     1     110.595 129.558 138.318  0.00  0.00    +0.000 OA
ATOM     27  C   UNL     1     109.581 129.152 137.397  0.00  0.00    +0.000 C 
ATOM     28  C   UNL     1     109.343 128.985 136.625  0.00  0.00    +0.000 C 
ATOM     29  C   UNL     1     110.357 129.392 137.546  0.00  0.00    +0.000 C 
ATOM     30  C   UNL     1     109.880 129.058 136.002  0.00  0.00    +0.000 C 
ATOM     31  C   UNL     1     110.894 129.465 136.924  0.00  0.00    +0.000 C 
BRANCH  30  33
ATOM     32  O   UNL     1     109.861 129.392 134.613  0.00  0.00    +0.000 OA
ATOM     33  C   UNL     1     109.641 128.891 135.231  0.00  0.00    +0.000 C 
ENDBRANCH  30  33
ENDBRANCH  22  31
ENDBRANCH   3  22
TORSDOF 6
ENDMDL
MODEL 4
REMARK VINA RESULT:      -8.5      2.761      4.798
REMARK  Name = 44258410
REMARK  6 active torsions:
REMARK  status: ('A' for Active; 'I' for Inactive)
REMARK    1  A    between atoms: O_2  and  C_15
REMARK    2  A    between atoms: O_2  and  C_17
REMARK    3  A    between atoms: O_8  and  C_18
REMARK    4  A    between atoms: O_9  and  C_22
REMARK    5  A    between atoms: C_14  and  C_16
REMARK    6  A    between atoms: C_24  and  C_26
REMARK                            x       y       z     vdW  Elec       q    Type
REMARK                         _______ _______ _______ _____ _____    ______ ____
ROOT
ATOM      1  O   UNL     1     112.980 127.444 136.279  0.00  0.00    +0.000 OA
ATOM      2  O   UNL     1     114.849 125.744 136.454  0.00  0.00    +0.000 OA
ATOM      3  C   UNL     1     111.867 125.603 136.793  0.00  0.00    +0.000 A 
ATOM      4  C   UNL     1     112.479 125.052 136.849  0.00  0.00    +0.000 A 
ATOM      5  C   UNL     1     112.037 126.389 136.605  0.00  0.00    +0.000 A 
ATOM      6  C   UNL     1     112.817 126.623 136.474  0.00  0.00    +0.000 A 
ATOM      7  C   UNL     1     113.428 126.070 136.530  0.00  0.00    +0.000 A 
ATOM      8  C   UNL     1     113.259 125.286 136.717  0.00  0.00    +0.000 A 
ATOM      9  C   UNL     1     114.244 126.302 136.396  0.00  0.00    +0.000 A 
ATOM     10  C   UNL     1     113.790 127.693 136.141  0.00  0.00    +0.000 A 
ATOM     11  C   UNL     1     114.427 127.119 136.200  0.00  0.00    +0.000 A 
ENDROOT
BRANCH  10  12
ATOM     12  C   UNL     1     113.957 128.479 135.954  0.00  0.00    +0.000 A 
ATOM     13  C   UNL     1     114.212 128.677 135.195  0.00  0.00    +0.000 A 
ATOM     14  C   UNL     1     113.868 129.067 136.526  0.00  0.00    +0.000 A 
ATOM     15  C   UNL     1     114.378 129.463 135.007  0.00  0.00    +0.000 A 
ATOM     16  C   UNL     1     114.034 129.853 136.339  0.00  0.00    +0.000 A 
ATOM     17  C   UNL     1     114.289 130.051 135.580  0.00  0.00    +0.000 A 
ENDBRANCH  10  12
BRANCH   4  18
ATOM     18  O   UNL     1     112.309 124.266 137.036  0.00  0.00    +0.000 OA
ATOM     19  C   UNL     1     112.180 123.717 136.434  0.00  0.00    +0.000 C 
ENDBRANCH   4  18
BRANCH   8  20
ATOM     20  O   UNL     1     113.870 124.734 136.774  0.00  0.00    +0.000 OA
ATOM     21  C   UNL     1     114.443 124.811 137.361  0.00  0.00    +0.000 C 
ENDBRANCH   8  20
BRANCH   3  22
ATOM     22  O   UNL     1     111.087 125.369 136.924  0.00  0.00    +0.000 OA
BRANCH  22  31
ATOM     23  O   UNL     1     110.843 125.870 138.239  0.00  0.00    +0.000 OA
ATOM     24  O   UNL     1     108.731 126.896 137.457  0.00  0.00    +0.000 OA
ATOM     25  O   UNL     1     109.192 127.056 139.032  0.00  0.00    +0.000 OA
ATOM     26  O   UNL     1     109.679 126.053 136.402  0.00  0.00    +0.000 OA
ATOM     27  C   UNL     1     109.435 126.554 137.718  0.00  0.00    +0.000 C 
ATOM     28  C   UNL     1     109.666 126.634 138.506  0.00  0.00    +0.000 C 
ATOM     29  C   UNL     1     109.910 126.132 137.190  0.00  0.00    +0.000 C 
ATOM     30  C   UNL     1     110.370 126.292 138.767  0.00  0.00    +0.000 C 
ATOM     31  C   UNL     1     110.614 125.790 137.451  0.00  0.00    +0.000 C 
BRANCH  30  33
ATOM     32  O   UNL     1     110.977 125.747 139.940  0.00  0.00    +0.000 OA
ATOM     33  C   UNL     1     110.600 126.372 139.554  0.00  0.00    +0.000 C 
ENDBRANCH  30  33
ENDBRANCH  22  31
ENDBRANCH   3  22
TORSDOF 6
ENDMDL
MODEL 5
REMARK VINA RESULT:      -8.5      3.551      4.970
REMARK  Name = 44258410
REMARK  6 active torsions:
REMARK  status: ('A' for Active; 'I' for Inactive)
REMARK    1  A    between atoms: O_2  and  C_15
REMARK    2  A    between atoms: O_2  and  C_17
REMARK    3  A    between atoms: O_8  and  C_18
REMARK    4  A    between atoms: O_9  and  C_22
REMARK    5  A    between atoms: C_14  and  C_16
REMARK    6  A    between atoms: C_24  and  C_26
REMARK                            x       y       z     vdW  Elec       q    Type
REMARK                         _______ _______ _______ _____ _____    ______ ____
ROOT
ATOM      1  O   UNL     1     112.716 128.935 135.673  0.00  0.00    +0.000 OA
ATOM      2  O   UNL     1     113.528 126.702 136.551  0.00  0.00    +0.000 OA
ATOM      3  C   UNL     1     110.818 127.820 135.892  0.00  0.00    +0.000 A 
ATOM      4  C   UNL     1     111.086 127.094 136.178  0.00  0.00    +0.000 A 
ATOM      5  C   UNL     1     111.358 128.423 135.727  0.00  0.00    +0.000 A 
ATOM      6  C   UNL     1     112.164 128.299 135.849  0.00  0.00    +0.000 A 
ATOM      7  C   UNL     1     112.431 127.572 136.135  0.00  0.00    +0.000 A 
ATOM      8  C   UNL     1     111.893 126.970 136.299  0.00  0.00    +0.000 A 
ATOM      9  C   UNL     1     113.269 127.432 136.265  0.00  0.00    +0.000 A 
ATOM     10  C   UNL     1     113.557 128.811 135.798  0.00  0.00    +0.000 A 
ATOM     11  C   UNL     1     113.836 128.055 136.095  0.00  0.00    +0.000 A 
ENDROOT
BRANCH  10  12
ATOM     12  C   UNL     1     114.094 129.416 135.632  0.00  0.00    +0.000 A 
ATOM     13  C   UNL     1     114.264 129.985 136.205  0.00  0.00    +0.000 A 
ATOM     14  C   UNL     1     114.460 129.451 134.894  0.00  0.00    +0.000 A 
ATOM     15  C   UNL     1     114.801 130.589 136.039  0.00  0.00    +0.000 A 
ATOM     16  C   UNL     1     114.997 130.055 134.728  0.00  0.00    +0.000 A 
ATOM     17  C   UNL     1     115.167 130.624 135.301  0.00  0.00    +0.000 A 
ENDBRANCH  10  12
BRANCH   4  18
ATOM     18  O   UNL     1     110.547 126.491 136.343  0.00  0.00    +0.000 OA
ATOM     19  C   UNL     1     110.391 125.912 135.776  0.00  0.00    +0.000 C 
ENDBRANCH   4  18
BRANCH   8  20
ATOM     20  O   UNL     1     112.160 126.244 136.585  0.00  0.00    +0.000 OA
ATOM     21  C   UNL     1     112.485 126.192 137.341  0.00  0.00    +0.000 C 
ENDBRANCH   8  20
BRANCH   3  22
ATOM     22  O   UNL     1     110.012 127.943 135.771  0.00  0.00    +0.000 OA
BRANCH  22  31
ATOM     23  O   UNL     1     109.734 128.766 136.906  0.00  0.00    +0.000 OA
ATOM     24  O   UNL     1     108.341 130.246 135.494  0.00  0.00    +0.000 OA
ATOM     25  O   UNL     1     108.528 130.574 137.099  0.00  0.00    +0.000 OA
ATOM     26  O   UNL     1     109.083 128.930 134.829  0.00  0.00    +0.000 OA
ATOM     27  C   UNL     1     108.805 129.752 135.965  0.00  0.00    +0.000 C 
ATOM     28  C   UNL     1     108.899 129.916 136.768  0.00  0.00    +0.000 C 
ATOM     29  C   UNL     1     109.177 129.094 135.632  0.00  0.00    +0.000 C 
ATOM     30  C   UNL     1     109.363 129.423 137.238  0.00  0.00    +0.000 C 
ATOM     31  C   UNL     1     109.641 128.601 136.103  0.00  0.00    +0.000 C 
BRANCH  30  33
ATOM     32  O   UNL     1     109.369 128.986 138.599  0.00  0.00    +0.000 OA
ATOM     33  C   UNL     1     109.457 129.587 138.041  0.00  0.00    +0.000 C 
ENDBRANCH  30  33
ENDBRANCH  22  31
ENDBRANCH   3  22
TORSDOF 6
ENDMDL
MODEL 6
REMARK VINA RESULT:      -8.4      1.745      3.115
REMARK  Name = 44258410
REMARK  6 active torsions:
REMARK  status: ('A' for Active; 'I' for Inactive)
REMARK    1  A    between atoms: O_2  and  C_15
REMARK    2  A    between atoms: O_2  and  C_17
REMARK    3  A    between atoms: O_8  and  C_18
REMARK    4  A    between atoms: O_9  and  C_22
REMARK    5  A    between atoms: C_14  and  C_16
REMARK    6  A    between atoms: C_24  and  C_26
REMARK                            x       y       z     vdW  Elec       q    Type
REMARK                         _______ _______ _______ _____ _____    ______ ____
ROOT
ATOM      1  O   UNL     1     113.174 127.366 137.515  0.00  0.00    +0.000 OA
ATOM      2  O   UNL     1     113.861 128.559 135.389  0.00  0.00    +0.000 OA
ATOM      3  C   UNL     1     112.512 129.436 137.927  0.00  0.00    +0.000 A 
ATOM      4  C   UNL     1     112.737 129.821 137.233  0.00  0.00    +0.000 A 
ATOM      5  C   UNL     1     112.658 128.628 138.015  0.00  0.00    +0.000 A 
ATOM      6  C   UNL     1     113.028 128.207 137.410  0.00  0.00    +0.000 A 
ATOM      7  C   UNL     1     113.253 128.593 136.717  0.00  0.00    +0.000 A 
ATOM      8  C   UNL     1     113.107 129.400 136.628  0.00  0.00    +0.000 A 
ATOM      9  C   UNL     1     113.639 128.166 136.080  0.00  0.00    +0.000 A 
ATOM     10  C   UNL     1     113.560 126.922 136.888  0.00  0.00    +0.000 A 
ATOM     11  C   UNL     1     113.794 127.324 136.165  0.00  0.00    +0.000 A 
ENDROOT
BRANCH  10  12
ATOM     12  C   UNL     1     113.704 126.115 136.979  0.00  0.00    +0.000 A 
ATOM     13  C   UNL     1     113.159 125.564 136.696  0.00  0.00    +0.000 A 
ATOM     14  C   UNL     1     114.393 125.859 137.354  0.00  0.00    +0.000 A 
ATOM     15  C   UNL     1     113.304 124.757 136.788  0.00  0.00    +0.000 A 
ATOM     16  C   UNL     1     114.538 125.053 137.445  0.00  0.00    +0.000 A 
ATOM     17  C   UNL     1     113.994 124.502 137.162  0.00  0.00    +0.000 A 
ENDBRANCH  10  12
BRANCH   4  18
ATOM     18  O   UNL     1     112.591 130.629 137.144  0.00  0.00    +0.000 OA
ATOM     19  C   UNL     1     111.899 130.884 136.775  0.00  0.00    +0.000 C 
ENDBRANCH   4  18
BRANCH   8  20
ATOM     20  O   UNL     1     113.332 129.786 135.934  0.00  0.00    +0.000 OA
ATOM     21  C   UNL     1     114.131 129.884 135.756  0.00  0.00    +0.000 C 
ENDBRANCH   8  20
BRANCH   3  22
ATOM     22  O   UNL     1     112.142 129.857 138.532  0.00  0.00    +0.000 OA
BRANCH  22  31
ATOM     23  O   UNL     1     113.244 130.065 139.416  0.00  0.00    +0.000 OA
ATOM     24  O   UNL     1     111.834 129.388 141.334  0.00  0.00    +0.000 OA
ATOM     25  O   UNL     1     113.406 129.822 141.579  0.00  0.00    +0.000 OA
ATOM     26  O   UNL     1     111.201 129.405 139.810  0.00  0.00    +0.000 OA
ATOM     27  C   UNL     1     112.304 129.614 140.695  0.00  0.00    +0.000 C 
ATOM     28  C   UNL     1     113.090 129.831 140.817  0.00  0.00    +0.000 C 
ATOM     29  C   UNL     1     111.987 129.622 139.932  0.00  0.00    +0.000 C 
ATOM     30  C   UNL     1     113.560 130.057 140.178  0.00  0.00    +0.000 C 
ATOM     31  C   UNL     1     112.458 129.848 139.293  0.00  0.00    +0.000 C 
BRANCH  30  33
ATOM     32  O   UNL     1     114.642 130.965 139.961  0.00  0.00    +0.000 OA
ATOM     33  C   UNL     1     114.346 130.274 140.301  0.00  0.00    +0.000 C 
ENDBRANCH  30  33
ENDBRANCH  22  31
ENDBRANCH   3  22
TORSDOF 6
ENDMDL
MODEL 7
REMARK VINA RESULT:      -8.3      3.223      5.346
REMARK  Name = 44258410
REMARK  6 active torsions:
REMARK  status: ('A' for Active; 'I' for Inactive)
REMARK    1  A    between atoms: O_2  and  C_15
REMARK    2  A    between atoms: O_2  and  C_17
REMARK    3  A    between atoms: O_8  and  C_18
REMARK    4  A    between atoms: O_9  and  C_22
REMARK    5  A    between atoms: C_14  and  C_16
REMARK    6  A    between atoms: C_24  and  C_26
REMARK                            x       y       z     vdW  Elec       q    Type
REMARK                         _______ _______ _______ _____ _____    ______ ____
ROOT
ATOM      1  O   UNL     1     112.301 128.345 135.708  0.00  0.00    +0.000 OA
ATOM      2  O   UNL     1     110.581 130.140 136.193  0.00  0.00    +0.000 OA
ATOM      3  C   UNL     1     110.477 127.141 136.044  0.00  0.00    +0.000 A 
ATOM      4  C   UNL     1     109.920 127.728 136.201  0.00  0.00    +0.000 A 
ATOM      5  C   UNL     1     111.260 127.348 135.882  0.00  0.00    +0.000 A 
ATOM      6  C   UNL     1     111.484 128.142 135.878  0.00  0.00    +0.000 A 
ATOM      7  C   UNL     1     110.925 128.729 136.035  0.00  0.00    +0.000 A 
ATOM      8  C   UNL     1     110.144 128.522 136.197  0.00  0.00    +0.000 A 
ATOM      9  C   UNL     1     111.146 129.559 136.034  0.00  0.00    +0.000 A 
ATOM     10  C   UNL     1     112.540 129.171 135.702  0.00  0.00    +0.000 A 
ATOM     11  C   UNL     1     111.959 129.782 135.866  0.00  0.00    +0.000 A 
ENDROOT
BRANCH  10  12
ATOM     12  C   UNL     1     113.323 129.375 135.540  0.00  0.00    +0.000 A 
ATOM     13  C   UNL     1     113.619 129.298 134.774  0.00  0.00    +0.000 A 
ATOM     14  C   UNL     1     113.809 129.657 136.144  0.00  0.00    +0.000 A 
ATOM     15  C   UNL     1     114.402 129.503 134.612  0.00  0.00    +0.000 A 
ATOM     16  C   UNL     1     114.591 129.862 135.983  0.00  0.00    +0.000 A 
ATOM     17  C   UNL     1     114.888 129.785 135.217  0.00  0.00    +0.000 A 
ENDBRANCH  10  12
BRANCH   4  18
ATOM     18  O   UNL     1     109.137 127.520 136.363  0.00  0.00    +0.000 OA
ATOM     19  C   UNL     1     108.580 127.510 135.755  0.00  0.00    +0.000 C 
ENDBRANCH   4  18
BRANCH   8  20
ATOM     20  O   UNL     1     109.585 129.108 136.355  0.00  0.00    +0.000 OA
ATOM     21  C   UNL     1     109.632 129.548 137.051  0.00  0.00    +0.000 C 
ENDBRANCH   8  20
BRANCH   3  22
ATOM     22  O   UNL     1     110.254 126.347 136.048  0.00  0.00    +0.000 OA
BRANCH  22  31
ATOM     23  O   UNL     1     110.838 125.925 137.281  0.00  0.00    +0.000 OA
ATOM     24  O   UNL     1     111.713 123.892 136.172  0.00  0.00    +0.000 OA
ATOM     25  O   UNL     1     112.006 124.148 137.775  0.00  0.00    +0.000 OA
ATOM     26  O   UNL     1     110.837 124.992 135.308  0.00  0.00    +0.000 OA
ATOM     27  C   UNL     1     111.421 124.570 136.542  0.00  0.00    +0.000 C 
ATOM     28  C   UNL     1     111.568 124.698 137.343  0.00  0.00    +0.000 C 
ATOM     29  C   UNL     1     110.983 125.120 136.110  0.00  0.00    +0.000 C 
ATOM     30  C   UNL     1     111.276 125.375 137.713  0.00  0.00    +0.000 C 
ATOM     31  C   UNL     1     110.691 125.797 136.479  0.00  0.00    +0.000 C 
BRANCH  30  33
ATOM     32  O   UNL     1     110.797 125.653 139.030  0.00  0.00    +0.000 OA
ATOM     33  C   UNL     1     111.423 125.503 138.514  0.00  0.00    +0.000 C 
ENDBRANCH  30  33
ENDBRANCH  22  31
ENDBRANCH   3  22
TORSDOF 6
ENDMDL
MODEL 8
REMARK VINA RESULT:      -8.3      2.463      4.550
REMARK  Name = 44258410
REMARK  6 active torsions:
REMARK  status: ('A' for Active; 'I' for Inactive)
REMARK    1  A    between atoms: O_2  and  C_15
REMARK    2  A    between atoms: O_2  and  C_17
REMARK    3  A    between atoms: O_8  and  C_18
REMARK    4  A    between atoms: O_9  and  C_22
REMARK    5  A    between atoms: C_14  and  C_16
REMARK    6  A    between atoms: C_24  and  C_26
REMARK                            x       y       z     vdW  Elec       q    Type
REMARK                         _______ _______ _______ _____ _____    ______ ____
ROOT
ATOM      1  O   UNL     1     113.694 128.800 136.676  0.00  0.00    +0.000 OA
ATOM      2  O   UNL     1     111.616 130.146 137.205  0.00  0.00    +0.000 OA
ATOM      3  C   UNL     1     112.587 127.416 137.999  0.00  0.00    +0.000 A 
ATOM      4  C   UNL     1     111.911 127.858 138.169  0.00  0.00    +0.000 A 
ATOM      5  C   UNL     1     113.171 127.730 137.508  0.00  0.00    +0.000 A 
ATOM      6  C   UNL     1     113.079 128.485 137.187  0.00  0.00    +0.000 A 
ATOM      7  C   UNL     1     112.402 128.925 137.358  0.00  0.00    +0.000 A 
ATOM      8  C   UNL     1     111.819 128.612 137.849  0.00  0.00    +0.000 A 
ATOM      9  C   UNL     1     112.295 129.712 137.030  0.00  0.00    +0.000 A 
ATOM     10  C   UNL     1     113.604 129.585 136.340  0.00  0.00    +0.000 A 
ATOM     11  C   UNL     1     112.900 130.045 136.517  0.00  0.00    +0.000 A 
ENDROOT
BRANCH  10  12
ATOM     12  C   UNL     1     114.189 129.896 135.849  0.00  0.00    +0.000 A 
ATOM     13  C   UNL     1     114.644 130.536 136.103  0.00  0.00    +0.000 A 
ATOM     14  C   UNL     1     114.320 129.567 135.103  0.00  0.00    +0.000 A 
ATOM     15  C   UNL     1     115.229 130.847 135.612  0.00  0.00    +0.000 A 
ATOM     16  C   UNL     1     114.905 129.878 134.612  0.00  0.00    +0.000 A 
ATOM     17  C   UNL     1     115.360 130.517 134.866  0.00  0.00    +0.000 A 
ENDBRANCH  10  12
BRANCH   4  18
ATOM     18  O   UNL     1     111.327 127.544 138.661  0.00  0.00    +0.000 OA
ATOM     19  C   UNL     1     111.329 127.719 139.467  0.00  0.00    +0.000 C 
ENDBRANCH   4  18
BRANCH   8  20
ATOM     20  O   UNL     1     111.142 129.053 138.019  0.00  0.00    +0.000 OA
ATOM     21  C   UNL     1     110.593 129.213 137.426  0.00  0.00    +0.000 C 
ENDBRANCH   8  20
BRANCH   3  22
ATOM     22  O   UNL     1     112.679 126.662 138.320  0.00  0.00    +0.000 OA
BRANCH  22  31
ATOM     23  O   UNL     1     112.368 125.815 137.212  0.00  0.00    +0.000 OA
ATOM     24  O   UNL     1     114.454 124.541 137.600  0.00  0.00    +0.000 OA
ATOM     25  O   UNL     1     113.448 124.120 136.363  0.00  0.00    +0.000 OA
ATOM     26  O   UNL     1     114.070 125.813 138.579  0.00  0.00    +0.000 OA
ATOM     27  C   UNL     1     113.759 124.966 137.470  0.00  0.00    +0.000 C 
ATOM     28  C   UNL     1     113.255 124.755 136.852  0.00  0.00    +0.000 C 
ATOM     29  C   UNL     1     113.566 125.602 137.960  0.00  0.00    +0.000 C 
ATOM     30  C   UNL     1     112.560 125.180 136.723  0.00  0.00    +0.000 C 
ATOM     31  C   UNL     1     112.871 126.027 137.831  0.00  0.00    +0.000 C 
BRANCH  30  33
ATOM     32  O   UNL     1     111.242 124.939 136.226  0.00  0.00    +0.000 OA
ATOM     33  C   UNL     1     112.057 124.969 136.104  0.00  0.00    +0.000 C 
ENDBRANCH  30  33
ENDBRANCH  22  31
ENDBRANCH   3  22
TORSDOF 6
ENDMDL
MODEL 9
REMARK VINA RESULT:      -8.3      2.383      3.521
REMARK  Name = 44258410
REMARK  6 active torsions:
REMARK  status: ('A' for Active; 'I' for Inactive)
REMARK    1  A    between atoms: O_2  and  C_15
REMARK    2  A    between atoms: O_2  and  C_17
REMARK    3  A    between atoms: O_8  and  C_18
REMARK    4  A    between atoms: O_9  and  C_22
REMARK    5  A    between atoms: C_14  and  C_16
REMARK    6  A    between atoms: C_24  and  C_26
REMARK                            x       y       z     vdW  Elec       q    Type
REMARK                         _______ _______ _______ _____ _____    ______ ____
ROOT
ATOM      1  O   UNL     1     113.051 126.912 137.572  0.00  0.00    +0.000 OA
ATOM      2  O   UNL     1     113.083 127.177 140.090  0.00  0.00    +0.000 OA
ATOM      3  C   UNL     1     112.196 128.937 137.822  0.00  0.00    +0.000 A 
ATOM      4  C   UNL     1     112.208 129.019 138.643  0.00  0.00    +0.000 A 
ATOM      5  C   UNL     1     112.475 128.242 137.474  0.00  0.00    +0.000 A 
ATOM      6  C   UNL     1     112.765 127.631 137.947  0.00  0.00    +0.000 A 
ATOM      7  C   UNL     1     112.776 127.715 138.767  0.00  0.00    +0.000 A 
ATOM      8  C   UNL     1     112.498 128.408 139.115  0.00  0.00    +0.000 A 
ATOM      9  C   UNL     1     113.075 127.086 139.270  0.00  0.00    +0.000 A 
ATOM     10  C   UNL     1     113.354 126.273 138.059  0.00  0.00    +0.000 A 
ATOM     11  C   UNL     1     113.366 126.359 138.914  0.00  0.00    +0.000 A 
ENDROOT
BRANCH  10  12
ATOM     12  C   UNL     1     113.632 125.579 137.708  0.00  0.00    +0.000 A 
ATOM     13  C   UNL     1     114.443 125.440 137.655  0.00  0.00    +0.000 A 
ATOM     14  C   UNL     1     113.098 125.025 137.411  0.00  0.00    +0.000 A 
ATOM     15  C   UNL     1     114.721 124.747 137.304  0.00  0.00    +0.000 A 
ATOM     16  C   UNL     1     113.374 124.332 137.060  0.00  0.00    +0.000 A 
ATOM     17  C   UNL     1     114.186 124.193 137.007  0.00  0.00    +0.000 A 
ENDBRANCH  10  12
BRANCH   4  18
ATOM     18  O   UNL     1     111.930 129.714 138.991  0.00  0.00    +0.000 OA
ATOM     19  C   UNL     1     112.457 130.319 139.181  0.00  0.00    +0.000 C 
ENDBRANCH   4  18
BRANCH   8  20
ATOM     20  O   UNL     1     112.509 128.492 139.936  0.00  0.00    +0.000 OA
ATOM     21  C   UNL     1     112.014 128.030 140.406  0.00  0.00    +0.000 C 
ENDBRANCH   8  20
BRANCH   3  22
ATOM     22  O   UNL     1     111.907 129.548 137.350  0.00  0.00    +0.000 OA
BRANCH  22  31
ATOM     23  O   UNL     1     110.649 128.999 136.952  0.00  0.00    +0.000 OA
ATOM     24  O   UNL     1     111.094 129.675 134.613  0.00  0.00    +0.000 OA
ATOM     25  O   UNL     1     109.688 128.901 134.995  0.00  0.00    +0.000 OA
ATOM     26  O   UNL     1     112.203 129.998 135.790  0.00  0.00    +0.000 OA
ATOM     27  C   UNL     1     110.945 129.449 135.392  0.00  0.00    +0.000 C 
ATOM     28  C   UNL     1     110.242 129.063 135.584  0.00  0.00    +0.000 C 
ATOM     29  C   UNL     1     111.500 129.611 135.982  0.00  0.00    +0.000 C 
ATOM     30  C   UNL     1     110.094 128.837 136.364  0.00  0.00    +0.000 C 
ATOM     31  C   UNL     1     111.352 129.386 136.761  0.00  0.00    +0.000 C 
BRANCH  30  33
ATOM     32  O   UNL     1     109.000 128.628 137.259  0.00  0.00    +0.000 OA
ATOM     33  C   UNL     1     109.391 128.451 136.554  0.00  0.00    +0.000 C 
ENDBRANCH  30  33
ENDBRANCH  22  31
ENDBRANCH   3  22
TORSDOF 6
ENDMDL
MODEL 10
REMARK VINA RESULT:      -8.2      1.348      2.145
REMARK  Name = 44258410
REMARK  6 active torsions:
REMARK  status: ('A' for Active; 'I' for Inactive)
REMARK    1  A    between atoms: O_2  and  C_15
REMARK    2  A    between atoms: O_2  and  C_17
REMARK    3  A    between atoms: O_8  and  C_18
REMARK    4  A    between atoms: O_9  and  C_22
REMARK    5  A    between atoms: C_14  and  C_16
REMARK    6  A    between atoms: C_24  and  C_26
REMARK                            x       y       z     vdW  Elec       q    Type
REMARK                         _______ _______ _______ _____ _____    ______ ____
ROOT
ATOM      1  O   UNL     1     112.814 126.889 137.846  0.00  0.00    +0.000 OA
ATOM      2  O   UNL     1     111.669 126.066 139.949  0.00  0.00    +0.000 OA
ATOM      3  C   UNL     1     111.709 128.693 138.492  0.00  0.00    +0.000 A 
ATOM      4  C   UNL     1     111.337 128.421 139.176  0.00  0.00    +0.000 A 
ATOM      5  C   UNL     1     112.194 128.185 138.057  0.00  0.00    +0.000 A 
ATOM      6  C   UNL     1     112.307 127.407 138.307  0.00  0.00    +0.000 A 
ATOM      7  C   UNL     1     111.935 127.137 138.992  0.00  0.00    +0.000 A 
ATOM      8  C   UNL     1     111.450 127.643 139.427  0.00  0.00    +0.000 A 
ATOM      9  C   UNL     1     112.044 126.329 139.263  0.00  0.00    +0.000 A 
ATOM     10  C   UNL     1     112.935 126.078 138.102  0.00  0.00    +0.000 A 
ATOM     11  C   UNL     1     112.548 125.796 138.815  0.00  0.00    +0.000 A 
ENDROOT
BRANCH  10  12
ATOM     12  C   UNL     1     113.420 125.573 137.665  0.00  0.00    +0.000 A 
ATOM     13  C   UNL     1     114.219 125.501 137.857  0.00  0.00    +0.000 A 
ATOM     14  C   UNL     1     113.106 125.141 137.036  0.00  0.00    +0.000 A 
ATOM     15  C   UNL     1     114.704 124.996 137.421  0.00  0.00    +0.000 A 
ATOM     16  C   UNL     1     113.591 124.636 136.600  0.00  0.00    +0.000 A 
ATOM     17  C   UNL     1     114.390 124.564 136.792  0.00  0.00    +0.000 A 
ENDBRANCH  10  12
BRANCH   4  18
ATOM     18  O   UNL     1     110.852 128.929 139.611  0.00  0.00    +0.000 OA
ATOM     19  C   UNL     1     110.038 128.932 139.481  0.00  0.00    +0.000 C 
ENDBRANCH   4  18
BRANCH   8  20
ATOM     20  O   UNL     1     111.078 127.373 140.112  0.00  0.00    +0.000 OA
ATOM     21  C   UNL     1     111.527 127.170 140.773  0.00  0.00    +0.000 C 
ENDBRANCH   8  20
BRANCH   3  22
ATOM     22  O   UNL     1     111.596 129.471 138.241  0.00  0.00    +0.000 OA
BRANCH  22  31
ATOM     23  O   UNL     1     112.874 130.031 138.545  0.00  0.00    +0.000 OA
ATOM     24  O   UNL     1     112.927 131.116 136.321  0.00  0.00    +0.000 OA
ATOM     25  O   UNL     1     114.188 131.315 137.366  0.00  0.00    +0.000 OA
ATOM     26  O   UNL     1     111.631 130.194 136.758  0.00  0.00    +0.000 OA
ATOM     27  C   UNL     1     112.910 130.754 137.062  0.00  0.00    +0.000 C 
ATOM     28  C   UNL     1     113.540 130.854 137.585  0.00  0.00    +0.000 C 
ATOM     29  C   UNL     1     112.261 130.293 137.281  0.00  0.00    +0.000 C 
ATOM     30  C   UNL     1     113.522 130.492 138.327  0.00  0.00    +0.000 C 
ATOM     31  C   UNL     1     112.243 129.931 138.023  0.00  0.00    +0.000 C 
BRANCH  30  33
ATOM     32  O   UNL     1     114.008 130.776 139.640  0.00  0.00    +0.000 OA
ATOM     33  C   UNL     1     114.152 130.592 138.849  0.00  0.00    +0.000 C 
ENDBRANCH  30  33
ENDBRANCH  22  31
ENDBRANCH   3  22
TORSDOF 6
ENDMDL
