MODEL 1
REMARK VINA RESULT:      -8.0      0.000      0.000
REMARK  Name = 4277185
REMARK  5 active torsions:
REMARK  status: ('A' for Active; 'I' for Inactive)
REMARK    1  A    between atoms: O_2  and  C_14
REMARK    2  A    between atoms: O_3  and  C_19
REMARK    3  A    between atoms: O_5  and  C_22
REMARK    4  A    between atoms: O_7  and  C_24
REMARK    5  A    between atoms: C_11  and  C_13
REMARK                            x       y       z     vdW  Elec       q    Type
REMARK                         _______ _______ _______ _____ _____    ______ ____
ROOT
ATOM      1  O   UNL     1     105.443 124.597 147.624  0.00  0.00    +0.000 OA
ATOM      2  O   UNL     1     107.721 125.893 146.409  0.00  0.00    +0.000 OA
ATOM      3  O   UNL     1     106.424 125.923 145.779  0.00  0.00    +0.000 OA
ATOM      4  O   UNL     1     108.702 125.401 147.694  0.00  0.00    +0.000 OA
ATOM      5  C   UNL     1     106.570 125.237 147.024  0.00  0.00    +0.000 A 
ATOM      6  C   UNL     1     104.969 124.840 146.993  0.00  0.00    +0.000 A 
ATOM      7  C   UNL     1     106.243 124.795 147.639  0.00  0.00    +0.000 A 
ATOM      8  C   UNL     1     105.296 125.282 146.378  0.00  0.00    +0.000 A 
ATOM      9  C   UNL     1     106.097 125.481 146.394  0.00  0.00    +0.000 A 
ATOM     10  C   UNL     1     107.403 125.451 147.028  0.00  0.00    +0.000 A 
ATOM     11  C   UNL     1     106.726 124.536 148.301  0.00  0.00    +0.000 A 
ATOM     12  C   UNL     1     107.560 124.740 148.323  0.00  0.00    +0.000 A 
ATOM     13  C   UNL     1     107.901 125.201 147.682  0.00  0.00    +0.000 A 
ENDROOT
BRANCH   6  15
ATOM     14  O   UNL     1     102.863 123.119 146.115  0.00  0.00    +0.000 OA
ATOM     15  C   UNL     1     104.169 124.641 146.978  0.00  0.00    +0.000 A 
ATOM     16  C   UNL     1     103.621 125.103 147.386  0.00  0.00    +0.000 A 
ATOM     17  C   UNL     1     103.917 123.980 146.554  0.00  0.00    +0.000 A 
ATOM     18  C   UNL     1     102.821 124.904 147.371  0.00  0.00    +0.000 A 
ATOM     19  C   UNL     1     103.116 123.780 146.538  0.00  0.00    +0.000 A 
ATOM     20  C   UNL     1     102.568 124.243 146.947  0.00  0.00    +0.000 A 
BRANCH  18  21
ATOM     21  O   UNL     1     102.272 125.366 147.779  0.00  0.00    +0.000 OA
ATOM     22  C   UNL     1     102.530 125.956 148.293  0.00  0.00    +0.000 C 
ENDBRANCH  18  21
BRANCH  20  23
ATOM     23  O   UNL     1     101.767 124.044 146.931  0.00  0.00    +0.000 OA
ATOM     24  C   UNL     1     101.523 123.296 147.180  0.00  0.00    +0.000 C 
ENDBRANCH  20  23
ENDBRANCH   6  15
BRANCH   8  25
ATOM     25  O   UNL     1     104.823 125.525 145.748  0.00  0.00    +0.000 OA
ATOM     26  C   UNL     1     105.108 126.080 145.208  0.00  0.00    +0.000 C 
ENDBRANCH   8  25
BRANCH  12  27
ATOM     27  O   UNL     1     108.032 124.496 148.954  0.00  0.00    +0.000 OA
ATOM     28  C   UNL     1     107.689 124.118 149.603  0.00  0.00    +0.000 C 
ENDBRANCH  12  27
TORSDOF 5
ENDMDL
MODEL 2
REMARK VINA RESULT:      -7.7      6.437      8.323
REMARK  Name = 4277185
REMARK  5 active torsions:
REMARK  status: ('A' for Active; 'I' for Inactive)
REMARK    1  A    between atoms: O_2  and  C_14
REMARK    2  A    between atoms: O_3  and  C_19
REMARK    3  A    between atoms: O_5  and  C_22
REMARK    4  A    between atoms: O_7  and  C_24
REMARK    5  A    between atoms: C_11  and  C_13
REMARK                            x       y       z     vdW  Elec       q    Type
REMARK                         _______ _______ _______ _____ _____    ______ ____
ROOT
ATOM      1  O   UNL     1     103.547 130.158 142.273  0.00  0.00    +0.000 OA
ATOM      2  O   UNL     1     104.271 127.682 140.972  0.00  0.00    +0.000 OA
ATOM      3  O   UNL     1     103.367 128.616 140.346  0.00  0.00    +0.000 OA
ATOM      4  O   UNL     1     105.254 127.268 142.282  0.00  0.00    +0.000 OA
ATOM      5  C   UNL     1     103.905 128.934 141.631  0.00  0.00    +0.000 A 
ATOM      6  C   UNL     1     103.068 130.355 141.631  0.00  0.00    +0.000 A 
ATOM      7  C   UNL     1     103.965 129.448 142.273  0.00  0.00    +0.000 A 
ATOM      8  C   UNL     1     103.008 129.841 140.988  0.00  0.00    +0.000 A 
ATOM      9  C   UNL     1     103.427 129.130 140.988  0.00  0.00    +0.000 A 
ATOM     10  C   UNL     1     104.337 128.189 141.618  0.00  0.00    +0.000 A 
ATOM     11  C   UNL     1     104.461 129.254 142.949  0.00  0.00    +0.000 A 
ATOM     12  C   UNL     1     104.899 128.515 142.954  0.00  0.00    +0.000 A 
ATOM     13  C   UNL     1     104.837 127.979 142.284  0.00  0.00    +0.000 A 
ENDROOT
BRANCH   6  15
ATOM     14  O   UNL     1     100.710 131.839 142.270  0.00  0.00    +0.000 OA
ATOM     15  C   UNL     1     102.649 131.066 141.631  0.00  0.00    +0.000 A 
ATOM     16  C   UNL     1     102.990 131.746 141.311  0.00  0.00    +0.000 A 
ATOM     17  C   UNL     1     101.889 131.096 141.950  0.00  0.00    +0.000 A 
ATOM     18  C   UNL     1     102.572 132.456 141.311  0.00  0.00    +0.000 A 
ATOM     19  C   UNL     1     101.470 131.808 141.950  0.00  0.00    +0.000 A 
ATOM     20  C   UNL     1     101.812 132.487 141.631  0.00  0.00    +0.000 A 
BRANCH  18  21
ATOM     21  O   UNL     1     102.912 133.137 140.992  0.00  0.00    +0.000 OA
ATOM     22  C   UNL     1     103.678 133.111 140.688  0.00  0.00    +0.000 C 
ENDBRANCH  18  21
BRANCH  20  23
ATOM     23  O   UNL     1     101.392 133.198 141.631  0.00  0.00    +0.000 OA
ATOM     24  C   UNL     1     101.188 133.557 142.345  0.00  0.00    +0.000 C 
ENDBRANCH  20  23
ENDBRANCH   6  15
BRANCH   8  25
ATOM     25  O   UNL     1     102.530 130.038 140.346  0.00  0.00    +0.000 OA
ATOM     26  C   UNL     1     102.251 129.446 139.842  0.00  0.00    +0.000 C 
ENDBRANCH   8  25
BRANCH  12  27
ATOM     27  O   UNL     1     105.377 128.320 143.598  0.00  0.00    +0.000 OA
ATOM     28  C   UNL     1     105.187 128.597 144.351  0.00  0.00    +0.000 C 
ENDBRANCH  12  27
TORSDOF 5
ENDMDL
MODEL 3
REMARK VINA RESULT:      -7.6     11.844     13.198
REMARK  Name = 4277185
REMARK  5 active torsions:
REMARK  status: ('A' for Active; 'I' for Inactive)
REMARK    1  A    between atoms: O_2  and  C_14
REMARK    2  A    between atoms: O_3  and  C_19
REMARK    3  A    between atoms: O_5  and  C_22
REMARK    4  A    between atoms: O_7  and  C_24
REMARK    5  A    between atoms: C_11  and  C_13
REMARK                            x       y       z     vdW  Elec       q    Type
REMARK                         _______ _______ _______ _____ _____    ______ ____
ROOT
ATOM      1  O   UNL     1     112.231 126.658 136.485  0.00  0.00    +0.000 OA
ATOM      2  O   UNL     1     111.711 123.851 136.045  0.00  0.00    +0.000 OA
ATOM      3  O   UNL     1     110.801 124.861 135.563  0.00  0.00    +0.000 OA
ATOM      4  O   UNL     1     113.136 123.447 136.858  0.00  0.00    +0.000 OA
ATOM      5  C   UNL     1     111.975 125.270 136.268  0.00  0.00    +0.000 A 
ATOM      6  C   UNL     1     111.533 126.850 136.087  0.00  0.00    +0.000 A 
ATOM      7  C   UNL     1     112.451 125.869 136.576  0.00  0.00    +0.000 A 
ATOM      8  C   UNL     1     111.057 126.250 135.780  0.00  0.00    +0.000 A 
ATOM      9  C   UNL     1     111.278 125.460 135.870  0.00  0.00    +0.000 A 
ATOM     10  C   UNL     1     112.194 124.443 136.356  0.00  0.00    +0.000 A 
ATOM     11  C   UNL     1     113.180 125.683 136.992  0.00  0.00    +0.000 A 
ATOM     12  C   UNL     1     113.415 124.863 137.089  0.00  0.00    +0.000 A 
ATOM     13  C   UNL     1     112.918 124.238 136.769  0.00  0.00    +0.000 A 
ENDROOT
BRANCH   6  15
ATOM     14  O   UNL     1     111.638 129.295 134.612  0.00  0.00    +0.000 OA
ATOM     15  C   UNL     1     111.313 127.639 135.997  0.00  0.00    +0.000 A 
ATOM     16  C   UNL     1     110.819 127.996 136.553  0.00  0.00    +0.000 A 
ATOM     17  C   UNL     1     111.586 128.072 135.350  0.00  0.00    +0.000 A 
ATOM     18  C   UNL     1     110.598 128.785 136.462  0.00  0.00    +0.000 A 
ATOM     19  C   UNL     1     111.365 128.862 135.259  0.00  0.00    +0.000 A 
ATOM     20  C   UNL     1     110.871 129.218 135.815  0.00  0.00    +0.000 A 
BRANCH  18  21
ATOM     21  O   UNL     1     110.104 129.143 137.018  0.00  0.00    +0.000 OA
ATOM     22  C   UNL     1     110.107 128.883 137.801  0.00  0.00    +0.000 C 
ENDBRANCH  18  21
BRANCH  20  23
ATOM     23  O   UNL     1     110.650 130.009 135.725  0.00  0.00    +0.000 OA
ATOM     24  C   UNL     1     110.098 130.219 135.149  0.00  0.00    +0.000 C 
ENDBRANCH  20  23
ENDBRANCH   6  15
BRANCH   8  25
ATOM     25  O   UNL     1     110.360 126.440 135.382  0.00  0.00    +0.000 OA
ATOM     26  C   UNL     1     110.024 125.900 134.857  0.00  0.00    +0.000 C 
ENDBRANCH   8  25
BRANCH  12  27
ATOM     27  O   UNL     1     114.112 124.675 137.488  0.00  0.00    +0.000 OA
ATOM     28  C   UNL     1     114.545 125.268 137.864  0.00  0.00    +0.000 C 
ENDBRANCH  12  27
TORSDOF 5
ENDMDL
MODEL 4
REMARK VINA RESULT:      -7.6      0.967      4.771
REMARK  Name = 4277185
REMARK  5 active torsions:
REMARK  status: ('A' for Active; 'I' for Inactive)
REMARK    1  A    between atoms: O_2  and  C_14
REMARK    2  A    between atoms: O_3  and  C_19
REMARK    3  A    between atoms: O_5  and  C_22
REMARK    4  A    between atoms: O_7  and  C_24
REMARK    5  A    between atoms: C_11  and  C_13
REMARK                            x       y       z     vdW  Elec       q    Type
REMARK                         _______ _______ _______ _____ _____    ______ ____
ROOT
ATOM      1  O   UNL     1     104.116 124.244 146.676  0.00  0.00    +0.000 OA
ATOM      2  O   UNL     1     101.559 125.095 147.718  0.00  0.00    +0.000 OA
ATOM      3  O   UNL     1     102.780 125.756 148.110  0.00  0.00    +0.000 OA
ATOM      4  O   UNL     1     100.780 123.895 146.819  0.00  0.00    +0.000 OA
ATOM      5  C   UNL     1     102.851 124.664 147.191  0.00  0.00    +0.000 A 
ATOM      6  C   UNL     1     104.491 124.832 147.117  0.00  0.00    +0.000 A 
ATOM      7  C   UNL     1     103.296 124.160 146.713  0.00  0.00    +0.000 A 
ATOM      8  C   UNL     1     104.046 125.336 147.595  0.00  0.00    +0.000 A 
ATOM      9  C   UNL     1     103.225 125.252 147.632  0.00  0.00    +0.000 A 
ATOM     10  C   UNL     1     101.996 124.587 147.238  0.00  0.00    +0.000 A 
ATOM     11  C   UNL     1     102.918 123.544 146.248  0.00  0.00    +0.000 A 
ATOM     12  C   UNL     1     102.064 123.452 146.282  0.00  0.00    +0.000 A 
ATOM     13  C   UNL     1     101.600 123.977 146.780  0.00  0.00    +0.000 A 
ENDROOT
BRANCH   6  15
ATOM     14  O   UNL     1     107.083 124.316 148.206  0.00  0.00    +0.000 OA
ATOM     15  C   UNL     1     105.310 124.916 147.081  0.00  0.00    +0.000 A 
ATOM     16  C   UNL     1     105.655 125.342 146.464  0.00  0.00    +0.000 A 
ATOM     17  C   UNL     1     105.786 124.574 147.661  0.00  0.00    +0.000 A 
ATOM     18  C   UNL     1     106.474 125.426 146.427  0.00  0.00    +0.000 A 
ATOM     19  C   UNL     1     106.607 124.658 147.625  0.00  0.00    +0.000 A 
ATOM     20  C   UNL     1     106.950 125.084 147.008  0.00  0.00    +0.000 A 
BRANCH  18  21
ATOM     21  O   UNL     1     106.819 125.852 145.810  0.00  0.00    +0.000 OA
ATOM     22  C   UNL     1     106.364 126.081 145.162  0.00  0.00    +0.000 C 
ENDBRANCH  18  21
BRANCH  20  23
ATOM     23  O   UNL     1     107.771 125.168 146.972  0.00  0.00    +0.000 OA
ATOM     24  C   UNL     1     108.192 125.398 147.643  0.00  0.00    +0.000 C 
ENDBRANCH  20  23
ENDBRANCH   6  15
BRANCH   8  25
ATOM     25  O   UNL     1     104.420 125.924 148.036  0.00  0.00    +0.000 OA
ATOM     26  C   UNL     1     103.988 126.570 148.313  0.00  0.00    +0.000 C 
ENDBRANCH   8  25
BRANCH  12  27
ATOM     27  O   UNL     1     101.692 122.863 145.840  0.00  0.00    +0.000 OA
ATOM     28  C   UNL     1     101.908 122.739 145.053  0.00  0.00    +0.000 C 
ENDBRANCH  12  27
TORSDOF 5
ENDMDL
MODEL 5
REMARK VINA RESULT:      -7.6     13.026     14.148
REMARK  Name = 4277185
REMARK  5 active torsions:
REMARK  status: ('A' for Active; 'I' for Inactive)
REMARK    1  A    between atoms: O_2  and  C_14
REMARK    2  A    between atoms: O_3  and  C_19
REMARK    3  A    between atoms: O_5  and  C_22
REMARK    4  A    between atoms: O_7  and  C_24
REMARK    5  A    between atoms: C_11  and  C_13
REMARK                            x       y       z     vdW  Elec       q    Type
REMARK                         _______ _______ _______ _____ _____    ______ ____
ROOT
ATOM      1  O   UNL     1     113.134 126.969 136.540  0.00  0.00    +0.000 OA
ATOM      2  O   UNL     1     110.835 125.417 135.732  0.00  0.00    +0.000 OA
ATOM      3  O   UNL     1     110.848 126.853 135.599  0.00  0.00    +0.000 OA
ATOM      4  O   UNL     1     111.619 123.993 136.195  0.00  0.00    +0.000 OA
ATOM      5  C   UNL     1     111.998 126.200 136.141  0.00  0.00    +0.000 A 
ATOM      6  C   UNL     1     112.746 127.661 136.312  0.00  0.00    +0.000 A 
ATOM      7  C   UNL     1     112.760 126.239 136.454  0.00  0.00    +0.000 A 
ATOM      8  C   UNL     1     111.984 127.622 135.998  0.00  0.00    +0.000 A 
ATOM      9  C   UNL     1     111.610 126.891 135.913  0.00  0.00    +0.000 A 
ATOM     10  C   UNL     1     111.597 125.445 136.046  0.00  0.00    +0.000 A 
ATOM     11  C   UNL     1     113.174 125.525 136.696  0.00  0.00    +0.000 A 
ATOM     12  C   UNL     1     112.790 124.762 136.609  0.00  0.00    +0.000 A 
ATOM     13  C   UNL     1     111.995 124.722 136.282  0.00  0.00    +0.000 A 
ENDROOT
BRANCH   6  15
ATOM     14  O   UNL     1     113.299 129.991 137.872  0.00  0.00    +0.000 OA
ATOM     15  C   UNL     1     113.120 128.391 136.397  0.00  0.00    +0.000 A 
ATOM     16  C   UNL     1     113.592 128.687 135.789  0.00  0.00    +0.000 A 
ATOM     17  C   UNL     1     113.023 128.825 137.092  0.00  0.00    +0.000 A 
ATOM     18  C   UNL     1     113.966 129.417 135.874  0.00  0.00    +0.000 A 
ATOM     19  C   UNL     1     113.397 129.556 137.178  0.00  0.00    +0.000 A 
ATOM     20  C   UNL     1     113.868 129.851 136.569  0.00  0.00    +0.000 A 
BRANCH  18  21
ATOM     21  O   UNL     1     114.438 129.713 135.266  0.00  0.00    +0.000 OA
ATOM     22  C   UNL     1     114.807 129.196 134.740  0.00  0.00    +0.000 C 
ENDBRANCH  18  21
BRANCH  20  23
ATOM     23  O   UNL     1     114.243 130.582 136.655  0.00  0.00    +0.000 OA
ATOM     24  C   UNL     1     113.794 131.273 136.695  0.00  0.00    +0.000 C 
ENDBRANCH  20  23
ENDBRANCH   6  15
BRANCH   8  25
ATOM     25  O   UNL     1     111.596 128.313 135.770  0.00  0.00    +0.000 OA
ATOM     26  C   UNL     1     110.997 128.283 135.203  0.00  0.00    +0.000 C 
ENDBRANCH   8  25
BRANCH  12  27
ATOM     27  O   UNL     1     113.180 124.072 136.838  0.00  0.00    +0.000 OA
ATOM     28  C   UNL     1     113.917 124.118 137.206  0.00  0.00    +0.000 C 
ENDBRANCH  12  27
TORSDOF 5
ENDMDL
MODEL 6
REMARK VINA RESULT:      -7.5     11.792     13.736
REMARK  Name = 4277185
REMARK  5 active torsions:
REMARK  status: ('A' for Active; 'I' for Inactive)
REMARK    1  A    between atoms: O_2  and  C_14
REMARK    2  A    between atoms: O_3  and  C_19
REMARK    3  A    between atoms: O_5  and  C_22
REMARK    4  A    between atoms: O_7  and  C_24
REMARK    5  A    between atoms: C_11  and  C_13
REMARK                            x       y       z     vdW  Elec       q    Type
REMARK                         _______ _______ _______ _____ _____    ______ ____
ROOT
ATOM      1  O   UNL     1     113.360 127.512 136.195  0.00  0.00    +0.000 OA
ATOM      2  O   UNL     1     112.966 129.969 137.661  0.00  0.00    +0.000 OA
ATOM      3  O   UNL     1     112.449 128.717 138.155  0.00  0.00    +0.000 OA
ATOM      4  O   UNL     1     113.810 130.827 136.475  0.00  0.00    +0.000 OA
ATOM      5  C   UNL     1     113.166 128.728 136.919  0.00  0.00    +0.000 A 
ATOM      6  C   UNL     1     112.947 127.098 136.777  0.00  0.00    +0.000 A 
ATOM      7  C   UNL     1     113.469 128.326 136.265  0.00  0.00    +0.000 A 
ATOM      8  C   UNL     1     112.643 127.500 137.431  0.00  0.00    +0.000 A 
ATOM      9  C   UNL     1     112.753 128.315 137.502  0.00  0.00    +0.000 A 
ATOM     10  C   UNL     1     113.273 129.577 137.005  0.00  0.00    +0.000 A 
ATOM     11  C   UNL     1     113.901 128.745 135.652  0.00  0.00    +0.000 A 
ATOM     12  C   UNL     1     114.018 129.594 135.720  0.00  0.00    +0.000 A 
ATOM     13  C   UNL     1     113.702 130.012 136.402  0.00  0.00    +0.000 A 
ENDROOT
BRANCH   6  15
ATOM     14  O   UNL     1     111.348 124.879 135.949  0.00  0.00    +0.000 OA
ATOM     15  C   UNL     1     112.837 126.284 136.706  0.00  0.00    +0.000 A 
ATOM     16  C   UNL     1     113.417 125.764 136.978  0.00  0.00    +0.000 A 
ATOM     17  C   UNL     1     112.147 125.989 136.363  0.00  0.00    +0.000 A 
ATOM     18  C   UNL     1     113.308 124.950 136.908  0.00  0.00    +0.000 A 
ATOM     19  C   UNL     1     112.038 125.174 136.292  0.00  0.00    +0.000 A 
ATOM     20  C   UNL     1     112.618 124.655 136.565  0.00  0.00    +0.000 A 
BRANCH  18  21
ATOM     21  O   UNL     1     113.888 124.430 137.180  0.00  0.00    +0.000 OA
ATOM     22  C   UNL     1     114.670 124.681 137.246  0.00  0.00    +0.000 C 
ENDBRANCH  18  21
BRANCH  20  23
ATOM     23  O   UNL     1     112.508 123.840 136.494  0.00  0.00    +0.000 OA
ATOM     24  C   UNL     1     111.966 123.452 136.981  0.00  0.00    +0.000 C 
ENDBRANCH  20  23
ENDBRANCH   6  15
BRANCH   8  25
ATOM     25  O   UNL     1     112.230 127.087 138.014  0.00  0.00    +0.000 OA
ATOM     26  C   UNL     1     112.110 127.429 138.755  0.00  0.00    +0.000 C 
ENDBRANCH   8  25
BRANCH  12  27
ATOM     27  O   UNL     1     114.432 130.004 135.136  0.00  0.00    +0.000 OA
ATOM     28  C   UNL     1     114.920 129.595 134.612  0.00  0.00    +0.000 C 
ENDBRANCH  12  27
TORSDOF 5
ENDMDL
