MODEL 1
REMARK VINA RESULT:      -9.8      0.000      0.000
REMARK  Name = 42607795
REMARK  3 active torsions:
REMARK  status: ('A' for Active; 'I' for Inactive)
REMARK    1  A    between atoms: O_2  and  C_10
REMARK    2  A    between atoms: O_2  and  C_13
REMARK    3  A    between atoms: C_14  and  C_22
REMARK                            x       y       z     vdW  Elec       q    Type
REMARK                         _______ _______ _______ _____ _____    ______ ____
ROOT
ATOM      1  O   UNL     1     112.434 126.181 136.251  0.00  0.00    +0.000 OA
ATOM      2  O   UNL     1     110.929 124.177 135.891  0.00  0.00    +0.000 OA
ATOM      3  C   UNL     1     110.651 127.117 135.337  0.00  0.00    +0.000 A 
ATOM      4  C   UNL     1     112.708 125.402 136.485  0.00  0.00    +0.000 C 
ATOM      5  C   UNL     1     111.655 126.269 135.899  0.00  0.00    +0.000 A 
ATOM      6  C   UNL     1     111.397 127.021 135.676  0.00  0.00    +0.000 A 
ATOM      7  C   UNL     1     111.166 125.614 135.783  0.00  0.00    +0.000 A 
ATOM      8  C   UNL     1     112.199 124.720 136.364  0.00  0.00    +0.000 C 
ATOM      9  C   UNL     1     110.163 126.462 135.221  0.00  0.00    +0.000 A 
ATOM     10  C   UNL     1     111.424 124.826 136.011  0.00  0.00    +0.000 C 
ATOM     11  C   UNL     1     110.421 125.711 135.444  0.00  0.00    +0.000 A 
ATOM     12  C   UNL     1     111.885 127.676 135.792  0.00  0.00    +0.000 C 
ATOM     13  C   UNL     1     109.417 126.559 134.882  0.00  0.00    +0.000 C 
ENDROOT
BRANCH   4  14
ATOM     14  C   UNL     1     113.455 125.309 136.824  0.00  0.00    +0.000 A 
ATOM     15  C   UNL     1     114.097 125.094 136.353  0.00  0.00    +0.000 A 
ATOM     16  C   UNL     1     113.559 125.431 137.633  0.00  0.00    +0.000 A 
ATOM     17  C   UNL     1     114.844 125.001 136.691  0.00  0.00    +0.000 A 
ATOM     18  C   UNL     1     114.306 125.338 137.971  0.00  0.00    +0.000 A 
ATOM     19  C   UNL     1     114.948 125.123 137.500  0.00  0.00    +0.000 A 
ENDBRANCH   4  14
BRANCH   3  20
ATOM     20  O   UNL     1     110.394 127.868 135.114  0.00  0.00    +0.000 OA
BRANCH  20  27
ATOM     21  O   UNL     1     109.866 128.081 136.426  0.00  0.00    +0.000 OA
ATOM     22  O   UNL     1     109.719 129.288 134.613  0.00  0.00    +0.000 OA
ATOM     23  O   UNL     1     108.854 130.211 135.673  0.00  0.00    +0.000 OA
ATOM     24  O   UNL     1     108.664 129.713 137.234  0.00  0.00    +0.000 OA
ATOM     25  C   UNL     1     109.624 129.039 135.393  0.00  0.00    +0.000 C 
ATOM     26  C   UNL     1     109.191 129.500 135.924  0.00  0.00    +0.000 C 
ATOM     27  C   UNL     1     109.961 128.330 135.645  0.00  0.00    +0.000 C 
ATOM     28  C   UNL     1     109.096 129.251 136.705  0.00  0.00    +0.000 C 
ATOM     29  C   UNL     1     109.433 128.542 136.955  0.00  0.00    +0.000 C 
ENDBRANCH  20  27
ENDBRANCH   3  20
TORSDOF 3
ENDMDL
MODEL 2
REMARK VINA RESULT:      -9.5     12.667     14.360
REMARK  Name = 42607795
REMARK  3 active torsions:
REMARK  status: ('A' for Active; 'I' for Inactive)
REMARK    1  A    between atoms: O_2  and  C_10
REMARK    2  A    between atoms: O_2  and  C_13
REMARK    3  A    between atoms: C_14  and  C_22
REMARK                            x       y       z     vdW  Elec       q    Type
REMARK                         _______ _______ _______ _____ _____    ______ ____
ROOT
ATOM      1  O   UNL     1     103.199 124.536 147.235  0.00  0.00    +0.000 OA
ATOM      2  O   UNL     1     102.358 126.382 148.751  0.00  0.00    +0.000 OA
ATOM      3  C   UNL     1     105.023 125.755 147.515  0.00  0.00    +0.000 A 
ATOM      4  C   UNL     1     102.377 124.535 147.484  0.00  0.00    +0.000 C 
ATOM      5  C   UNL     1     103.723 125.163 147.505  0.00  0.00    +0.000 A 
ATOM      6  C   UNL     1     104.511 125.158 147.262  0.00  0.00    +0.000 A 
ATOM      7  C   UNL     1     103.445 125.763 147.998  0.00  0.00    +0.000 A 
ATOM      8  C   UNL     1     102.088 125.159 147.998  0.00  0.00    +0.000 C 
ATOM      9  C   UNL     1     104.746 126.355 148.008  0.00  0.00    +0.000 A 
ATOM     10  C   UNL     1     102.626 125.777 148.257  0.00  0.00    +0.000 C 
ATOM     11  C   UNL     1     103.957 126.358 148.250  0.00  0.00    +0.000 A 
ATOM     12  C   UNL     1     104.788 124.558 146.769  0.00  0.00    +0.000 C 
ATOM     13  C   UNL     1     105.257 126.951 148.260  0.00  0.00    +0.000 C 
ENDROOT
BRANCH   4  14
ATOM     14  C   UNL     1     101.868 123.936 147.230  0.00  0.00    +0.000 A 
ATOM     15  C   UNL     1     101.586 123.937 146.455  0.00  0.00    +0.000 A 
ATOM     16  C   UNL     1     101.642 123.338 147.751  0.00  0.00    +0.000 A 
ATOM     17  C   UNL     1     101.077 123.340 146.200  0.00  0.00    +0.000 A 
ATOM     18  C   UNL     1     101.133 122.740 147.496  0.00  0.00    +0.000 A 
ATOM     19  C   UNL     1     100.851 122.741 146.721  0.00  0.00    +0.000 A 
ENDBRANCH   4  14
BRANCH   3  20
ATOM     20  O   UNL     1     105.812 125.751 147.273  0.00  0.00    +0.000 OA
BRANCH  20  27
ATOM     21  O   UNL     1     106.172 125.043 148.461  0.00  0.00    +0.000 OA
ATOM     22  O   UNL     1     107.395 125.780 146.810  0.00  0.00    +0.000 OA
ATOM     23  O   UNL     1     108.547 125.087 147.767  0.00  0.00    +0.000 OA
ATOM     24  O   UNL     1     108.115 124.365 149.186  0.00  0.00    +0.000 OA
ATOM     25  C   UNL     1     107.179 125.419 147.520  0.00  0.00    +0.000 C 
ATOM     26  C   UNL     1     107.755 125.072 147.999  0.00  0.00    +0.000 C 
ATOM     27  C   UNL     1     106.388 125.404 147.752  0.00  0.00    +0.000 C 
ATOM     28  C   UNL     1     107.539 124.712 148.708  0.00  0.00    +0.000 C 
ATOM     29  C   UNL     1     106.748 124.697 148.939  0.00  0.00    +0.000 C 
ENDBRANCH  20  27
ENDBRANCH   3  20
TORSDOF 3
ENDMDL
MODEL 3
REMARK VINA RESULT:      -9.5      1.295      2.137
REMARK  Name = 42607795
REMARK  3 active torsions:
REMARK  status: ('A' for Active; 'I' for Inactive)
REMARK    1  A    between atoms: O_2  and  C_10
REMARK    2  A    between atoms: O_2  and  C_13
REMARK    3  A    between atoms: C_14  and  C_22
REMARK                            x       y       z     vdW  Elec       q    Type
REMARK                         _______ _______ _______ _____ _____    ______ ____
ROOT
ATOM      1  O   UNL     1     112.777 126.976 136.337  0.00  0.00    +0.000 OA
ATOM      2  O   UNL     1     114.310 128.866 135.636  0.00  0.00    +0.000 OA
ATOM      3  C   UNL     1     111.342 128.426 135.483  0.00  0.00    +0.000 A 
ATOM      4  C   UNL     1     113.622 126.905 136.473  0.00  0.00    +0.000 C 
ATOM      5  C   UNL     1     112.465 127.687 135.966  0.00  0.00    +0.000 A 
ATOM      6  C   UNL     1     111.653 127.749 135.839  0.00  0.00    +0.000 A 
ATOM      7  C   UNL     1     112.968 128.301 135.739  0.00  0.00    +0.000 A 
ATOM      8  C   UNL     1     114.145 127.544 136.236  0.00  0.00    +0.000 C 
ATOM      9  C   UNL     1     111.844 129.040 135.256  0.00  0.00    +0.000 A 
ATOM     10  C   UNL     1     113.816 128.247 135.867  0.00  0.00    +0.000 C 
ATOM     11  C   UNL     1     112.657 128.977 135.384  0.00  0.00    +0.000 A 
ATOM     12  C   UNL     1     111.151 127.135 136.066  0.00  0.00    +0.000 C 
ATOM     13  C   UNL     1     111.534 129.717 134.901  0.00  0.00    +0.000 C 
ENDROOT
BRANCH   4  14
ATOM     14  C   UNL     1     113.930 126.226 136.828  0.00  0.00    +0.000 A 
ATOM     15  C   UNL     1     114.284 125.643 136.365  0.00  0.00    +0.000 A 
ATOM     16  C   UNL     1     113.882 126.131 137.646  0.00  0.00    +0.000 A 
ATOM     17  C   UNL     1     114.592 124.965 136.719  0.00  0.00    +0.000 A 
ATOM     18  C   UNL     1     114.189 125.452 138.001  0.00  0.00    +0.000 A 
ATOM     19  C   UNL     1     114.544 124.869 137.537  0.00  0.00    +0.000 A 
ENDBRANCH   4  14
BRANCH   3  20
ATOM     20  O   UNL     1     110.530 128.489 135.356  0.00  0.00    +0.000 OA
BRANCH  20  27
ATOM     21  O   UNL     1     110.376 129.123 136.628  0.00  0.00    +0.000 OA
ATOM     22  O   UNL     1     108.932 128.748 135.034  0.00  0.00    +0.000 OA
ATOM     23  O   UNL     1     107.980 129.511 136.144  0.00  0.00    +0.000 OA
ATOM     24  O   UNL     1     108.625 130.016 137.577  0.00  0.00    +0.000 OA
ATOM     25  C   UNL     1     109.255 129.000 135.750  0.00  0.00    +0.000 C 
ATOM     26  C   UNL     1     108.780 129.382 136.305  0.00  0.00    +0.000 C 
ATOM     27  C   UNL     1     110.053 128.871 135.911  0.00  0.00    +0.000 C 
ATOM     28  C   UNL     1     109.102 129.634 137.022  0.00  0.00    +0.000 C 
ATOM     29  C   UNL     1     109.900 129.504 137.182  0.00  0.00    +0.000 C 
ENDBRANCH  20  27
ENDBRANCH   3  20
TORSDOF 3
ENDMDL
MODEL 4
REMARK VINA RESULT:      -9.4      1.312      2.010
REMARK  Name = 42607795
REMARK  3 active torsions:
REMARK  status: ('A' for Active; 'I' for Inactive)
REMARK    1  A    between atoms: O_2  and  C_10
REMARK    2  A    between atoms: O_2  and  C_13
REMARK    3  A    between atoms: C_14  and  C_22
REMARK                            x       y       z     vdW  Elec       q    Type
REMARK                         _______ _______ _______ _____ _____    ______ ____
ROOT
ATOM      1  O   UNL     1     111.035 126.047 136.759  0.00  0.00    +0.000 OA
ATOM      2  O   UNL     1     109.772 125.594 134.612  0.00  0.00    +0.000 OA
ATOM      3  C   UNL     1     109.549 127.685 136.758  0.00  0.00    +0.000 A 
ATOM      4  C   UNL     1     111.262 125.377 136.271  0.00  0.00    +0.000 C 
ATOM      5  C   UNL     1     110.385 126.552 136.512  0.00  0.00    +0.000 A 
ATOM      6  C   UNL     1     110.172 127.193 136.985  0.00  0.00    +0.000 A 
ATOM      7  C   UNL     1     109.975 126.401 135.812  0.00  0.00    +0.000 A 
ATOM      8  C   UNL     1     110.835 125.221 135.542  0.00  0.00    +0.000 C 
ATOM      9  C   UNL     1     109.140 127.534 136.057  0.00  0.00    +0.000 A 
ATOM     10  C   UNL     1     110.188 125.736 135.311  0.00  0.00    +0.000 C 
ATOM     11  C   UNL     1     109.353 126.892 135.585  0.00  0.00    +0.000 A 
ATOM     12  C   UNL     1     110.582 127.343 137.686  0.00  0.00    +0.000 C 
ATOM     13  C   UNL     1     108.518 128.025 135.830  0.00  0.00    +0.000 C 
ENDROOT
BRANCH   4  14
ATOM     14  C   UNL     1     111.885 124.888 136.502  0.00  0.00    +0.000 A 
ATOM     15  C   UNL     1     112.663 125.105 136.334  0.00  0.00    +0.000 A 
ATOM     16  C   UNL     1     111.730 124.182 136.900  0.00  0.00    +0.000 A 
ATOM     17  C   UNL     1     113.286 124.616 136.564  0.00  0.00    +0.000 A 
ATOM     18  C   UNL     1     112.354 123.693 137.130  0.00  0.00    +0.000 A 
ATOM     19  C   UNL     1     113.132 123.910 136.962  0.00  0.00    +0.000 A 
ENDBRANCH   4  14
BRANCH   3  20
ATOM     20  O   UNL     1     109.337 128.326 137.231  0.00  0.00    +0.000 OA
BRANCH  20  27
ATOM     21  O   UNL     1     110.249 129.159 136.511  0.00  0.00    +0.000 OA
ATOM     22  O   UNL     1     108.867 129.623 138.136  0.00  0.00    +0.000 OA
ATOM     23  O   UNL     1     109.544 131.104 137.869  0.00  0.00    +0.000 OA
ATOM     24  O   UNL     1     110.690 131.288 136.697  0.00  0.00    +0.000 OA
ATOM     25  C   UNL     1     109.440 129.715 137.550  0.00  0.00    +0.000 C 
ATOM     26  C   UNL     1     109.779 130.455 137.416  0.00  0.00    +0.000 C 
ATOM     27  C   UNL     1     109.676 129.067 137.097  0.00  0.00    +0.000 C 
ATOM     28  C   UNL     1     110.352 130.547 136.830  0.00  0.00    +0.000 C 
ATOM     29  C   UNL     1     110.587 129.899 136.378  0.00  0.00    +0.000 C 
ENDBRANCH  20  27
ENDBRANCH   3  20
TORSDOF 3
ENDMDL
MODEL 5
REMARK VINA RESULT:      -9.3      2.962      4.644
REMARK  Name = 42607795
REMARK  3 active torsions:
REMARK  status: ('A' for Active; 'I' for Inactive)
REMARK    1  A    between atoms: O_2  and  C_10
REMARK    2  A    between atoms: O_2  and  C_13
REMARK    3  A    between atoms: C_14  and  C_22
REMARK                            x       y       z     vdW  Elec       q    Type
REMARK                         _______ _______ _______ _____ _____    ______ ____
ROOT
ATOM      1  O   UNL     1     111.475 126.205 137.203  0.00  0.00    +0.000 OA
ATOM      2  O   UNL     1     113.900 126.586 136.582  0.00  0.00    +0.000 OA
ATOM      3  C   UNL     1     112.437 126.310 139.191  0.00  0.00    +0.000 A 
ATOM      4  C   UNL     1     111.694 126.255 136.374  0.00  0.00    +0.000 C 
ATOM      5  C   UNL     1     112.081 126.285 137.808  0.00  0.00    +0.000 A 
ATOM      6  C   UNL     1     111.864 126.235 138.602  0.00  0.00    +0.000 A 
ATOM      7  C   UNL     1     112.870 126.409 137.602  0.00  0.00    +0.000 A 
ATOM      8  C   UNL     1     112.516 126.385 136.160  0.00  0.00    +0.000 C 
ATOM      9  C   UNL     1     113.227 126.435 138.986  0.00  0.00    +0.000 A 
ATOM     10  C   UNL     1     113.108 126.462 136.778  0.00  0.00    +0.000 C 
ATOM     11  C   UNL     1     113.442 126.484 138.191  0.00  0.00    +0.000 A 
ATOM     12  C   UNL     1     111.075 126.111 138.808  0.00  0.00    +0.000 C 
ATOM     13  C   UNL     1     113.799 126.510 139.575  0.00  0.00    +0.000 C 
ENDROOT
BRANCH   4  14
ATOM     14  C   UNL     1     111.119 126.180 135.787  0.00  0.00    +0.000 A 
ATOM     15  C   UNL     1     110.818 126.853 135.416  0.00  0.00    +0.000 A 
ATOM     16  C   UNL     1     110.844 125.433 135.572  0.00  0.00    +0.000 A 
ATOM     17  C   UNL     1     110.243 126.778 134.830  0.00  0.00    +0.000 A 
ATOM     18  C   UNL     1     110.269 125.358 134.985  0.00  0.00    +0.000 A 
ATOM     19  C   UNL     1     109.968 126.031 134.615  0.00  0.00    +0.000 A 
ENDBRANCH   4  14
BRANCH   3  20
ATOM     20  O   UNL     1     112.220 126.261 139.986  0.00  0.00    +0.000 OA
BRANCH  20  27
ATOM     21  O   UNL     1     112.126 127.685 140.069  0.00  0.00    +0.000 OA
ATOM     22  O   UNL     1     111.444 126.125 141.436  0.00  0.00    +0.000 OA
ATOM     23  O   UNL     1     110.962 127.481 142.244  0.00  0.00    +0.000 OA
ATOM     24  O   UNL     1     111.256 128.972 141.602  0.00  0.00    +0.000 OA
ATOM     25  C   UNL     1     111.591 126.871 141.115  0.00  0.00    +0.000 C 
ATOM     26  C   UNL     1     111.351 127.549 141.518  0.00  0.00    +0.000 C 
ATOM     27  C   UNL     1     111.979 126.940 140.390  0.00  0.00    +0.000 C 
ATOM     28  C   UNL     1     111.498 128.295 141.197  0.00  0.00    +0.000 C 
ATOM     29  C   UNL     1     111.885 128.362 140.473  0.00  0.00    +0.000 C 
ENDBRANCH  20  27
ENDBRANCH   3  20
TORSDOF 3
ENDMDL
MODEL 6
REMARK VINA RESULT:      -9.2      3.798      4.714
REMARK  Name = 42607795
REMARK  3 active torsions:
REMARK  status: ('A' for Active; 'I' for Inactive)
REMARK    1  A    between atoms: O_2  and  C_10
REMARK    2  A    between atoms: O_2  and  C_13
REMARK    3  A    between atoms: C_14  and  C_22
REMARK                            x       y       z     vdW  Elec       q    Type
REMARK                         _______ _______ _______ _____ _____    ______ ____
ROOT
ATOM      1  O   UNL     1     113.339 127.115 137.952  0.00  0.00    +0.000 OA
ATOM      2  O   UNL     1     113.177 128.453 135.808  0.00  0.00    +0.000 OA
ATOM      3  C   UNL     1     112.848 129.131 138.716  0.00  0.00    +0.000 A 
ATOM      4  C   UNL     1     113.472 126.723 137.199  0.00  0.00    +0.000 C 
ATOM      5  C   UNL     1     113.154 127.955 137.965  0.00  0.00    +0.000 A 
ATOM      6  C   UNL     1     113.027 128.326 138.691  0.00  0.00    +0.000 A 
ATOM      7  C   UNL     1     113.101 128.388 137.265  0.00  0.00    +0.000 A 
ATOM      8  C   UNL     1     113.418 127.174 136.470  0.00  0.00    +0.000 C 
ATOM      9  C   UNL     1     112.796 129.565 138.016  0.00  0.00    +0.000 A 
ATOM     10  C   UNL     1     113.231 128.012 136.503  0.00  0.00    +0.000 C 
ATOM     11  C   UNL     1     112.923 129.192 137.291  0.00  0.00    +0.000 A 
ATOM     12  C   UNL     1     113.079 127.892 139.391  0.00  0.00    +0.000 C 
ATOM     13  C   UNL     1     112.617 130.369 138.042  0.00  0.00    +0.000 C 
ENDROOT
BRANCH   4  14
ATOM     14  C   UNL     1     113.651 125.917 137.177  0.00  0.00    +0.000 A 
ATOM     15  C   UNL     1     113.049 125.365 137.061  0.00  0.00    +0.000 A 
ATOM     16  C   UNL     1     114.430 125.664 137.272  0.00  0.00    +0.000 A 
ATOM     17  C   UNL     1     113.227 124.559 137.039  0.00  0.00    +0.000 A 
ATOM     18  C   UNL     1     114.608 124.859 137.250  0.00  0.00    +0.000 A 
ATOM     19  C   UNL     1     114.006 124.306 137.134  0.00  0.00    +0.000 A 
ENDBRANCH   4  14
BRANCH   3  20
ATOM     20  O   UNL     1     112.722 129.502 139.442  0.00  0.00    +0.000 OA
BRANCH  20  27
ATOM     21  O   UNL     1     114.100 129.880 139.488  0.00  0.00    +0.000 OA
ATOM     22  O   UNL     1     112.472 130.236 140.899  0.00  0.00    +0.000 OA
ATOM     23  O   UNL     1     113.725 130.980 141.673  0.00  0.00    +0.000 OA
ATOM     24  O   UNL     1     115.227 130.990 140.991  0.00  0.00    +0.000 OA
ATOM     25  C   UNL     1     113.223 130.241 140.558  0.00  0.00    +0.000 C 
ATOM     26  C   UNL     1     113.850 130.613 140.944  0.00  0.00    +0.000 C 
ATOM     27  C   UNL     1     113.349 129.875 139.829  0.00  0.00    +0.000 C 
ATOM     28  C   UNL     1     114.601 130.618 140.603  0.00  0.00    +0.000 C 
ATOM     29  C   UNL     1     114.725 130.252 139.875  0.00  0.00    +0.000 C 
ENDBRANCH  20  27
ENDBRANCH   3  20
TORSDOF 3
ENDMDL
MODEL 7
REMARK VINA RESULT:      -9.2      2.144      2.772
REMARK  Name = 42607795
REMARK  3 active torsions:
REMARK  status: ('A' for Active; 'I' for Inactive)
REMARK    1  A    between atoms: O_2  and  C_10
REMARK    2  A    between atoms: O_2  and  C_13
REMARK    3  A    between atoms: C_14  and  C_22
REMARK                            x       y       z     vdW  Elec       q    Type
REMARK                         _______ _______ _______ _____ _____    ______ ____
ROOT
ATOM      1  O   UNL     1     111.980 126.396 136.175  0.00  0.00    +0.000 OA
ATOM      2  O   UNL     1     109.926 126.607 134.710  0.00  0.00    +0.000 OA
ATOM      3  C   UNL     1     112.110 128.504 135.520  0.00  0.00    +0.000 A 
ATOM      4  C   UNL     1     111.467 125.715 136.068  0.00  0.00    +0.000 C 
ATOM      5  C   UNL     1     111.788 127.137 135.784  0.00  0.00    +0.000 A 
ATOM      6  C   UNL     1     112.285 127.787 135.890  0.00  0.00    +0.000 A 
ATOM      7  C   UNL     1     111.118 127.203 135.307  0.00  0.00    +0.000 A 
ATOM      8  C   UNL     1     110.770 125.784 135.571  0.00  0.00    +0.000 C 
ATOM      9  C   UNL     1     111.440 128.570 135.043  0.00  0.00    +0.000 A 
ATOM     10  C   UNL     1     110.594 126.532 135.189  0.00  0.00    +0.000 C 
ATOM     11  C   UNL     1     110.944 127.919 134.937  0.00  0.00    +0.000 A 
ATOM     12  C   UNL     1     112.955 127.721 136.367  0.00  0.00    +0.000 C 
ATOM     13  C   UNL     1     111.266 129.286 134.673  0.00  0.00    +0.000 C 
ENDROOT
BRANCH   4  14
ATOM     14  C   UNL     1     111.645 125.000 136.440  0.00  0.00    +0.000 A 
ATOM     15  C   UNL     1     112.080 124.424 136.040  0.00  0.00    +0.000 A 
ATOM     16  C   UNL     1     111.387 124.860 137.211  0.00  0.00    +0.000 A 
ATOM     17  C   UNL     1     112.257 123.709 136.411  0.00  0.00    +0.000 A 
ATOM     18  C   UNL     1     111.565 124.145 137.582  0.00  0.00    +0.000 A 
ATOM     19  C   UNL     1     112.000 123.570 137.182  0.00  0.00    +0.000 A 
ENDBRANCH   4  14
BRANCH   3  20
ATOM     20  O   UNL     1     112.607 129.154 135.626  0.00  0.00    +0.000 OA
BRANCH  20  27
ATOM     21  O   UNL     1     111.808 129.584 136.731  0.00  0.00    +0.000 OA
ATOM     22  O   UNL     1     113.665 130.387 135.912  0.00  0.00    +0.000 OA
ATOM     23  O   UNL     1     113.396 131.433 137.159  0.00  0.00    +0.000 OA
ATOM     24  O   UNL     1     112.068 131.247 138.121  0.00  0.00    +0.000 OA
ATOM     25  C   UNL     1     113.001 130.294 136.393  0.00  0.00    +0.000 C 
ATOM     26  C   UNL     1     112.866 130.816 137.016  0.00  0.00    +0.000 C 
ATOM     27  C   UNL     1     112.472 129.678 136.251  0.00  0.00    +0.000 C 
ATOM     28  C   UNL     1     112.202 130.723 137.497  0.00  0.00    +0.000 C 
ATOM     29  C   UNL     1     111.673 130.107 137.354  0.00  0.00    +0.000 C 
ENDBRANCH  20  27
ENDBRANCH   3  20
TORSDOF 3
ENDMDL
MODEL 8
REMARK VINA RESULT:      -9.1      8.657     11.062
REMARK  Name = 42607795
REMARK  3 active torsions:
REMARK  status: ('A' for Active; 'I' for Inactive)
REMARK    1  A    between atoms: O_2  and  C_10
REMARK    2  A    between atoms: O_2  and  C_13
REMARK    3  A    between atoms: C_14  and  C_22
REMARK                            x       y       z     vdW  Elec       q    Type
REMARK                         _______ _______ _______ _____ _____    ______ ____
ROOT
ATOM      1  O   UNL     1     102.909 130.486 142.186  0.00  0.00    +0.000 OA
ATOM      2  O   UNL     1     102.769 129.343 139.932  0.00  0.00    +0.000 OA
ATOM      3  C   UNL     1     104.310 128.796 142.451  0.00  0.00    +0.000 A 
ATOM      4  C   UNL     1     102.393 130.811 141.581  0.00  0.00    +0.000 C 
ATOM      5  C   UNL     1     103.369 129.780 142.017  0.00  0.00    +0.000 A 
ATOM      6  C   UNL     1     103.863 129.474 142.602  0.00  0.00    +0.000 A 
ATOM      7  C   UNL     1     103.321 129.410 141.282  0.00  0.00    +0.000 A 
ATOM      8  C   UNL     1     102.343 130.425 140.815  0.00  0.00    +0.000 C 
ATOM      9  C   UNL     1     104.262 128.426 141.716  0.00  0.00    +0.000 A 
ATOM     10  C   UNL     1     102.810 129.720 140.664  0.00  0.00    +0.000 C 
ATOM     11  C   UNL     1     103.767 128.733 141.131  0.00  0.00    +0.000 A 
ATOM     12  C   UNL     1     103.911 129.844 143.338  0.00  0.00    +0.000 C 
ATOM     13  C   UNL     1     104.708 127.749 141.565  0.00  0.00    +0.000 C 
ENDROOT
BRANCH   4  14
ATOM     14  C   UNL     1     101.948 131.489 141.736  0.00  0.00    +0.000 A 
ATOM     15  C   UNL     1     102.265 132.234 141.581  0.00  0.00    +0.000 A 
ATOM     16  C   UNL     1     101.186 131.421 142.045  0.00  0.00    +0.000 A 
ATOM     17  C   UNL     1     101.821 132.912 141.735  0.00  0.00    +0.000 A 
ATOM     18  C   UNL     1     100.742 132.099 142.199  0.00  0.00    +0.000 A 
ATOM     19  C   UNL     1     101.059 132.844 142.044  0.00  0.00    +0.000 A 
ENDBRANCH   4  14
BRANCH   3  20
ATOM     20  O   UNL     1     104.804 128.489 143.036  0.00  0.00    +0.000 OA
BRANCH  20  27
ATOM     21  O   UNL     1     105.883 129.292 142.550  0.00  0.00    +0.000 OA
ATOM     22  O   UNL     1     105.829 127.760 144.104  0.00  0.00    +0.000 OA
ATOM     23  O   UNL     1     107.419 128.198 144.152  0.00  0.00    +0.000 OA
ATOM     24  O   UNL     1     107.985 129.365 143.132  0.00  0.00    +0.000 OA
ATOM     25  C   UNL     1     106.112 128.344 143.594  0.00  0.00    +0.000 C 
ATOM     26  C   UNL     1     106.906 128.563 143.618  0.00  0.00    +0.000 C 
ATOM     27  C   UNL     1     105.600 128.709 143.060  0.00  0.00    +0.000 C 
ATOM     28  C   UNL     1     107.189 129.146 143.108  0.00  0.00    +0.000 C 
ATOM     29  C   UNL     1     106.677 129.511 142.574  0.00  0.00    +0.000 C 
ENDBRANCH  20  27
ENDBRANCH   3  20
TORSDOF 3
ENDMDL
MODEL 9
REMARK VINA RESULT:      -9.1     12.504     14.131
REMARK  Name = 42607795
REMARK  3 active torsions:
REMARK  status: ('A' for Active; 'I' for Inactive)
REMARK    1  A    between atoms: O_2  and  C_10
REMARK    2  A    between atoms: O_2  and  C_13
REMARK    3  A    between atoms: C_14  and  C_22
REMARK                            x       y       z     vdW  Elec       q    Type
REMARK                         _______ _______ _______ _____ _____    ______ ____
ROOT
ATOM      1  O   UNL     1     103.057 124.416 146.882  0.00  0.00    +0.000 OA
ATOM      2  O   UNL     1     102.511 123.770 149.269  0.00  0.00    +0.000 OA
ATOM      3  C   UNL     1     104.519 125.623 148.020  0.00  0.00    +0.000 A 
ATOM      4  C   UNL     1     102.427 123.852 147.032  0.00  0.00    +0.000 C 
ATOM      5  C   UNL     1     103.491 124.752 147.543  0.00  0.00    +0.000 A 
ATOM      6  C   UNL     1     104.095 125.294 147.392  0.00  0.00    +0.000 A 
ATOM      7  C   UNL     1     103.311 124.540 148.320  0.00  0.00    +0.000 A 
ATOM      8  C   UNL     1     102.239 123.630 147.840  0.00  0.00    +0.000 C 
ATOM      9  C   UNL     1     104.339 125.410 148.796  0.00  0.00    +0.000 A 
ATOM     10  C   UNL     1     102.684 123.976 148.489  0.00  0.00    +0.000 C 
ATOM     11  C   UNL     1     103.735 124.869 148.946  0.00  0.00    +0.000 A 
ATOM     12  C   UNL     1     104.275 125.506 146.616  0.00  0.00    +0.000 C 
ATOM     13  C   UNL     1     104.763 125.739 149.422  0.00  0.00    +0.000 C 
ENDROOT
BRANCH   4  14
ATOM     14  C   UNL     1     102.005 123.524 146.402  0.00  0.00    +0.000 A 
ATOM     15  C   UNL     1     101.192 123.655 146.339  0.00  0.00    +0.000 A 
ATOM     16  C   UNL     1     102.394 123.067 145.837  0.00  0.00    +0.000 A 
ATOM     17  C   UNL     1     100.770 123.329 145.710  0.00  0.00    +0.000 A 
ATOM     18  C   UNL     1     101.972 122.740 145.209  0.00  0.00    +0.000 A 
ATOM     19  C   UNL     1     101.159 122.871 145.145  0.00  0.00    +0.000 A 
ENDBRANCH   4  14
BRANCH   3  20
ATOM     20  O   UNL     1     105.123 126.164 147.869  0.00  0.00    +0.000 OA
BRANCH  20  27
ATOM     21  O   UNL     1     106.087 125.109 147.875  0.00  0.00    +0.000 OA
ATOM     22  O   UNL     1     106.265 127.204 147.288  0.00  0.00    +0.000 OA
ATOM     23  O   UNL     1     107.800 126.669 147.004  0.00  0.00    +0.000 OA
ATOM     24  O   UNL     1     108.192 125.094 147.301  0.00  0.00    +0.000 OA
ATOM     25  C   UNL     1     106.462 126.416 147.436  0.00  0.00    +0.000 C 
ATOM     26  C   UNL     1     107.228 126.148 147.295  0.00  0.00    +0.000 C 
ATOM     27  C   UNL     1     105.891 125.896 147.727  0.00  0.00    +0.000 C 
ATOM     28  C   UNL     1     107.425 125.361 147.443  0.00  0.00    +0.000 C 
ATOM     29  C   UNL     1     106.854 124.842 147.733  0.00  0.00    +0.000 C 
ENDBRANCH  20  27
ENDBRANCH   3  20
TORSDOF 3
ENDMDL
MODEL 10
REMARK VINA RESULT:      -9.1      2.142      4.447
REMARK  Name = 42607795
REMARK  3 active torsions:
REMARK  status: ('A' for Active; 'I' for Inactive)
REMARK    1  A    between atoms: O_2  and  C_10
REMARK    2  A    between atoms: O_2  and  C_13
REMARK    3  A    between atoms: C_14  and  C_22
REMARK                            x       y       z     vdW  Elec       q    Type
REMARK                         _______ _______ _______ _____ _____    ______ ____
ROOT
ATOM      1  O   UNL     1     113.152 128.522 136.064  0.00  0.00    +0.000 OA
ATOM      2  O   UNL     1     111.071 129.299 134.849  0.00  0.00    +0.000 OA
ATOM      3  C   UNL     1     111.622 127.139 136.862  0.00  0.00    +0.000 A 
ATOM      4  C   UNL     1     113.207 129.177 135.511  0.00  0.00    +0.000 C 
ATOM      5  C   UNL     1     112.392 128.141 136.196  0.00  0.00    +0.000 A 
ATOM      6  C   UNL     1     112.346 127.512 136.728  0.00  0.00    +0.000 A 
ATOM      7  C   UNL     1     111.716 128.397 135.798  0.00  0.00    +0.000 A 
ATOM      8  C   UNL     1     112.503 129.444 135.098  0.00  0.00    +0.000 C 
ATOM      9  C   UNL     1     110.946 127.394 136.465  0.00  0.00    +0.000 A 
ATOM     10  C   UNL     1     111.752 129.051 135.242  0.00  0.00    +0.000 C 
ATOM     11  C   UNL     1     110.993 128.024 135.933  0.00  0.00    +0.000 A 
ATOM     12  C   UNL     1     113.022 127.257 137.125  0.00  0.00    +0.000 C 
ATOM     13  C   UNL     1     110.223 127.021 136.599  0.00  0.00    +0.000 C 
ENDROOT
BRANCH   4  14
ATOM     14  C   UNL     1     113.932 129.549 135.379  0.00  0.00    +0.000 A 
ATOM     15  C   UNL     1     114.183 130.153 135.882  0.00  0.00    +0.000 A 
ATOM     16  C   UNL     1     114.406 129.316 134.745  0.00  0.00    +0.000 A 
ATOM     17  C   UNL     1     114.908 130.524 135.751  0.00  0.00    +0.000 A 
ATOM     18  C   UNL     1     115.131 129.688 134.614  0.00  0.00    +0.000 A 
ATOM     19  C   UNL     1     115.382 130.292 135.117  0.00  0.00    +0.000 A 
ENDBRANCH   4  14
BRANCH   3  20
ATOM     20  O   UNL     1     111.576 126.510 137.394  0.00  0.00    +0.000 OA
BRANCH  20  27
ATOM     21  O   UNL     1     111.816 125.590 136.327  0.00  0.00    +0.000 OA
ATOM     22  O   UNL     1     111.418 125.249 138.446  0.00  0.00    +0.000 OA
ATOM     23  O   UNL     1     111.578 123.698 137.905  0.00  0.00    +0.000 OA
ATOM     24  O   UNL     1     111.897 123.409 136.312  0.00  0.00    +0.000 OA
ATOM     25  C   UNL     1     111.577 125.104 137.650  0.00  0.00    +0.000 C 
ATOM     26  C   UNL     1     111.658 124.329 137.378  0.00  0.00    +0.000 C 
ATOM     27  C   UNL     1     111.656 125.734 137.123  0.00  0.00    +0.000 C 
ATOM     28  C   UNL     1     111.817 124.185 136.582  0.00  0.00    +0.000 C 
ATOM     29  C   UNL     1     111.896 124.815 136.057  0.00  0.00    +0.000 C 
ENDBRANCH  20  27
ENDBRANCH   3  20
TORSDOF 3
ENDMDL
