MODEL 1
REMARK VINA RESULT:      -8.0      0.000      0.000
REMARK  Name = 44257202
REMARK  3 active torsions:
REMARK  status: ('A' for Active; 'I' for Inactive)
REMARK    1  A    between atoms: O_2  and  C_12
REMARK    2  A    between atoms: O_3  and  C_17
REMARK    3  A    between atoms: C_6  and  C_11
REMARK                            x       y       z     vdW  Elec       q    Type
REMARK                         _______ _______ _______ _____ _____    ______ ____
ROOT
ATOM      1  O   UNL     1     105.175 124.307 147.373  0.00  0.00    +0.000 OA
ATOM      2  C   UNL     1     105.441 124.693 148.052  0.00  0.00    +0.000 C 
ATOM      3  C   UNL     1     104.902 125.062 148.554  0.00  0.00    +0.000 C 
ATOM      4  C   UNL     1     104.096 125.047 148.378  0.00  0.00    +0.000 C 
ATOM      5  C   UNL     1     103.830 124.661 147.699  0.00  0.00    +0.000 A 
ATOM      6  C   UNL     1     104.369 124.291 147.197  0.00  0.00    +0.000 A 
ATOM      7  C   UNL     1     102.988 124.652 147.526  0.00  0.00    +0.000 A 
ATOM      8  C   UNL     1     104.105 123.886 146.486  0.00  0.00    +0.000 A 
ATOM      9  C   UNL     1     102.704 124.252 146.821  0.00  0.00    +0.000 A 
ATOM     10  C   UNL     1     103.267 123.866 146.297  0.00  0.00    +0.000 A 
ENDROOT
BRANCH   2  13
ATOM     11  O   UNL     1     108.111 125.449 147.368  0.00  0.00    +0.000 OA
ATOM     12  O   UNL     1     108.664 124.753 148.758  0.00  0.00    +0.000 OA
ATOM     13  C   UNL     1     106.247 124.708 148.228  0.00  0.00    +0.000 A 
ATOM     14  C   UNL     1     106.776 125.071 147.710  0.00  0.00    +0.000 A 
ATOM     15  C   UNL     1     106.524 124.360 148.924  0.00  0.00    +0.000 A 
ATOM     16  C   UNL     1     107.582 125.086 147.887  0.00  0.00    +0.000 A 
ATOM     17  C   UNL     1     107.329 124.375 149.099  0.00  0.00    +0.000 A 
ATOM     18  C   UNL     1     107.859 124.738 148.581  0.00  0.00    +0.000 A 
ENDBRANCH   2  13
BRANCH   7  19
ATOM     19  O   UNL     1     102.456 125.024 148.034  0.00  0.00    +0.000 OA
ATOM     20  C   UNL     1     101.651 125.038 147.851  0.00  0.00    +0.000 C 
ENDBRANCH   7  19
BRANCH  10  21
ATOM     21  O   UNL     1     103.003 123.479 145.618  0.00  0.00    +0.000 OA
ATOM     22  C   UNL     1     103.311 122.740 145.418  0.00  0.00    +0.000 C 
ENDBRANCH  10  21
TORSDOF 3
ENDMDL
MODEL 2
REMARK VINA RESULT:      -7.7      6.754      9.320
REMARK  Name = 44257202
REMARK  3 active torsions:
REMARK  status: ('A' for Active; 'I' for Inactive)
REMARK    1  A    between atoms: O_2  and  C_12
REMARK    2  A    between atoms: O_3  and  C_17
REMARK    3  A    between atoms: C_6  and  C_11
REMARK                            x       y       z     vdW  Elec       q    Type
REMARK                         _______ _______ _______ _____ _____    ______ ____
ROOT
ATOM      1  O   UNL     1     104.512 124.665 139.366  0.00  0.00    +0.000 OA
ATOM      2  C   UNL     1     104.455 123.905 139.049  0.00  0.00    +0.000 C 
ATOM      3  C   UNL     1     104.980 123.318 139.291  0.00  0.00    +0.000 C 
ATOM      4  C   UNL     1     105.563 123.489 139.850  0.00  0.00    +0.000 C 
ATOM      5  C   UNL     1     105.619 124.249 140.167  0.00  0.00    +0.000 A 
ATOM      6  C   UNL     1     105.094 124.836 139.925  0.00  0.00    +0.000 A 
ATOM      7  C   UNL     1     106.231 124.415 140.748  0.00  0.00    +0.000 A 
ATOM      8  C   UNL     1     105.142 125.632 140.248  0.00  0.00    +0.000 A 
ATOM      9  C   UNL     1     106.294 125.204 141.082  0.00  0.00    +0.000 A 
ATOM     10  C   UNL     1     105.746 125.817 140.830  0.00  0.00    +0.000 A 
ENDROOT
BRANCH   2  13
ATOM     11  O   UNL     1     101.697 123.638 138.350  0.00  0.00    +0.000 OA
ATOM     12  O   UNL     1     102.127 123.221 136.813  0.00  0.00    +0.000 OA
ATOM     13  C   UNL     1     103.873 123.734 138.491  0.00  0.00    +0.000 A 
ATOM     14  C   UNL     1     103.076 123.772 138.700  0.00  0.00    +0.000 A 
ATOM     15  C   UNL     1     104.088 123.525 137.722  0.00  0.00    +0.000 A 
ATOM     16  C   UNL     1     102.494 123.601 138.141  0.00  0.00    +0.000 A 
ATOM     17  C   UNL     1     103.506 123.354 137.163  0.00  0.00    +0.000 A 
ATOM     18  C   UNL     1     102.709 123.392 137.372  0.00  0.00    +0.000 A 
ENDBRANCH   2  13
BRANCH   7  19
ATOM     19  O   UNL     1     106.751 123.821 140.984  0.00  0.00    +0.000 OA
ATOM     20  C   UNL     1     107.495 124.019 141.281  0.00  0.00    +0.000 C 
ENDBRANCH   7  19
BRANCH  10  21
ATOM     21  O   UNL     1     105.800 126.577 141.145  0.00  0.00    +0.000 OA
ATOM     22  C   UNL     1     105.363 126.778 141.815  0.00  0.00    +0.000 C 
ENDBRANCH  10  21
TORSDOF 3
ENDMDL
MODEL 3
REMARK VINA RESULT:      -7.6     13.226     14.088
REMARK  Name = 44257202
REMARK  3 active torsions:
REMARK  status: ('A' for Active; 'I' for Inactive)
REMARK    1  A    between atoms: O_2  and  C_12
REMARK    2  A    between atoms: O_3  and  C_17
REMARK    3  A    between atoms: C_6  and  C_11
REMARK                            x       y       z     vdW  Elec       q    Type
REMARK                         _______ _______ _______ _____ _____    ______ ____
ROOT
ATOM      1  O   UNL     1     112.282 127.259 136.017  0.00  0.00    +0.000 OA
ATOM      2  C   UNL     1     113.028 127.391 136.346  0.00  0.00    +0.000 C 
ATOM      3  C   UNL     1     113.445 126.766 136.686  0.00  0.00    +0.000 C 
ATOM      4  C   UNL     1     113.116 126.008 136.697  0.00  0.00    +0.000 C 
ATOM      5  C   UNL     1     112.371 125.877 136.369  0.00  0.00    +0.000 A 
ATOM      6  C   UNL     1     111.955 126.502 136.029  0.00  0.00    +0.000 A 
ATOM      7  C   UNL     1     112.041 125.084 136.387  0.00  0.00    +0.000 A 
ATOM      8  C   UNL     1     111.177 126.378 135.683  0.00  0.00    +0.000 A 
ATOM      9  C   UNL     1     111.265 124.940 136.046  0.00  0.00    +0.000 A 
ATOM     10  C   UNL     1     110.830 125.592 135.692  0.00  0.00    +0.000 A 
ENDROOT
BRANCH   2  13
ATOM     11  O   UNL     1     113.357 129.965 137.544  0.00  0.00    +0.000 OA
ATOM     12  O   UNL     1     114.339 130.419 136.297  0.00  0.00    +0.000 OA
ATOM     13  C   UNL     1     113.355 128.148 136.335  0.00  0.00    +0.000 A 
ATOM     14  C   UNL     1     113.192 128.678 136.946  0.00  0.00    +0.000 A 
ATOM     15  C   UNL     1     113.846 128.375 135.711  0.00  0.00    +0.000 A 
ATOM     16  C   UNL     1     113.520 129.435 136.933  0.00  0.00    +0.000 A 
ATOM     17  C   UNL     1     114.173 129.132 135.699  0.00  0.00    +0.000 A 
ATOM     18  C   UNL     1     114.010 129.662 136.310  0.00  0.00    +0.000 A 
ENDBRANCH   2  13
BRANCH   7  19
ATOM     19  O   UNL     1     112.465 124.465 136.728  0.00  0.00    +0.000 OA
ATOM     20  C   UNL     1     112.138 123.708 136.758  0.00  0.00    +0.000 C 
ENDBRANCH   7  19
BRANCH  10  21
ATOM     21  O   UNL     1     110.085 125.463 135.363  0.00  0.00    +0.000 OA
ATOM     22  C   UNL     1     109.888 125.808 134.640  0.00  0.00    +0.000 C 
ENDBRANCH  10  21
TORSDOF 3
ENDMDL
MODEL 4
REMARK VINA RESULT:      -7.6      0.984      2.140
REMARK  Name = 44257202
REMARK  3 active torsions:
REMARK  status: ('A' for Active; 'I' for Inactive)
REMARK    1  A    between atoms: O_2  and  C_12
REMARK    2  A    between atoms: O_3  and  C_17
REMARK    3  A    between atoms: C_6  and  C_11
REMARK                            x       y       z     vdW  Elec       q    Type
REMARK                         _______ _______ _______ _____ _____    ______ ____
ROOT
ATOM      1  O   UNL     1     104.108 124.907 147.390  0.00  0.00    +0.000 OA
ATOM      2  C   UNL     1     104.686 124.566 146.909  0.00  0.00    +0.000 C 
ATOM      3  C   UNL     1     104.471 124.024 146.327  0.00  0.00    +0.000 C 
ATOM      4  C   UNL     1     103.677 123.823 146.223  0.00  0.00    +0.000 C 
ATOM      5  C   UNL     1     103.100 124.164 146.704  0.00  0.00    +0.000 A 
ATOM      6  C   UNL     1     103.315 124.705 147.286  0.00  0.00    +0.000 A 
ATOM      7  C   UNL     1     102.276 123.946 146.586  0.00  0.00    +0.000 A 
ATOM      8  C   UNL     1     102.722 125.068 147.794  0.00  0.00    +0.000 A 
ATOM      9  C   UNL     1     101.670 124.297 147.083  0.00  0.00    +0.000 A 
ATOM     10  C   UNL     1     101.895 124.862 147.691  0.00  0.00    +0.000 A 
ENDROOT
BRANCH   2  13
ATOM     11  O   UNL     1     107.107 125.696 145.895  0.00  0.00    +0.000 OA
ATOM     12  O   UNL     1     107.859 125.371 147.327  0.00  0.00    +0.000 OA
ATOM     13  C   UNL     1     105.479 124.767 147.013  0.00  0.00    +0.000 A 
ATOM     14  C   UNL     1     105.897 125.131 146.401  0.00  0.00    +0.000 A 
ATOM     15  C   UNL     1     105.856 124.605 147.730  0.00  0.00    +0.000 A 
ATOM     16  C   UNL     1     106.690 125.332 146.506  0.00  0.00    +0.000 A 
ATOM     17  C   UNL     1     106.649 124.806 147.834  0.00  0.00    +0.000 A 
ATOM     18  C   UNL     1     107.066 125.170 147.222  0.00  0.00    +0.000 A 
ENDBRANCH   2  13
BRANCH   7  19
ATOM     19  O   UNL     1     102.070 123.403 146.000  0.00  0.00    +0.000 OA
ATOM     20  C   UNL     1     101.275 123.261 145.831  0.00  0.00    +0.000 C 
ENDBRANCH   7  19
BRANCH  10  21
ATOM     21  O   UNL     1     101.319 125.205 148.172  0.00  0.00    +0.000 OA
ATOM     22  C   UNL     1     101.247 124.970 148.960  0.00  0.00    +0.000 C 
ENDBRANCH  10  21
TORSDOF 3
ENDMDL
MODEL 5
REMARK VINA RESULT:      -7.5      9.619     10.586
REMARK  Name = 44257202
REMARK  3 active torsions:
REMARK  status: ('A' for Active; 'I' for Inactive)
REMARK    1  A    between atoms: O_2  and  C_12
REMARK    2  A    between atoms: O_3  and  C_17
REMARK    3  A    between atoms: C_6  and  C_11
REMARK                            x       y       z     vdW  Elec       q    Type
REMARK                         _______ _______ _______ _____ _____    ______ ____
ROOT
ATOM      1  O   UNL     1     102.708 131.978 141.088  0.00  0.00    +0.000 OA
ATOM      2  C   UNL     1     102.344 131.286 141.353  0.00  0.00    +0.000 C 
ATOM      3  C   UNL     1     101.707 131.328 141.874  0.00  0.00    +0.000 C 
ATOM      4  C   UNL     1     101.433 132.063 142.132  0.00  0.00    +0.000 C 
ATOM      5  C   UNL     1     101.797 132.754 141.868  0.00  0.00    +0.000 A 
ATOM      6  C   UNL     1     102.434 132.712 141.347  0.00  0.00    +0.000 A 
ATOM      7  C   UNL     1     101.502 133.514 142.144  0.00  0.00    +0.000 A 
ATOM      8  C   UNL     1     102.822 133.425 141.064  0.00  0.00    +0.000 A 
ATOM      9  C   UNL     1     101.877 134.237 141.873  0.00  0.00    +0.000 A 
ATOM     10  C   UNL     1     102.542 134.193 141.329  0.00  0.00    +0.000 A 
ENDROOT
BRANCH   2  13
ATOM     11  O   UNL     1     102.438 129.239 139.361  0.00  0.00    +0.000 OA
ATOM     12  O   UNL     1     103.441 128.349 140.323  0.00  0.00    +0.000 OA
ATOM     13  C   UNL     1     102.618 130.552 141.095  0.00  0.00    +0.000 A 
ATOM     14  C   UNL     1     102.390 130.262 140.356  0.00  0.00    +0.000 A 
ATOM     15  C   UNL     1     103.120 130.107 141.576  0.00  0.00    +0.000 A 
ATOM     16  C   UNL     1     102.665 129.528 140.099  0.00  0.00    +0.000 A 
ATOM     17  C   UNL     1     103.394 129.373 141.318  0.00  0.00    +0.000 A 
ATOM     18  C   UNL     1     103.166 129.083 140.580  0.00  0.00    +0.000 A 
ENDBRANCH   2  13
BRANCH   7  19
ATOM     19  O   UNL     1     100.865 133.546 142.666  0.00  0.00    +0.000 OA
ATOM     20  C   UNL     1     100.710 134.241 143.085  0.00  0.00    +0.000 C 
ENDBRANCH   7  19
BRANCH  10  21
ATOM     21  O   UNL     1     102.907 134.883 141.063  0.00  0.00    +0.000 OA
ATOM     22  C   UNL     1     102.804 135.130 140.283  0.00  0.00    +0.000 C 
ENDBRANCH  10  21
TORSDOF 3
ENDMDL
MODEL 6
REMARK VINA RESULT:      -7.5      1.659      4.572
REMARK  Name = 44257202
REMARK  3 active torsions:
REMARK  status: ('A' for Active; 'I' for Inactive)
REMARK    1  A    between atoms: O_2  and  C_12
REMARK    2  A    between atoms: O_3  and  C_17
REMARK    3  A    between atoms: C_6  and  C_11
REMARK                            x       y       z     vdW  Elec       q    Type
REMARK                         _______ _______ _______ _____ _____    ______ ____
ROOT
ATOM      1  O   UNL     1     104.310 124.505 145.846  0.00  0.00    +0.000 OA
ATOM      2  C   UNL     1     103.902 124.157 146.474  0.00  0.00    +0.000 C 
ATOM      3  C   UNL     1     104.251 124.113 147.219  0.00  0.00    +0.000 C 
ATOM      4  C   UNL     1     105.008 124.418 147.338  0.00  0.00    +0.000 C 
ATOM      5  C   UNL     1     105.416 124.767 146.711  0.00  0.00    +0.000 A 
ATOM      6  C   UNL     1     105.067 124.810 145.966  0.00  0.00    +0.000 A 
ATOM      7  C   UNL     1     106.205 125.081 146.849  0.00  0.00    +0.000 A 
ATOM      8  C   UNL     1     105.481 125.171 145.304  0.00  0.00    +0.000 A 
ATOM      9  C   UNL     1     106.634 125.445 146.200  0.00  0.00    +0.000 A 
ATOM     10  C   UNL     1     106.270 125.490 145.423  0.00  0.00    +0.000 A 
ENDROOT
BRANCH   2  13
ATOM     11  O   UNL     1     101.066 124.393 146.741  0.00  0.00    +0.000 OA
ATOM     12  O   UNL     1     100.874 122.935 145.993  0.00  0.00    +0.000 OA
ATOM     13  C   UNL     1     103.145 123.852 146.354  0.00  0.00    +0.000 A 
ATOM     14  C   UNL     1     102.484 124.276 146.607  0.00  0.00    +0.000 A 
ATOM     15  C   UNL     1     103.049 123.122 145.979  0.00  0.00    +0.000 A 
ATOM     16  C   UNL     1     101.727 123.970 146.487  0.00  0.00    +0.000 A 
ATOM     17  C   UNL     1     102.292 122.817 145.859  0.00  0.00    +0.000 A 
ATOM     18  C   UNL     1     101.631 123.241 146.113  0.00  0.00    +0.000 A 
ENDBRANCH   2  13
BRANCH   7  19
ATOM     19  O   UNL     1     106.545 125.033 147.598  0.00  0.00    +0.000 OA
ATOM     20  C   UNL     1     107.318 125.297 147.717  0.00  0.00    +0.000 C 
ENDBRANCH   7  19
BRANCH  10  21
ATOM     21  O   UNL     1     106.675 125.838 144.794  0.00  0.00    +0.000 OA
ATOM     22  C   UNL     1     106.323 126.446 144.361  0.00  0.00    +0.000 C 
ENDBRANCH  10  21
TORSDOF 3
ENDMDL
MODEL 7
REMARK VINA RESULT:      -7.5     12.780     14.227
REMARK  Name = 44257202
REMARK  3 active torsions:
REMARK  status: ('A' for Active; 'I' for Inactive)
REMARK    1  A    between atoms: O_2  and  C_12
REMARK    2  A    between atoms: O_3  and  C_17
REMARK    3  A    between atoms: C_6  and  C_11
REMARK                            x       y       z     vdW  Elec       q    Type
REMARK                         _______ _______ _______ _____ _____    ______ ____
ROOT
ATOM      1  O   UNL     1     112.107 126.862 136.068  0.00  0.00    +0.000 OA
ATOM      2  C   UNL     1     112.631 126.386 136.492  0.00  0.00    +0.000 C 
ATOM      3  C   UNL     1     113.378 126.672 136.692  0.00  0.00    +0.000 C 
ATOM      4  C   UNL     1     113.602 127.434 136.467  0.00  0.00    +0.000 C 
ATOM      5  C   UNL     1     113.078 127.909 136.042  0.00  0.00    +0.000 A 
ATOM      6  C   UNL     1     112.331 127.623 135.843  0.00  0.00    +0.000 A 
ATOM      7  C   UNL     1     113.324 128.701 135.814  0.00  0.00    +0.000 A 
ATOM      8  C   UNL     1     111.776 128.109 135.401  0.00  0.00    +0.000 A 
ATOM      9  C   UNL     1     112.783 129.200 135.372  0.00  0.00    +0.000 A 
ATOM     10  C   UNL     1     112.003 128.902 135.164  0.00  0.00    +0.000 A 
ENDROOT
BRANCH   2  13
ATOM     11  O   UNL     1     111.196 124.643 138.244  0.00  0.00    +0.000 OA
ATOM     12  O   UNL     1     111.735 123.339 137.389  0.00  0.00    +0.000 OA
ATOM     13  C   UNL     1     112.407 125.624 136.717  0.00  0.00    +0.000 A 
ATOM     14  C   UNL     1     111.913 125.515 137.369  0.00  0.00    +0.000 A 
ATOM     15  C   UNL     1     112.677 124.972 136.288  0.00  0.00    +0.000 A 
ATOM     16  C   UNL     1     111.690 124.752 137.592  0.00  0.00    +0.000 A 
ATOM     17  C   UNL     1     112.452 124.211 136.513  0.00  0.00    +0.000 A 
ATOM     18  C   UNL     1     111.959 124.101 137.165  0.00  0.00    +0.000 A 
ENDBRANCH   2  13
BRANCH   7  19
ATOM     19  O   UNL     1     114.072 128.978 136.018  0.00  0.00    +0.000 OA
ATOM     20  C   UNL     1     114.338 129.703 135.726  0.00  0.00    +0.000 C 
ENDBRANCH   7  19
BRANCH  10  21
ATOM     21  O   UNL     1     111.477 129.376 134.740  0.00  0.00    +0.000 OA
ATOM     22  C   UNL     1     110.773 129.626 135.089  0.00  0.00    +0.000 C 
ENDBRANCH  10  21
TORSDOF 3
ENDMDL
MODEL 8
REMARK VINA RESULT:      -7.5      2.193      2.568
REMARK  Name = 44257202
REMARK  3 active torsions:
REMARK  status: ('A' for Active; 'I' for Inactive)
REMARK    1  A    between atoms: O_2  and  C_12
REMARK    2  A    between atoms: O_3  and  C_17
REMARK    3  A    between atoms: C_6  and  C_11
REMARK                            x       y       z     vdW  Elec       q    Type
REMARK                         _______ _______ _______ _____ _____    ______ ____
ROOT
ATOM      1  O   UNL     1     103.382 124.393 146.184  0.00  0.00    +0.000 OA
ATOM      2  C   UNL     1     104.039 124.650 146.613  0.00  0.00    +0.000 C 
ATOM      3  C   UNL     1     104.052 124.574 147.433  0.00  0.00    +0.000 C 
ATOM      4  C   UNL     1     103.408 124.240 147.827  0.00  0.00    +0.000 C 
ATOM      5  C   UNL     1     102.752 123.983 147.399  0.00  0.00    +0.000 A 
ATOM      6  C   UNL     1     102.739 124.060 146.578  0.00  0.00    +0.000 A 
ATOM      7  C   UNL     1     102.087 123.637 147.821  0.00  0.00    +0.000 A 
ATOM      8  C   UNL     1     102.060 123.795 146.120  0.00  0.00    +0.000 A 
ATOM      9  C   UNL     1     101.400 123.368 147.380  0.00  0.00    +0.000 A 
ATOM     10  C   UNL     1     101.387 123.447 146.524  0.00  0.00    +0.000 A 
ENDROOT
BRANCH   2  13
ATOM     11  O   UNL     1     106.327 124.366 144.924  0.00  0.00    +0.000 OA
ATOM     12  O   UNL     1     106.613 125.987 145.038  0.00  0.00    +0.000 OA
ATOM     13  C   UNL     1     104.683 124.984 146.219  0.00  0.00    +0.000 A 
ATOM     14  C   UNL     1     105.183 124.508 145.768  0.00  0.00    +0.000 A 
ATOM     15  C   UNL     1     104.826 125.795 146.276  0.00  0.00    +0.000 A 
ATOM     16  C   UNL     1     105.827 124.843 145.375  0.00  0.00    +0.000 A 
ATOM     17  C   UNL     1     105.469 126.129 145.882  0.00  0.00    +0.000 A 
ATOM     18  C   UNL     1     105.970 125.652 145.432  0.00  0.00    +0.000 A 
ENDBRANCH   2  13
BRANCH   7  19
ATOM     19  O   UNL     1     102.109 123.565 148.641  0.00  0.00    +0.000 OA
ATOM     20  C   UNL     1     101.559 123.086 149.028  0.00  0.00    +0.000 C 
ENDBRANCH   7  19
BRANCH  10  21
ATOM     21  O   UNL     1     100.731 123.191 146.094  0.00  0.00    +0.000 OA
ATOM     22  C   UNL     1     100.837 122.739 145.411  0.00  0.00    +0.000 C 
ENDBRANCH  10  21
TORSDOF 3
ENDMDL
MODEL 9
REMARK VINA RESULT:      -7.4      2.616      3.297
REMARK  Name = 44257202
REMARK  3 active torsions:
REMARK  status: ('A' for Active; 'I' for Inactive)
REMARK    1  A    between atoms: O_2  and  C_12
REMARK    2  A    between atoms: O_3  and  C_17
REMARK    3  A    between atoms: C_6  and  C_11
REMARK                            x       y       z     vdW  Elec       q    Type
REMARK                         _______ _______ _______ _____ _____    ______ ____
ROOT
ATOM      1  O   UNL     1     106.571 125.264 146.265  0.00  0.00    +0.000 OA
ATOM      2  C   UNL     1     106.851 125.690 146.915  0.00  0.00    +0.000 C 
ATOM      3  C   UNL     1     106.874 126.513 146.889  0.00  0.00    +0.000 C 
ATOM      4  C   UNL     1     106.616 126.912 146.213  0.00  0.00    +0.000 C 
ATOM      5  C   UNL     1     106.336 126.486 145.565  0.00  0.00    +0.000 A 
ATOM      6  C   UNL     1     106.313 125.663 145.591  0.00  0.00    +0.000 A 
ATOM      7  C   UNL     1     106.070 126.913 144.867  0.00  0.00    +0.000 A 
ATOM      8  C   UNL     1     106.024 125.207 144.921  0.00  0.00    +0.000 A 
ATOM      9  C   UNL     1     105.777 126.476 144.189  0.00  0.00    +0.000 A 
ATOM     10  C   UNL     1     105.754 125.616 144.216  0.00  0.00    +0.000 A 
ENDROOT
BRANCH   2  13
ATOM     11  O   UNL     1     106.269 124.293 149.339  0.00  0.00    +0.000 OA
ATOM     12  O   UNL     1     107.884 124.093 149.612  0.00  0.00    +0.000 OA
ATOM     13  C   UNL     1     107.109 125.291 147.589  0.00  0.00    +0.000 A 
ATOM     14  C   UNL     1     106.559 124.991 148.127  0.00  0.00    +0.000 A 
ATOM     15  C   UNL     1     107.917 125.191 147.726  0.00  0.00    +0.000 A 
ATOM     16  C   UNL     1     106.818 124.592 148.801  0.00  0.00    +0.000 A 
ATOM     17  C   UNL     1     108.174 124.792 148.400  0.00  0.00    +0.000 A 
ATOM     18  C   UNL     1     107.625 124.493 148.938  0.00  0.00    +0.000 A 
ENDBRANCH   2  13
BRANCH   7  19
ATOM     19  O   UNL     1     106.097 127.737 144.851  0.00  0.00    +0.000 OA
ATOM     20  C   UNL     1     105.719 128.149 144.243  0.00  0.00    +0.000 C 
ENDBRANCH   7  19
BRANCH  10  21
ATOM     21  O   UNL     1     105.474 125.188 143.569  0.00  0.00    +0.000 OA
ATOM     22  C   UNL     1     105.999 124.930 142.987  0.00  0.00    +0.000 C 
ENDBRANCH  10  21
TORSDOF 3
ENDMDL
MODEL 10
REMARK VINA RESULT:      -7.4     13.025     13.697
REMARK  Name = 44257202
REMARK  3 active torsions:
REMARK  status: ('A' for Active; 'I' for Inactive)
REMARK    1  A    between atoms: O_2  and  C_12
REMARK    2  A    between atoms: O_3  and  C_17
REMARK    3  A    between atoms: C_6  and  C_11
REMARK                            x       y       z     vdW  Elec       q    Type
REMARK                         _______ _______ _______ _____ _____    ______ ____
ROOT
ATOM      1  O   UNL     1     112.318 126.493 136.080  0.00  0.00    +0.000 OA
ATOM      2  C   UNL     1     112.405 125.733 136.391  0.00  0.00    +0.000 C 
ATOM      3  C   UNL     1     111.806 125.176 136.291  0.00  0.00    +0.000 C 
ATOM      4  C   UNL     1     111.119 125.378 135.880  0.00  0.00    +0.000 C 
ATOM      5  C   UNL     1     111.033 126.137 135.570  0.00  0.00    +0.000 A 
ATOM      6  C   UNL     1     111.631 126.694 135.670  0.00  0.00    +0.000 A 
ATOM      7  C   UNL     1     110.312 126.335 135.144  0.00  0.00    +0.000 A 
ATOM      8  C   UNL     1     111.553 127.489 135.351  0.00  0.00    +0.000 A 
ATOM      9  C   UNL     1     110.216 127.124 134.818  0.00  0.00    +0.000 A 
ATOM     10  C   UNL     1     110.841 127.705 134.923  0.00  0.00    +0.000 A 
ENDROOT
BRANCH   2  13
ATOM     11  O   UNL     1     114.014 125.883 138.748  0.00  0.00    +0.000 OA
ATOM     12  O   UNL     1     115.153 124.927 138.031  0.00  0.00    +0.000 OA
ATOM     13  C   UNL     1     113.091 125.532 136.801  0.00  0.00    +0.000 A 
ATOM     14  C   UNL     1     113.209 125.808 137.570  0.00  0.00    +0.000 A 
ATOM     15  C   UNL     1     113.661 125.054 136.443  0.00  0.00    +0.000 A 
ATOM     16  C   UNL     1     113.897 125.606 137.979  0.00  0.00    +0.000 A 
ATOM     17  C   UNL     1     114.348 124.853 136.853  0.00  0.00    +0.000 A 
ATOM     18  C   UNL     1     114.465 125.129 137.621  0.00  0.00    +0.000 A 
ENDBRANCH   2  13
BRANCH   7  19
ATOM     19  O   UNL     1     109.718 125.771 135.048  0.00  0.00    +0.000 OA
ATOM     20  C   UNL     1     108.947 126.009 134.879  0.00  0.00    +0.000 C 
ENDBRANCH   7  19
BRANCH  10  21
ATOM     21  O   UNL     1     110.756 128.465 134.614  0.00  0.00    +0.000 OA
ATOM     22  C   UNL     1     110.695 129.113 135.121  0.00  0.00    +0.000 C 
ENDBRANCH  10  21
TORSDOF 3
ENDMDL
