MODEL 1
REMARK VINA RESULT:     -10.9      0.000      0.000
REMARK  Name = 44259077
REMARK  12 active torsions:
REMARK  status: ('A' for Active; 'I' for Inactive)
REMARK    1  A    between atoms: O_2  and  C_26
REMARK    2  A    between atoms: O_2  and  C_30
REMARK    3  A    between atoms: O_5  and  C_28
REMARK    4  A    between atoms: O_5  and  C_39
REMARK    5  A    between atoms: O_12  and  C_36
REMARK    6  A    between atoms: O_12  and  C_40
REMARK    7  A    between atoms: O_20  and  C_56
REMARK    8  A    between atoms: C_21  and  C_30
REMARK    9  A    between atoms: C_35  and  C_38
REMARK   10  A    between atoms: C_41  and  C_48
REMARK   11  A    between atoms: C_45  and  C_49
REMARK   12  A    between atoms: C_48  and  C_50
REMARK                            x       y       z     vdW  Elec       q    Type
REMARK                         _______ _______ _______ _____ _____    ______ ____
ROOT
ATOM      1  O   UNL     1     112.260 128.212 137.609  0.00  0.00    +0.000 OA
ATOM      2  O   UNL     1     110.375 128.128 139.210  0.00  0.00    +0.000 OA
ATOM      3  O   UNL     1     109.906 129.419 138.769  0.00  0.00    +0.000 OA
ATOM      4  C   UNL     1     111.540 127.531 138.636  0.00  0.00    +0.000 A 
ATOM      5  C   UNL     1     111.276 130.169 137.164  0.00  0.00    +0.000 A 
ATOM      6  C   UNL     1     111.831 129.514 137.128  0.00  0.00    +0.000 A 
ATOM      7  C   UNL     1     111.096 128.811 138.181  0.00  0.00    +0.000 A 
ATOM      8  C   UNL     1     111.724 128.839 137.648  0.00  0.00    +0.000 A 
ATOM      9  C   UNL     1     111.004 128.156 138.676  0.00  0.00    +0.000 A 
ATOM     10  C   UNL     1     112.168 127.559 138.103  0.00  0.00    +0.000 A 
ATOM     11  C   UNL     1     110.622 130.140 137.720  0.00  0.00    +0.000 A 
ATOM     12  C   UNL     1     110.531 129.455 138.232  0.00  0.00    +0.000 A 
ENDROOT
BRANCH  10  13
ATOM     13  C   UNL     1     112.704 126.934 138.063  0.00  0.00    +0.000 A 
ATOM     14  C   UNL     1     113.440 126.996 138.431  0.00  0.00    +0.000 A 
ATOM     15  C   UNL     1     112.504 126.244 137.656  0.00  0.00    +0.000 A 
ATOM     16  C   UNL     1     113.976 126.371 138.391  0.00  0.00    +0.000 A 
ATOM     17  C   UNL     1     113.040 125.618 137.616  0.00  0.00    +0.000 A 
ATOM     18  C   UNL     1     113.776 125.682 137.984  0.00  0.00    +0.000 A 
BRANCH  18  19
ATOM     19  O   UNL     1     114.312 125.055 137.945  0.00  0.00    +0.000 OA
ATOM     20  C   UNL     1     114.620 124.822 137.216  0.00  0.00    +0.000 C 
ENDBRANCH  18  19
ENDBRANCH  10  13
BRANCH   4  21
ATOM     21  O   UNL     1     111.448 126.877 139.131  0.00  0.00    +0.000 OA
BRANCH  21  30
ATOM     22  O   UNL     1     111.937 127.556 140.289  0.00  0.00    +0.000 OA
ATOM     23  O   UNL     1     111.502 127.264 142.408  0.00  0.00    +0.000 OA
ATOM     24  O   UNL     1     110.549 126.099 141.730  0.00  0.00    +0.000 OA
ATOM     25  O   UNL     1     110.522 125.906 140.092  0.00  0.00    +0.000 OA
ATOM     26  C   UNL     1     111.950 127.652 141.108  0.00  0.00    +0.000 C 
ATOM     27  C   UNL     1     111.488 127.167 141.589  0.00  0.00    +0.000 C 
ATOM     28  C   UNL     1     111.011 126.585 141.249  0.00  0.00    +0.000 C 
ATOM     29  C   UNL     1     110.998 126.488 140.430  0.00  0.00    +0.000 C 
ATOM     30  C   UNL     1     111.461 126.974 139.950  0.00  0.00    +0.000 C 
BRANCH  26  31
ATOM     31  C   UNL     1     112.426 128.234 141.447  0.00  0.00    +0.000 C 
BRANCH  31  32
ATOM     32  O   UNL     1     112.223 129.030 141.372  0.00  0.00    +0.000 OA
BRANCH  32  38
ATOM     33  O   UNL     1     113.491 129.496 140.905  0.00  0.00    +0.000 OA
ATOM     34  O   UNL     1     112.045 130.407 142.263  0.00  0.00    +0.000 OA
ATOM     35  O   UNL     1     113.224 131.562 142.242  0.00  0.00    +0.000 OA
ATOM     36  O   UNL     1     114.581 131.339 141.329  0.00  0.00    +0.000 OA
ATOM     37  C   UNL     1     112.724 130.296 141.806  0.00  0.00    +0.000 C 
ATOM     38  C   UNL     1     112.813 129.607 141.361  0.00  0.00    +0.000 C 
ATOM     39  C   UNL     1     113.313 130.873 141.796  0.00  0.00    +0.000 C 
ATOM     40  C   UNL     1     113.992 130.761 141.339  0.00  0.00    +0.000 C 
ATOM     41  C   UNL     1     114.081 130.073 140.894  0.00  0.00    +0.000 C 
ATOM     42  C   UNL     1     114.759 129.961 140.438  0.00  0.00    +0.000 C 
ENDBRANCH  32  38
ENDBRANCH  31  32
ENDBRANCH  26  31
ENDBRANCH  21  30
ENDBRANCH   4  21
BRANCH   5  43
ATOM     43  O   UNL     1     111.370 130.822 136.668  0.00  0.00    +0.000 OA
BRANCH  43  52
ATOM     44  O   UNL     1     110.179 130.792 135.879  0.00  0.00    +0.000 OA
ATOM     45  O   UNL     1     109.783 133.181 136.389  0.00  0.00    +0.000 OA
ATOM     46  O   UNL     1     108.724 132.356 135.430  0.00  0.00    +0.000 OA
ATOM     47  O   UNL     1     111.106 132.415 137.008  0.00  0.00    +0.000 OA
ATOM     48  C   UNL     1     109.915 132.385 136.219  0.00  0.00    +0.000 C 
ATOM     49  C   UNL     1     109.386 131.972 135.740  0.00  0.00    +0.000 C 
ATOM     50  C   UNL     1     110.577 132.002 136.529  0.00  0.00    +0.000 C 
ATOM     51  C   UNL     1     109.518 131.176 135.570  0.00  0.00    +0.000 C 
ATOM     52  C   UNL     1     110.709 131.205 136.359  0.00  0.00    +0.000 C 
BRANCH  51  54
ATOM     53  O   UNL     1     109.230 130.072 134.709  0.00  0.00    +0.000 OA
ATOM     54  C   UNL     1     108.988 130.763 135.090  0.00  0.00    +0.000 C 
ENDBRANCH  51  54
ENDBRANCH  43  52
ENDBRANCH   5  43
BRANCH   6  55
ATOM     55  C   UNL     1     112.462 129.534 136.596  0.00  0.00    +0.000 C 
BRANCH  55  56
ATOM     56  C   UNL     1     113.159 129.929 136.797  0.00  0.00    +0.000 C 
ATOM     57  C   UNL     1     113.795 129.935 136.272  0.00  0.00    +0.000 C 
ATOM     58  C   UNL     1     114.491 130.330 136.473  0.00  0.00    +0.000 C 
ATOM     59  C   UNL     1     113.736 129.545 135.548  0.00  0.00    +0.000 C 
ENDBRANCH  55  56
ENDBRANCH   6  55
TORSDOF 12
ENDMDL
MODEL 2
REMARK VINA RESULT:     -10.7      1.554      3.770
REMARK  Name = 44259077
REMARK  12 active torsions:
REMARK  status: ('A' for Active; 'I' for Inactive)
REMARK    1  A    between atoms: O_2  and  C_26
REMARK    2  A    between atoms: O_2  and  C_30
REMARK    3  A    between atoms: O_5  and  C_28
REMARK    4  A    between atoms: O_5  and  C_39
REMARK    5  A    between atoms: O_12  and  C_36
REMARK    6  A    between atoms: O_12  and  C_40
REMARK    7  A    between atoms: O_20  and  C_56
REMARK    8  A    between atoms: C_21  and  C_30
REMARK    9  A    between atoms: C_35  and  C_38
REMARK   10  A    between atoms: C_41  and  C_48
REMARK   11  A    between atoms: C_45  and  C_49
REMARK   12  A    between atoms: C_48  and  C_50
REMARK                            x       y       z     vdW  Elec       q    Type
REMARK                         _______ _______ _______ _____ _____    ______ ____
ROOT
ATOM      1  O   UNL     1     112.067 128.979 138.594  0.00  0.00    +0.000 OA
ATOM      2  O   UNL     1     109.823 128.451 139.495  0.00  0.00    +0.000 OA
ATOM      3  O   UNL     1     109.189 129.072 138.357  0.00  0.00    +0.000 OA
ATOM      4  C   UNL     1     111.247 128.405 139.613  0.00  0.00    +0.000 A 
ATOM      5  C   UNL     1     110.780 129.850 136.987  0.00  0.00    +0.000 A 
ATOM      6  C   UNL     1     111.480 129.616 137.428  0.00  0.00    +0.000 A 
ATOM      7  C   UNL     1     110.644 129.026 138.475  0.00  0.00    +0.000 A 
ATOM      8  C   UNL     1     111.391 129.202 138.175  0.00  0.00    +0.000 A 
ATOM      9  C   UNL     1     110.571 128.627 139.195  0.00  0.00    +0.000 A 
ATOM     10  C   UNL     1     111.995 128.581 139.312  0.00  0.00    +0.000 A 
ATOM     11  C   UNL     1     110.001 129.667 137.300  0.00  0.00    +0.000 A 
ATOM     12  C   UNL     1     109.933 129.252 138.050  0.00  0.00    +0.000 A 
ENDROOT
BRANCH  10  13
ATOM     13  C   UNL     1     112.669 128.359 139.730  0.00  0.00    +0.000 A 
ATOM     14  C   UNL     1     112.919 128.804 140.378  0.00  0.00    +0.000 A 
ATOM     15  C   UNL     1     113.095 127.691 139.500  0.00  0.00    +0.000 A 
ATOM     16  C   UNL     1     113.594 128.581 140.797  0.00  0.00    +0.000 A 
ATOM     17  C   UNL     1     113.771 127.468 139.919  0.00  0.00    +0.000 A 
ATOM     18  C   UNL     1     114.020 127.913 140.567  0.00  0.00    +0.000 A 
BRANCH  18  19
ATOM     19  O   UNL     1     114.696 127.691 140.985  0.00  0.00    +0.000 OA
ATOM     20  C   UNL     1     114.959 126.909 140.957  0.00  0.00    +0.000 C 
ENDBRANCH  18  19
ENDBRANCH  10  13
BRANCH   4  21
ATOM     21  O   UNL     1     111.174 128.007 140.331  0.00  0.00    +0.000 OA
BRANCH  21  30
ATOM     22  O   UNL     1     110.767 126.793 139.697  0.00  0.00    +0.000 OA
ATOM     23  O   UNL     1     109.624 125.096 140.457  0.00  0.00    +0.000 OA
ATOM     24  O   UNL     1     109.663 126.068 141.790  0.00  0.00    +0.000 OA
ATOM     25  O   UNL     1     110.438 127.523 141.727  0.00  0.00    +0.000 OA
ATOM     26  C   UNL     1     110.379 126.066 139.728  0.00  0.00    +0.000 C 
ATOM     27  C   UNL     1     110.012 125.823 140.426  0.00  0.00    +0.000 C 
ATOM     28  C   UNL     1     110.031 126.310 141.092  0.00  0.00    +0.000 C 
ATOM     29  C   UNL     1     110.419 127.038 141.061  0.00  0.00    +0.000 C 
ATOM     30  C   UNL     1     110.786 127.279 140.363  0.00  0.00    +0.000 C 
BRANCH  26  31
ATOM     31  C   UNL     1     110.360 125.579 139.062  0.00  0.00    +0.000 C 
BRANCH  31  32
ATOM     32  O   UNL     1     111.061 125.372 138.681  0.00  0.00    +0.000 OA
BRANCH  32  38
ATOM     33  O   UNL     1     110.667 125.755 137.362  0.00  0.00    +0.000 OA
ATOM     34  O   UNL     1     111.859 124.067 138.063  0.00  0.00    +0.000 OA
ATOM     35  O   UNL     1     111.864 123.797 136.435  0.00  0.00    +0.000 OA
ATOM     36  O   UNL     1     111.071 124.833 135.425  0.00  0.00    +0.000 OA
ATOM     37  C   UNL     1     111.462 124.585 137.558  0.00  0.00    +0.000 C 
ATOM     38  C   UNL     1     111.063 125.238 137.867  0.00  0.00    +0.000 C 
ATOM     39  C   UNL     1     111.465 124.450 136.744  0.00  0.00    +0.000 C 
ATOM     40  C   UNL     1     111.068 124.968 136.239  0.00  0.00    +0.000 C 
ATOM     41  C   UNL     1     110.669 125.621 136.548  0.00  0.00    +0.000 C 
ATOM     42  C   UNL     1     110.273 126.138 136.043  0.00  0.00    +0.000 C 
ENDBRANCH  32  38
ENDBRANCH  31  32
ENDBRANCH  26  31
ENDBRANCH  21  30
ENDBRANCH   4  21
BRANCH   5  43
ATOM     43  O   UNL     1     110.855 130.248 136.268  0.00  0.00    +0.000 OA
BRANCH  43  52
ATOM     44  O   UNL     1     110.351 131.555 136.553  0.00  0.00    +0.000 OA
ATOM     45  O   UNL     1     108.825 131.388 134.612  0.00  0.00    +0.000 OA
ATOM     46  O   UNL     1     108.829 132.750 135.543  0.00  0.00    +0.000 OA
ATOM     47  O   UNL     1     109.838 130.137 134.974  0.00  0.00    +0.000 OA
ATOM     48  C   UNL     1     109.334 131.443 135.259  0.00  0.00    +0.000 C 
ATOM     49  C   UNL     1     109.336 132.124 135.725  0.00  0.00    +0.000 C 
ATOM     50  C   UNL     1     109.840 130.818 135.440  0.00  0.00    +0.000 C 
ATOM     51  C   UNL     1     109.845 132.180 136.372  0.00  0.00    +0.000 C 
ATOM     52  C   UNL     1     110.349 130.874 136.088  0.00  0.00    +0.000 C 
BRANCH  51  54
ATOM     53  O   UNL     1     110.561 133.226 137.029  0.00  0.00    +0.000 OA
ATOM     54  C   UNL     1     109.847 132.861 136.837  0.00  0.00    +0.000 C 
ENDBRANCH  51  54
ENDBRANCH  43  52
ENDBRANCH   5  43
BRANCH   6  55
ATOM     55  C   UNL     1     112.232 129.788 137.134  0.00  0.00    +0.000 C 
BRANCH  55  56
ATOM     56  C   UNL     1     112.587 129.284 136.585  0.00  0.00    +0.000 C 
ATOM     57  C   UNL     1     113.348 129.444 136.311  0.00  0.00    +0.000 C 
ATOM     58  C   UNL     1     113.702 128.939 135.762  0.00  0.00    +0.000 C 
ATOM     59  C   UNL     1     113.755 130.107 136.584  0.00  0.00    +0.000 C 
ENDBRANCH  55  56
ENDBRANCH   6  55
TORSDOF 12
ENDMDL
MODEL 3
REMARK VINA RESULT:     -10.7      1.777      4.779
REMARK  Name = 44259077
REMARK  12 active torsions:
REMARK  status: ('A' for Active; 'I' for Inactive)
REMARK    1  A    between atoms: O_2  and  C_26
REMARK    2  A    between atoms: O_2  and  C_30
REMARK    3  A    between atoms: O_5  and  C_28
REMARK    4  A    between atoms: O_5  and  C_39
REMARK    5  A    between atoms: O_12  and  C_36
REMARK    6  A    between atoms: O_12  and  C_40
REMARK    7  A    between atoms: O_20  and  C_56
REMARK    8  A    between atoms: C_21  and  C_30
REMARK    9  A    between atoms: C_35  and  C_38
REMARK   10  A    between atoms: C_41  and  C_48
REMARK   11  A    between atoms: C_45  and  C_49
REMARK   12  A    between atoms: C_48  and  C_50
REMARK                            x       y       z     vdW  Elec       q    Type
REMARK                         _______ _______ _______ _____ _____    ______ ____
ROOT
ATOM      1  O   UNL     1     112.909 128.813 138.422  0.00  0.00    +0.000 OA
ATOM      2  O   UNL     1     110.869 128.438 139.772  0.00  0.00    +0.000 OA
ATOM      3  O   UNL     1     110.313 127.587 138.748  0.00  0.00    +0.000 OA
ATOM      4  C   UNL     1     112.153 129.045 139.611  0.00  0.00    +0.000 A 
ATOM      5  C   UNL     1     111.772 127.462 137.052  0.00  0.00    +0.000 A 
ATOM      6  C   UNL     1     112.397 127.965 137.360  0.00  0.00    +0.000 A 
ATOM      7  C   UNL     1     111.625 128.206 138.582  0.00  0.00    +0.000 A 
ATOM      8  C   UNL     1     112.305 128.331 138.131  0.00  0.00    +0.000 A 
ATOM      9  C   UNL     1     111.549 128.563 139.322  0.00  0.00    +0.000 A 
ATOM     10  C   UNL     1     112.833 129.170 139.161  0.00  0.00    +0.000 A 
ATOM     11  C   UNL     1     111.063 127.332 137.521  0.00  0.00    +0.000 A 
ATOM     12  C   UNL     1     110.990 127.706 138.291  0.00  0.00    +0.000 A 
ENDROOT
BRANCH  10  13
ATOM     13  C   UNL     1     113.436 129.651 139.451  0.00  0.00    +0.000 A 
ATOM     14  C   UNL     1     113.558 130.401 139.128  0.00  0.00    +0.000 A 
ATOM     15  C   UNL     1     113.918 129.384 140.065  0.00  0.00    +0.000 A 
ATOM     16  C   UNL     1     114.161 130.882 139.417  0.00  0.00    +0.000 A 
ATOM     17  C   UNL     1     114.522 129.866 140.355  0.00  0.00    +0.000 A 
ATOM     18  C   UNL     1     114.643 130.615 140.031  0.00  0.00    +0.000 A 
BRANCH  18  19
ATOM     19  O   UNL     1     115.247 131.097 140.322  0.00  0.00    +0.000 OA
ATOM     20  C   UNL     1     115.284 131.271 141.127  0.00  0.00    +0.000 C 
ENDBRANCH  18  19
ENDBRANCH  10  13
BRANCH   4  21
ATOM     21  O   UNL     1     112.076 129.402 140.351  0.00  0.00    +0.000 OA
BRANCH  21  30
ATOM     22  O   UNL     1     111.102 130.336 139.883  0.00  0.00    +0.000 OA
ATOM     23  O   UNL     1     109.546 131.434 140.950  0.00  0.00    +0.000 OA
ATOM     24  O   UNL     1     110.229 130.580 142.186  0.00  0.00    +0.000 OA
ATOM     25  O   UNL     1     111.494 129.564 141.887  0.00  0.00    +0.000 OA
ATOM     26  C   UNL     1     110.469 130.844 140.033  0.00  0.00    +0.000 C 
ATOM     27  C   UNL     1     110.178 130.926 140.800  0.00  0.00    +0.000 C 
ATOM     28  C   UNL     1     110.520 130.499 141.419  0.00  0.00    +0.000 C 
ATOM     29  C   UNL     1     111.153 129.990 141.269  0.00  0.00    +0.000 C 
ATOM     30  C   UNL     1     111.443 129.910 140.501  0.00  0.00    +0.000 C 
BRANCH  26  31
ATOM     31  C   UNL     1     110.127 131.271 139.416  0.00  0.00    +0.000 C 
BRANCH  31  32
ATOM     32  O   UNL     1     110.590 131.779 138.959  0.00  0.00    +0.000 OA
BRANCH  32  38
ATOM     33  O   UNL     1     110.260 131.268 137.666  0.00  0.00    +0.000 OA
ATOM     34  O   UNL     1     110.490 133.319 138.376  0.00  0.00    +0.000 OA
ATOM     35  O   UNL     1     110.110 133.579 136.792  0.00  0.00    +0.000 OA
ATOM     36  O   UNL     1     109.831 132.299 135.790  0.00  0.00    +0.000 OA
ATOM     37  C   UNL     1     110.350 132.678 137.875  0.00  0.00    +0.000 C 
ATOM     38  C   UNL     1     110.400 131.908 138.166  0.00  0.00    +0.000 C 
ATOM     39  C   UNL     1     110.160 132.809 137.083  0.00  0.00    +0.000 C 
ATOM     40  C   UNL     1     110.020 132.168 136.582  0.00  0.00    +0.000 C 
ATOM     41  C   UNL     1     110.070 131.398 136.873  0.00  0.00    +0.000 C 
ATOM     42  C   UNL     1     109.930 130.758 136.372  0.00  0.00    +0.000 C 
ENDBRANCH  32  38
ENDBRANCH  31  32
ENDBRANCH  26  31
ENDBRANCH  21  30
ENDBRANCH   4  21
BRANCH   5  43
ATOM     43  O   UNL     1     111.851 127.106 136.312  0.00  0.00    +0.000 OA
BRANCH  43  52
ATOM     44  O   UNL     1     112.099 125.748 136.680  0.00  0.00    +0.000 OA
ATOM     45  O   UNL     1     110.415 124.994 135.031  0.00  0.00    +0.000 OA
ATOM     46  O   UNL     1     111.224 123.887 135.949  0.00  0.00    +0.000 OA
ATOM     47  O   UNL     1     110.728 126.603 135.213  0.00  0.00    +0.000 OA
ATOM     48  C   UNL     1     110.976 125.245 135.581  0.00  0.00    +0.000 C 
ATOM     49  C   UNL     1     111.381 124.692 136.040  0.00  0.00    +0.000 C 
ATOM     50  C   UNL     1     111.132 126.050 135.671  0.00  0.00    +0.000 C 
ATOM     51  C   UNL     1     111.942 124.943 136.589  0.00  0.00    +0.000 C 
ATOM     52  C   UNL     1     111.694 126.301 136.222  0.00  0.00    +0.000 C 
BRANCH  51  54
ATOM     53  O   UNL     1     113.157 124.476 137.178  0.00  0.00    +0.000 OA
ATOM     54  C   UNL     1     112.347 124.389 137.048  0.00  0.00    +0.000 C 
ENDBRANCH  51  54
ENDBRANCH  43  52
ENDBRANCH   5  43
BRANCH   6  55
ATOM     55  C   UNL     1     113.080 128.095 136.916  0.00  0.00    +0.000 C 
BRANCH  55  56
ATOM     56  C   UNL     1     113.096 128.693 136.348  0.00  0.00    +0.000 C 
ATOM     57  C   UNL     1     113.770 128.804 135.884  0.00  0.00    +0.000 C 
ATOM     58  C   UNL     1     113.785 129.402 135.316  0.00  0.00    +0.000 C 
ATOM     59  C   UNL     1     114.427 128.317 135.989  0.00  0.00    +0.000 C 
ENDBRANCH  55  56
ENDBRANCH   6  55
TORSDOF 12
ENDMDL
MODEL 4
REMARK VINA RESULT:     -10.6      1.649      4.504
REMARK  Name = 44259077
REMARK  12 active torsions:
REMARK  status: ('A' for Active; 'I' for Inactive)
REMARK    1  A    between atoms: O_2  and  C_26
REMARK    2  A    between atoms: O_2  and  C_30
REMARK    3  A    between atoms: O_5  and  C_28
REMARK    4  A    between atoms: O_5  and  C_39
REMARK    5  A    between atoms: O_12  and  C_36
REMARK    6  A    between atoms: O_12  and  C_40
REMARK    7  A    between atoms: O_20  and  C_56
REMARK    8  A    between atoms: C_21  and  C_30
REMARK    9  A    between atoms: C_35  and  C_38
REMARK   10  A    between atoms: C_41  and  C_48
REMARK   11  A    between atoms: C_45  and  C_49
REMARK   12  A    between atoms: C_48  and  C_50
REMARK                            x       y       z     vdW  Elec       q    Type
REMARK                         _______ _______ _______ _____ _____    ______ ____
ROOT
ATOM      1  O   UNL     1     111.198 128.636 138.527  0.00  0.00    +0.000 OA
ATOM      2  O   UNL     1     110.877 127.294 140.582  0.00  0.00    +0.000 OA
ATOM      3  O   UNL     1     111.759 126.267 140.082  0.00  0.00    +0.000 OA
ATOM      4  C   UNL     1     110.599 128.466 139.812  0.00  0.00    +0.000 A 
ATOM      5  C   UNL     1     112.498 126.879 138.058  0.00  0.00    +0.000 A 
ATOM      6  C   UNL     1     112.093 127.633 137.977  0.00  0.00    +0.000 A 
ATOM      7  C   UNL     1     111.476 127.464 139.295  0.00  0.00    +0.000 A 
ATOM      8  C   UNL     1     111.584 127.911 138.610  0.00  0.00    +0.000 A 
ATOM      9  C   UNL     1     110.984 127.741 139.897  0.00  0.00    +0.000 A 
ATOM     10  C   UNL     1     110.706 128.913 139.127  0.00  0.00    +0.000 A 
ATOM     11  C   UNL     1     112.386 126.413 138.772  0.00  0.00    +0.000 A 
ATOM     12  C   UNL     1     111.872 126.708 139.394  0.00  0.00    +0.000 A 
ENDROOT
BRANCH  10  13
ATOM     13  C   UNL     1     110.321 129.638 139.044  0.00  0.00    +0.000 A 
ATOM     14  C   UNL     1     110.739 130.342 139.148  0.00  0.00    +0.000 A 
ATOM     15  C   UNL     1     109.518 129.659 138.856  0.00  0.00    +0.000 A 
ATOM     16  C   UNL     1     110.354 131.066 139.064  0.00  0.00    +0.000 A 
ATOM     17  C   UNL     1     109.133 130.384 138.772  0.00  0.00    +0.000 A 
ATOM     18  C   UNL     1     109.551 131.087 138.877  0.00  0.00    +0.000 A 
BRANCH  18  19
ATOM     19  O   UNL     1     109.165 131.812 138.793  0.00  0.00    +0.000 OA
ATOM     20  C   UNL     1     108.931 132.070 138.045  0.00  0.00    +0.000 C 
ENDBRANCH  18  19
ENDBRANCH  10  13
BRANCH   4  21
ATOM     21  O   UNL     1     110.107 128.743 140.414  0.00  0.00    +0.000 OA
BRANCH  21  30
ATOM     22  O   UNL     1     111.194 129.085 141.274  0.00  0.00    +0.000 OA
ATOM     23  O   UNL     1     111.311 129.208 143.451  0.00  0.00    +0.000 OA
ATOM     24  O   UNL     1     109.737 128.755 143.247  0.00  0.00    +0.000 OA
ATOM     25  O   UNL     1     109.135 128.522 141.729  0.00  0.00    +0.000 OA
ATOM     26  C   UNL     1     111.495 129.202 142.034  0.00  0.00    +0.000 C 
ATOM     27  C   UNL     1     111.010 129.091 142.692  0.00  0.00    +0.000 C 
ATOM     28  C   UNL     1     110.222 128.865 142.590  0.00  0.00    +0.000 C 
ATOM     29  C   UNL     1     109.921 128.749 141.830  0.00  0.00    +0.000 C 
ATOM     30  C   UNL     1     110.408 128.859 141.173  0.00  0.00    +0.000 C 
BRANCH  26  31
ATOM     31  C   UNL     1     112.281 129.428 142.136  0.00  0.00    +0.000 C 
BRANCH  31  32
ATOM     32  O   UNL     1     112.551 130.141 141.820  0.00  0.00    +0.000 OA
BRANCH  32  38
ATOM     33  O   UNL     1     113.639 129.529 141.124  0.00  0.00    +0.000 OA
ATOM     34  O   UNL     1     113.401 131.552 141.909  0.00  0.00    +0.000 OA
ATOM     35  O   UNL     1     114.914 131.647 141.257  0.00  0.00    +0.000 OA
ATOM     36  O   UNL     1     115.577 130.329 140.517  0.00  0.00    +0.000 OA
ATOM     37  C   UNL     1     113.732 130.893 141.538  0.00  0.00    +0.000 C 
ATOM     38  C   UNL     1     113.307 130.187 141.494  0.00  0.00    +0.000 C 
ATOM     39  C   UNL     1     114.489 130.941 141.213  0.00  0.00    +0.000 C 
ATOM     40  C   UNL     1     114.820 130.282 140.843  0.00  0.00    +0.000 C 
ATOM     41  C   UNL     1     114.395 129.576 140.798  0.00  0.00    +0.000 C 
ATOM     42  C   UNL     1     114.727 128.918 140.428  0.00  0.00    +0.000 C 
ENDBRANCH  32  38
ENDBRANCH  31  32
ENDBRANCH  26  31
ENDBRANCH  21  30
ENDBRANCH   4  21
BRANCH   5  43
ATOM     43  O   UNL     1     112.989 126.603 137.456  0.00  0.00    +0.000 OA
BRANCH  43  52
ATOM     44  O   UNL     1     112.254 125.495 136.934  0.00  0.00    +0.000 OA
ATOM     45  O   UNL     1     114.271 124.072 137.119  0.00  0.00    +0.000 OA
ATOM     46  O   UNL     1     112.864 123.437 136.535  0.00  0.00    +0.000 OA
ATOM     47  O   UNL     1     114.334 125.655 137.579  0.00  0.00    +0.000 OA
ATOM     48  C   UNL     1     113.598 124.546 137.057  0.00  0.00    +0.000 C 
ATOM     49  C   UNL     1     112.895 124.229 136.765  0.00  0.00    +0.000 C 
ATOM     50  C   UNL     1     113.630 125.337 137.287  0.00  0.00    +0.000 C 
ATOM     51  C   UNL     1     112.223 124.703 136.703  0.00  0.00    +0.000 C 
ATOM     52  C   UNL     1     112.957 125.812 137.226  0.00  0.00    +0.000 C 
BRANCH  51  54
ATOM     53  O   UNL     1     111.049 124.830 135.900  0.00  0.00    +0.000 OA
ATOM     54  C   UNL     1     111.520 124.386 136.411  0.00  0.00    +0.000 C 
ENDBRANCH  51  54
ENDBRANCH  43  52
ENDBRANCH   5  43
BRANCH   6  55
ATOM     55  C   UNL     1     112.195 128.087 137.296  0.00  0.00    +0.000 C 
BRANCH  55  56
ATOM     56  C   UNL     1     112.848 128.587 137.226  0.00  0.00    +0.000 C 
ATOM     57  C   UNL     1     112.942 129.049 136.549  0.00  0.00    +0.000 C 
ATOM     58  C   UNL     1     113.595 129.549 136.480  0.00  0.00    +0.000 C 
ATOM     59  C   UNL     1     112.384 129.012 135.943  0.00  0.00    +0.000 C 
ENDBRANCH  55  56
ENDBRANCH   6  55
TORSDOF 12
ENDMDL
MODEL 5
REMARK VINA RESULT:     -10.6      1.872      2.743
REMARK  Name = 44259077
REMARK  12 active torsions:
REMARK  status: ('A' for Active; 'I' for Inactive)
REMARK    1  A    between atoms: O_2  and  C_26
REMARK    2  A    between atoms: O_2  and  C_30
REMARK    3  A    between atoms: O_5  and  C_28
REMARK    4  A    between atoms: O_5  and  C_39
REMARK    5  A    between atoms: O_12  and  C_36
REMARK    6  A    between atoms: O_12  and  C_40
REMARK    7  A    between atoms: O_20  and  C_56
REMARK    8  A    between atoms: C_21  and  C_30
REMARK    9  A    between atoms: C_35  and  C_38
REMARK   10  A    between atoms: C_41  and  C_48
REMARK   11  A    between atoms: C_45  and  C_49
REMARK   12  A    between atoms: C_48  and  C_50
REMARK                            x       y       z     vdW  Elec       q    Type
REMARK                         _______ _______ _______ _____ _____    ______ ____
ROOT
ATOM      1  O   UNL     1     111.745 128.283 138.022  0.00  0.00    +0.000 OA
ATOM      2  O   UNL     1     109.688 126.927 138.259  0.00  0.00    +0.000 OA
ATOM      3  O   UNL     1     108.998 127.755 137.299  0.00  0.00    +0.000 OA
ATOM      4  C   UNL     1     111.046 127.188 138.617  0.00  0.00    +0.000 A 
ATOM      5  C   UNL     1     110.400 129.353 136.592  0.00  0.00    +0.000 A 
ATOM      6  C   UNL     1     111.098 129.148 137.051  0.00  0.00    +0.000 A 
ATOM      7  C   UNL     1     110.386 128.023 137.663  0.00  0.00    +0.000 A 
ATOM      8  C   UNL     1     111.072 128.475 137.584  0.00  0.00    +0.000 A 
ATOM      9  C   UNL     1     110.373 127.379 138.180  0.00  0.00    +0.000 A 
ATOM     10  C   UNL     1     111.732 127.640 138.538  0.00  0.00    +0.000 A 
ATOM     11  C   UNL     1     109.686 128.882 136.674  0.00  0.00    +0.000 A 
ATOM     12  C   UNL     1     109.679 128.213 137.214  0.00  0.00    +0.000 A 
ENDROOT
BRANCH  10  13
ATOM     13  C   UNL     1     112.404 127.449 138.975  0.00  0.00    +0.000 A 
ATOM     14  C   UNL     1     112.859 126.793 138.767  0.00  0.00    +0.000 A 
ATOM     15  C   UNL     1     112.622 127.913 139.621  0.00  0.00    +0.000 A 
ATOM     16  C   UNL     1     113.532 126.601 139.204  0.00  0.00    +0.000 A 
ATOM     17  C   UNL     1     113.296 127.722 140.058  0.00  0.00    +0.000 A 
ATOM     18  C   UNL     1     113.750 127.066 139.849  0.00  0.00    +0.000 A 
BRANCH  18  19
ATOM     19  O   UNL     1     114.423 126.874 140.287  0.00  0.00    +0.000 OA
ATOM     20  C   UNL     1     114.590 127.281 140.985  0.00  0.00    +0.000 C 
ENDBRANCH  18  19
ENDBRANCH  10  13
BRANCH   4  21
ATOM     21  O   UNL     1     111.033 126.545 139.132  0.00  0.00    +0.000 OA
BRANCH  21  30
ATOM     22  O   UNL     1     110.286 127.237 140.134  0.00  0.00    +0.000 OA
ATOM     23  O   UNL     1     108.912 126.497 141.660  0.00  0.00    +0.000 OA
ATOM     24  O   UNL     1     109.344 125.087 140.919  0.00  0.00    +0.000 OA
ATOM     25  O   UNL     1     110.405 125.111 139.656  0.00  0.00    +0.000 OA
ATOM     26  C   UNL     1     109.756 127.225 140.766  0.00  0.00    +0.000 C 
ATOM     27  C   UNL     1     109.442 126.509 141.028  0.00  0.00    +0.000 C 
ATOM     28  C   UNL     1     109.659 125.804 140.657  0.00  0.00    +0.000 C 
ATOM     29  C   UNL     1     110.189 125.816 140.025  0.00  0.00    +0.000 C 
ATOM     30  C   UNL     1     110.503 126.533 139.764  0.00  0.00    +0.000 C 
BRANCH  26  31
ATOM     31  C   UNL     1     109.539 127.930 141.137  0.00  0.00    +0.000 C 
BRANCH  31  32
ATOM     32  O   UNL     1     109.291 128.574 140.686  0.00  0.00    +0.000 OA
BRANCH  32  38
ATOM     33  O   UNL     1     109.429 129.484 141.779  0.00  0.00    +0.000 OA
ATOM     34  O   UNL     1     108.197 129.588 139.981  0.00  0.00    +0.000 OA
ATOM     35  O   UNL     1     107.788 131.005 140.722  0.00  0.00    +0.000 OA
ATOM     36  O   UNL     1     108.473 131.407 142.168  0.00  0.00    +0.000 OA
ATOM     37  C   UNL     1     108.540 129.789 140.704  0.00  0.00    +0.000 C 
ATOM     38  C   UNL     1     109.087 129.282 141.057  0.00  0.00    +0.000 C 
ATOM     39  C   UNL     1     108.335 130.498 141.074  0.00  0.00    +0.000 C 
ATOM     40  C   UNL     1     108.678 130.699 141.798  0.00  0.00    +0.000 C 
ATOM     41  C   UNL     1     109.225 130.192 142.151  0.00  0.00    +0.000 C 
ATOM     42  C   UNL     1     109.567 130.393 142.873  0.00  0.00    +0.000 C 
ENDBRANCH  32  38
ENDBRANCH  31  32
ENDBRANCH  26  31
ENDBRANCH  21  30
ENDBRANCH   4  21
BRANCH   5  43
ATOM     43  O   UNL     1     110.415 129.997 136.077  0.00  0.00    +0.000 OA
BRANCH  43  52
ATOM     44  O   UNL     1     109.553 130.929 136.732  0.00  0.00    +0.000 OA
ATOM     45  O   UNL     1     108.322 131.277 134.612  0.00  0.00    +0.000 OA
ATOM     46  O   UNL     1     107.870 132.094 135.973  0.00  0.00    +0.000 OA
ATOM     47  O   UNL     1     109.595 130.229 134.664  0.00  0.00    +0.000 OA
ATOM     48  C   UNL     1     108.733 131.161 135.319  0.00  0.00    +0.000 C 
ATOM     49  C   UNL     1     108.506 131.569 135.999  0.00  0.00    +0.000 C 
ATOM     50  C   UNL     1     109.369 130.637 135.344  0.00  0.00    +0.000 C 
ATOM     51  C   UNL     1     108.917 131.453 136.705  0.00  0.00    +0.000 C 
ATOM     52  C   UNL     1     109.779 130.521 136.051  0.00  0.00    +0.000 C 
BRANCH  51  54
ATOM     53  O   UNL     1     109.255 132.061 137.953  0.00  0.00    +0.000 OA
ATOM     54  C   UNL     1     108.690 131.862 137.386  0.00  0.00    +0.000 C 
ENDBRANCH  51  54
ENDBRANCH  43  52
ENDBRANCH   5  43
BRANCH   6  55
ATOM     55  C   UNL     1     111.788 129.594 136.978  0.00  0.00    +0.000 C 
BRANCH  55  56
ATOM     56  C   UNL     1     112.332 129.419 136.383  0.00  0.00    +0.000 C 
ATOM     57  C   UNL     1     113.034 129.850 136.326  0.00  0.00    +0.000 C 
ATOM     58  C   UNL     1     113.577 129.675 135.731  0.00  0.00    +0.000 C 
ATOM     59  C   UNL     1     113.190 130.456 136.863  0.00  0.00    +0.000 C 
ENDBRANCH  55  56
ENDBRANCH   6  55
TORSDOF 12
ENDMDL
MODEL 6
REMARK VINA RESULT:     -10.6      1.764      5.091
REMARK  Name = 44259077
REMARK  12 active torsions:
REMARK  status: ('A' for Active; 'I' for Inactive)
REMARK    1  A    between atoms: O_2  and  C_26
REMARK    2  A    between atoms: O_2  and  C_30
REMARK    3  A    between atoms: O_5  and  C_28
REMARK    4  A    between atoms: O_5  and  C_39
REMARK    5  A    between atoms: O_12  and  C_36
REMARK    6  A    between atoms: O_12  and  C_40
REMARK    7  A    between atoms: O_20  and  C_56
REMARK    8  A    between atoms: C_21  and  C_30
REMARK    9  A    between atoms: C_35  and  C_38
REMARK   10  A    between atoms: C_41  and  C_48
REMARK   11  A    between atoms: C_45  and  C_49
REMARK   12  A    between atoms: C_48  and  C_50
REMARK                            x       y       z     vdW  Elec       q    Type
REMARK                         _______ _______ _______ _____ _____    ______ ____
ROOT
ATOM      1  O   UNL     1     111.946 128.256 138.787  0.00  0.00    +0.000 OA
ATOM      2  O   UNL     1     109.544 127.799 138.403  0.00  0.00    +0.000 OA
ATOM      3  O   UNL     1     109.263 127.937 139.812  0.00  0.00    +0.000 OA
ATOM      4  C   UNL     1     110.870 127.956 137.896  0.00  0.00    +0.000 A 
ATOM      5  C   UNL     1     111.176 128.401 140.880  0.00  0.00    +0.000 A 
ATOM      6  C   UNL     1     111.719 128.405 140.213  0.00  0.00    +0.000 A 
ATOM      7  C   UNL     1     110.620 128.098 139.295  0.00  0.00    +0.000 A 
ATOM      8  C   UNL     1     111.420 128.251 139.423  0.00  0.00    +0.000 A 
ATOM      9  C   UNL     1     110.344 127.951 138.531  0.00  0.00    +0.000 A 
ATOM     10  C   UNL     1     111.671 128.109 138.023  0.00  0.00    +0.000 A 
ATOM     11  C   UNL     1     110.343 128.243 140.747  0.00  0.00    +0.000 A 
ATOM     12  C   UNL     1     110.062 128.090 139.949  0.00  0.00    +0.000 A 
ENDROOT
BRANCH  10  13
ATOM     13  C   UNL     1     112.196 128.114 137.388  0.00  0.00    +0.000 A 
ATOM     14  C   UNL     1     112.495 128.829 137.105  0.00  0.00    +0.000 A 
ATOM     15  C   UNL     1     112.423 127.404 137.035  0.00  0.00    +0.000 A 
ATOM     16  C   UNL     1     113.020 128.834 136.469  0.00  0.00    +0.000 A 
ATOM     17  C   UNL     1     112.949 127.409 136.398  0.00  0.00    +0.000 A 
ATOM     18  C   UNL     1     113.247 128.124 136.116  0.00  0.00    +0.000 A 
BRANCH  18  19
ATOM     19  O   UNL     1     113.773 128.129 135.479  0.00  0.00    +0.000 OA
ATOM     20  C   UNL     1     114.149 128.830 135.261  0.00  0.00    +0.000 C 
ENDBRANCH  18  19
ENDBRANCH  10  13
BRANCH   4  21
ATOM     21  O   UNL     1     110.595 127.809 137.132  0.00  0.00    +0.000 OA
BRANCH  21  30
ATOM     22  O   UNL     1     110.036 129.104 136.905  0.00  0.00    +0.000 OA
ATOM     23  O   UNL     1     108.237 129.716 135.830  0.00  0.00    +0.000 OA
ATOM     24  O   UNL     1     108.176 128.079 135.634  0.00  0.00    +0.000 OA
ATOM     25  O   UNL     1     109.355 127.125 136.285  0.00  0.00    +0.000 OA
ATOM     26  C   UNL     1     109.447 129.581 136.579  0.00  0.00    +0.000 C 
ATOM     27  C   UNL     1     108.827 129.239 136.156  0.00  0.00    +0.000 C 
ATOM     28  C   UNL     1     108.796 128.420 136.057  0.00  0.00    +0.000 C 
ATOM     29  C   UNL     1     109.386 127.943 136.383  0.00  0.00    +0.000 C 
ATOM     30  C   UNL     1     110.005 128.286 136.807  0.00  0.00    +0.000 C 
BRANCH  26  31
ATOM     31  C   UNL     1     109.477 130.399 136.677  0.00  0.00    +0.000 C 
BRANCH  31  32
ATOM     32  O   UNL     1     109.544 130.723 137.433  0.00  0.00    +0.000 OA
BRANCH  32  38
ATOM     33  O   UNL     1     109.950 131.969 136.864  0.00  0.00    +0.000 OA
ATOM     34  O   UNL     1     109.641 131.380 138.943  0.00  0.00    +0.000 OA
ATOM     35  O   UNL     1     110.097 132.955 139.129  0.00  0.00    +0.000 OA
ATOM     36  O   UNL     1     110.455 133.872 137.805  0.00  0.00    +0.000 OA
ATOM     37  C   UNL     1     109.820 131.839 138.280  0.00  0.00    +0.000 C 
ATOM     38  C   UNL     1     109.772 131.510 137.525  0.00  0.00    +0.000 C 
ATOM     39  C   UNL     1     110.048 132.626 138.374  0.00  0.00    +0.000 C 
ATOM     40  C   UNL     1     110.227 133.085 137.711  0.00  0.00    +0.000 C 
ATOM     41  C   UNL     1     110.178 132.756 136.956  0.00  0.00    +0.000 C 
ATOM     42  C   UNL     1     110.357 133.215 136.295  0.00  0.00    +0.000 C 
ENDBRANCH  32  38
ENDBRANCH  31  32
ENDBRANCH  26  31
ENDBRANCH  21  30
ENDBRANCH   4  21
BRANCH   5  43
ATOM     43  O   UNL     1     111.454 128.549 141.643  0.00  0.00    +0.000 OA
BRANCH  43  52
ATOM     44  O   UNL     1     110.936 129.856 141.896  0.00  0.00    +0.000 OA
ATOM     45  O   UNL     1     110.078 129.091 144.088  0.00  0.00    +0.000 OA
ATOM     46  O   UNL     1     109.846 130.653 143.611  0.00  0.00    +0.000 OA
ATOM     47  O   UNL     1     110.882 128.038 143.104  0.00  0.00    +0.000 OA
ATOM     48  C   UNL     1     110.364 129.346 143.357  0.00  0.00    +0.000 C 
ATOM     49  C   UNL     1     110.248 130.127 143.119  0.00  0.00    +0.000 C 
ATOM     50  C   UNL     1     110.766 128.820 142.866  0.00  0.00    +0.000 C 
ATOM     51  C   UNL     1     110.534 130.382 142.388  0.00  0.00    +0.000 C 
ATOM     52  C   UNL     1     111.052 129.075 142.134  0.00  0.00    +0.000 C 
BRANCH  51  54
ATOM     53  O   UNL     1     111.058 131.615 141.894  0.00  0.00    +0.000 OA
ATOM     54  C   UNL     1     110.417 131.163 142.150  0.00  0.00    +0.000 C 
ENDBRANCH  51  54
ENDBRANCH  43  52
ENDBRANCH   5  43
BRANCH   6  55
ATOM     55  C   UNL     1     112.521 128.557 140.332  0.00  0.00    +0.000 C 
BRANCH  55  56
ATOM     56  C   UNL     1     113.034 127.940 140.526  0.00  0.00    +0.000 C 
ATOM     57  C   UNL     1     113.838 128.091 140.635  0.00  0.00    +0.000 C 
ATOM     58  C   UNL     1     114.350 127.473 140.829  0.00  0.00    +0.000 C 
ATOM     59  C   UNL     1     114.129 128.858 140.552  0.00  0.00    +0.000 C 
ENDBRANCH  55  56
ENDBRANCH   6  55
TORSDOF 12
ENDMDL
MODEL 7
REMARK VINA RESULT:     -10.5      1.636      4.583
REMARK  Name = 44259077
REMARK  12 active torsions:
REMARK  status: ('A' for Active; 'I' for Inactive)
REMARK    1  A    between atoms: O_2  and  C_26
REMARK    2  A    between atoms: O_2  and  C_30
REMARK    3  A    between atoms: O_5  and  C_28
REMARK    4  A    between atoms: O_5  and  C_39
REMARK    5  A    between atoms: O_12  and  C_36
REMARK    6  A    between atoms: O_12  and  C_40
REMARK    7  A    between atoms: O_20  and  C_56
REMARK    8  A    between atoms: C_21  and  C_30
REMARK    9  A    between atoms: C_35  and  C_38
REMARK   10  A    between atoms: C_41  and  C_48
REMARK   11  A    between atoms: C_45  and  C_49
REMARK   12  A    between atoms: C_48  and  C_50
REMARK                            x       y       z     vdW  Elec       q    Type
REMARK                         _______ _______ _______ _____ _____    ______ ____
ROOT
ATOM      1  O   UNL     1     111.522 129.546 137.067  0.00  0.00    +0.000 OA
ATOM      2  O   UNL     1     110.140 128.793 138.977  0.00  0.00    +0.000 OA
ATOM      3  O   UNL     1     110.614 127.439 138.822  0.00  0.00    +0.000 OA
ATOM      4  C   UNL     1     110.589 129.836 138.109  0.00  0.00    +0.000 A 
ATOM      5  C   UNL     1     112.048 127.374 137.102  0.00  0.00    +0.000 A 
ATOM      6  C   UNL     1     112.031 128.201 136.867  0.00  0.00    +0.000 A 
ATOM      7  C   UNL     1     111.074 128.503 137.934  0.00  0.00    +0.000 A 
ATOM      8  C   UNL     1     111.535 128.754 137.297  0.00  0.00    +0.000 A 
ATOM      9  C   UNL     1     110.601 129.044 138.340  0.00  0.00    +0.000 A 
ATOM     10  C   UNL     1     111.050 130.087 137.472  0.00  0.00    +0.000 A 
ATOM     11  C   UNL     1     111.568 127.113 137.765  0.00  0.00    +0.000 A 
ATOM     12  C   UNL     1     111.077 127.681 138.184  0.00  0.00    +0.000 A 
ENDROOT
BRANCH  10  13
ATOM     13  C   UNL     1     111.038 130.878 137.242  0.00  0.00    +0.000 A 
ATOM     14  C   UNL     1     111.671 131.373 137.430  0.00  0.00    +0.000 A 
ATOM     15  C   UNL     1     110.393 131.176 136.822  0.00  0.00    +0.000 A 
ATOM     16  C   UNL     1     111.659 132.165 137.200  0.00  0.00    +0.000 A 
ATOM     17  C   UNL     1     110.381 131.968 136.591  0.00  0.00    +0.000 A 
ATOM     18  C   UNL     1     111.014 132.462 136.780  0.00  0.00    +0.000 A 
BRANCH  18  19
ATOM     19  O   UNL     1     111.001 133.255 136.549  0.00  0.00    +0.000 OA
ATOM     20  C   UNL     1     110.436 133.767 136.864  0.00  0.00    +0.000 C 
ENDBRANCH  18  19
ENDBRANCH  10  13
BRANCH   4  21
ATOM     21  O   UNL     1     110.116 130.376 138.515  0.00  0.00    +0.000 OA
BRANCH  21  30
ATOM     22  O   UNL     1     110.966 130.321 139.662  0.00  0.00    +0.000 OA
ATOM     23  O   UNL     1     110.612 130.913 141.733  0.00  0.00    +0.000 OA
ATOM     24  O   UNL     1     109.159 131.292 141.047  0.00  0.00    +0.000 OA
ATOM     25  O   UNL     1     108.912 131.024 139.438  0.00  0.00    +0.000 OA
ATOM     26  C   UNL     1     111.090 130.455 140.466  0.00  0.00    +0.000 C 
ATOM     27  C   UNL     1     110.488 130.779 140.929  0.00  0.00    +0.000 C 
ATOM     28  C   UNL     1     109.761 130.968 140.585  0.00  0.00    +0.000 C 
ATOM     29  C   UNL     1     109.637 130.834 139.781  0.00  0.00    +0.000 C 
ATOM     30  C   UNL     1     110.240 130.510 139.319  0.00  0.00    +0.000 C 
BRANCH  26  31
ATOM     31  C   UNL     1     111.815 130.266 140.810  0.00  0.00    +0.000 C 
BRANCH  31  32
ATOM     32  O   UNL     1     112.518 130.500 140.447  0.00  0.00    +0.000 OA
BRANCH  32  38
ATOM     33  O   UNL     1     113.125 129.218 140.619  0.00  0.00    +0.000 OA
ATOM     34  O   UNL     1     114.011 131.200 140.389  0.00  0.00    +0.000 OA
ATOM     35  O   UNL     1     115.365 130.268 140.533  0.00  0.00    +0.000 OA
ATOM     36  O   UNL     1     115.226 128.636 140.734  0.00  0.00    +0.000 OA
ATOM     37  C   UNL     1     113.941 130.383 140.490  0.00  0.00    +0.000 C 
ATOM     38  C   UNL     1     113.195 130.034 140.518  0.00  0.00    +0.000 C 
ATOM     39  C   UNL     1     114.618 129.918 140.562  0.00  0.00    +0.000 C 
ATOM     40  C   UNL     1     114.548 129.101 140.662  0.00  0.00    +0.000 C 
ATOM     41  C   UNL     1     113.802 128.752 140.691  0.00  0.00    +0.000 C 
ATOM     42  C   UNL     1     113.732 127.936 140.791  0.00  0.00    +0.000 C 
ENDBRANCH  32  38
ENDBRANCH  31  32
ENDBRANCH  26  31
ENDBRANCH  21  30
ENDBRANCH   4  21
BRANCH   5  43
ATOM     43  O   UNL     1     112.521 126.835 136.695  0.00  0.00    +0.000 OA
BRANCH  43  52
ATOM     44  O   UNL     1     111.529 126.010 136.082  0.00  0.00    +0.000 OA
ATOM     45  O   UNL     1     112.759 123.990 136.814  0.00  0.00    +0.000 OA
ATOM     46  O   UNL     1     111.357 123.837 135.957  0.00  0.00    +0.000 OA
ATOM     47  O   UNL     1     113.341 125.489 137.183  0.00  0.00    +0.000 OA
ATOM     48  C   UNL     1     112.349 124.663 136.570  0.00  0.00    +0.000 C 
ATOM     49  C   UNL     1     111.648 124.587 136.142  0.00  0.00    +0.000 C 
ATOM     50  C   UNL     1     112.640 125.412 136.755  0.00  0.00    +0.000 C 
ATOM     51  C   UNL     1     111.238 125.260 135.897  0.00  0.00    +0.000 C 
ATOM     52  C   UNL     1     112.230 126.086 136.510  0.00  0.00    +0.000 C 
BRANCH  51  54
ATOM     53  O   UNL     1     110.383 125.692 134.838  0.00  0.00    +0.000 OA
ATOM     54  C   UNL     1     110.537 125.183 135.469  0.00  0.00    +0.000 C 
ENDBRANCH  51  54
ENDBRANCH  43  52
ENDBRANCH   5  43
BRANCH   6  55
ATOM     55  C   UNL     1     112.489 128.460 136.231  0.00  0.00    +0.000 C 
BRANCH  55  56
ATOM     56  C   UNL     1     113.276 128.678 136.351  0.00  0.00    +0.000 C 
ATOM     57  C   UNL     1     113.722 128.971 135.722  0.00  0.00    +0.000 C 
ATOM     58  C   UNL     1     114.509 129.188 135.842  0.00  0.00    +0.000 C 
ATOM     59  C   UNL     1     113.383 129.047 134.974  0.00  0.00    +0.000 C 
ENDBRANCH  55  56
ENDBRANCH   6  55
TORSDOF 12
ENDMDL
MODEL 8
REMARK VINA RESULT:     -10.5      1.736      5.782
REMARK  Name = 44259077
REMARK  12 active torsions:
REMARK  status: ('A' for Active; 'I' for Inactive)
REMARK    1  A    between atoms: O_2  and  C_26
REMARK    2  A    between atoms: O_2  and  C_30
REMARK    3  A    between atoms: O_5  and  C_28
REMARK    4  A    between atoms: O_5  and  C_39
REMARK    5  A    between atoms: O_12  and  C_36
REMARK    6  A    between atoms: O_12  and  C_40
REMARK    7  A    between atoms: O_20  and  C_56
REMARK    8  A    between atoms: C_21  and  C_30
REMARK    9  A    between atoms: C_35  and  C_38
REMARK   10  A    between atoms: C_41  and  C_48
REMARK   11  A    between atoms: C_45  and  C_49
REMARK   12  A    between atoms: C_48  and  C_50
REMARK                            x       y       z     vdW  Elec       q    Type
REMARK                         _______ _______ _______ _____ _____    ______ ____
ROOT
ATOM      1  O   UNL     1     112.739 129.251 138.773  0.00  0.00    +0.000 OA
ATOM      2  O   UNL     1     110.387 129.913 138.380  0.00  0.00    +0.000 OA
ATOM      3  O   UNL     1     110.057 129.667 139.763  0.00  0.00    +0.000 OA
ATOM      4  C   UNL     1     111.713 129.707 137.889  0.00  0.00    +0.000 A 
ATOM      5  C   UNL     1     111.901 128.971 140.826  0.00  0.00    +0.000 A 
ATOM      6  C   UNL     1     112.461 128.989 140.174  0.00  0.00    +0.000 A 
ATOM      7  C   UNL     1     111.413 129.456 139.264  0.00  0.00    +0.000 A 
ATOM      8  C   UNL     1     112.197 129.236 139.395  0.00  0.00    +0.000 A 
ATOM      9  C   UNL     1     111.171 129.692 138.511  0.00  0.00    +0.000 A 
ATOM     10  C   UNL     1     112.497 129.486 138.020  0.00  0.00    +0.000 A 
ATOM     11  C   UNL     1     111.085 129.201 140.690  0.00  0.00    +0.000 A 
ATOM     12  C   UNL     1     110.839 129.445 139.903  0.00  0.00    +0.000 A 
ENDROOT
BRANCH  10  13
ATOM     13  C   UNL     1     113.039 129.502 137.399  0.00  0.00    +0.000 A 
ATOM     14  C   UNL     1     113.268 128.798 137.034  0.00  0.00    +0.000 A 
ATOM     15  C   UNL     1     113.352 130.220 137.142  0.00  0.00    +0.000 A 
ATOM     16  C   UNL     1     113.810 128.813 136.412  0.00  0.00    +0.000 A 
ATOM     17  C   UNL     1     113.894 130.236 136.520  0.00  0.00    +0.000 A 
ATOM     18  C   UNL     1     114.123 129.532 136.156  0.00  0.00    +0.000 A 
BRANCH  18  19
ATOM     19  O   UNL     1     114.665 129.548 135.533  0.00  0.00    +0.000 OA
ATOM     20  C   UNL     1     114.400 129.493 134.754  0.00  0.00    +0.000 C 
ENDBRANCH  18  19
ENDBRANCH  10  13
BRANCH   4  21
ATOM     21  O   UNL     1     111.471 129.942 137.137  0.00  0.00    +0.000 OA
BRANCH  21  30
ATOM     22  O   UNL     1     110.790 128.720 136.849  0.00  0.00    +0.000 OA
ATOM     23  O   UNL     1     109.048 128.315 135.597  0.00  0.00    +0.000 OA
ATOM     24  O   UNL     1     109.198 129.947 135.404  0.00  0.00    +0.000 OA
ATOM     25  O   UNL     1     110.410 130.761 136.174  0.00  0.00    +0.000 OA
ATOM     26  C   UNL     1     110.184 128.314 136.464  0.00  0.00    +0.000 C 
ATOM     27  C   UNL     1     109.653 128.722 135.982  0.00  0.00    +0.000 C 
ATOM     28  C   UNL     1     109.729 129.539 135.886  0.00  0.00    +0.000 C 
ATOM     29  C   UNL     1     110.335 129.945 136.271  0.00  0.00    +0.000 C 
ATOM     30  C   UNL     1     110.865 129.536 136.752  0.00  0.00    +0.000 C 
BRANCH  26  31
ATOM     31  C   UNL     1     110.108 127.498 136.560  0.00  0.00    +0.000 C 
BRANCH  31  32
ATOM     32  O   UNL     1     110.698 126.993 136.281  0.00  0.00    +0.000 OA
BRANCH  32  38
ATOM     33  O   UNL     1     110.837 126.292 137.519  0.00  0.00    +0.000 OA
ATOM     34  O   UNL     1     111.146 125.633 135.461  0.00  0.00    +0.000 OA
ATOM     35  O   UNL     1     111.509 124.252 136.289  0.00  0.00    +0.000 OA
ATOM     36  O   UNL     1     111.424 124.232 137.936  0.00  0.00    +0.000 OA
ATOM     37  C   UNL     1     111.103 125.623 136.285  0.00  0.00    +0.000 C 
ATOM     38  C   UNL     1     110.879 126.302 136.695  0.00  0.00    +0.000 C 
ATOM     39  C   UNL     1     111.285 124.932 136.699  0.00  0.00    +0.000 C 
ATOM     40  C   UNL     1     111.242 124.922 137.523  0.00  0.00    +0.000 C 
ATOM     41  C   UNL     1     111.018 125.602 137.933  0.00  0.00    +0.000 C 
ATOM     42  C   UNL     1     110.975 125.592 138.756  0.00  0.00    +0.000 C 
ENDBRANCH  32  38
ENDBRANCH  31  32
ENDBRANCH  26  31
ENDBRANCH  21  30
ENDBRANCH   4  21
BRANCH   5  43
ATOM     43  O   UNL     1     112.146 128.735 141.578  0.00  0.00    +0.000 OA
BRANCH  43  52
ATOM     44  O   UNL     1     112.132 129.992 142.257  0.00  0.00    +0.000 OA
ATOM     45  O   UNL     1     110.986 128.938 144.181  0.00  0.00    +0.000 OA
ATOM     46  O   UNL     1     111.353 130.546 144.220  0.00  0.00    +0.000 OA
ATOM     47  O   UNL     1     111.382 128.033 142.860  0.00  0.00    +0.000 OA
ATOM     48  C   UNL     1     111.368 129.290 143.540  0.00  0.00    +0.000 C 
ATOM     49  C   UNL     1     111.552 130.094 143.559  0.00  0.00    +0.000 C 
ATOM     50  C   UNL     1     111.566 128.837 142.880  0.00  0.00    +0.000 C 
ATOM     51  C   UNL     1     111.934 130.445 142.918  0.00  0.00    +0.000 C 
ATOM     52  C   UNL     1     111.948 129.188 142.238  0.00  0.00    +0.000 C 
BRANCH  51  54
ATOM     53  O   UNL     1     112.766 131.533 142.513  0.00  0.00    +0.000 OA
ATOM     54  C   UNL     1     112.118 131.249 142.937  0.00  0.00    +0.000 C 
ENDBRANCH  51  54
ENDBRANCH  43  52
ENDBRANCH   5  43
BRANCH   6  55
ATOM     55  C   UNL     1     113.247 128.770 140.296  0.00  0.00    +0.000 C 
BRANCH  55  56
ATOM     56  C   UNL     1     113.458 127.972 140.300  0.00  0.00    +0.000 C 
ATOM     57  C   UNL     1     114.239 127.753 140.452  0.00  0.00    +0.000 C 
ATOM     58  C   UNL     1     114.449 126.955 140.455  0.00  0.00    +0.000 C 
ATOM     59  C   UNL     1     114.809 128.330 140.601  0.00  0.00    +0.000 C 
ENDBRANCH  55  56
ENDBRANCH   6  55
TORSDOF 12
ENDMDL
MODEL 9
REMARK VINA RESULT:     -10.3      1.773      5.113
REMARK  Name = 44259077
REMARK  12 active torsions:
REMARK  status: ('A' for Active; 'I' for Inactive)
REMARK    1  A    between atoms: O_2  and  C_26
REMARK    2  A    between atoms: O_2  and  C_30
REMARK    3  A    between atoms: O_5  and  C_28
REMARK    4  A    between atoms: O_5  and  C_39
REMARK    5  A    between atoms: O_12  and  C_36
REMARK    6  A    between atoms: O_12  and  C_40
REMARK    7  A    between atoms: O_20  and  C_56
REMARK    8  A    between atoms: C_21  and  C_30
REMARK    9  A    between atoms: C_35  and  C_38
REMARK   10  A    between atoms: C_41  and  C_48
REMARK   11  A    between atoms: C_45  and  C_49
REMARK   12  A    between atoms: C_48  and  C_50
REMARK                            x       y       z     vdW  Elec       q    Type
REMARK                         _______ _______ _______ _____ _____    ______ ____
ROOT
ATOM      1  O   UNL     1     111.846 127.616 139.297  0.00  0.00    +0.000 OA
ATOM      2  O   UNL     1     110.176 129.218 138.419  0.00  0.00    +0.000 OA
ATOM      3  O   UNL     1     110.550 130.196 139.413  0.00  0.00    +0.000 OA
ATOM      4  C   UNL     1     110.817 127.942 138.361  0.00  0.00    +0.000 A 
ATOM      5  C   UNL     1     112.178 129.335 140.687  0.00  0.00    +0.000 A 
ATOM      6  C   UNL     1     112.261 128.563 140.317  0.00  0.00    +0.000 A 
ATOM      7  C   UNL     1     111.206 128.892 139.356  0.00  0.00    +0.000 A 
ATOM      8  C   UNL     1     111.763 128.358 139.648  0.00  0.00    +0.000 A 
ATOM      9  C   UNL     1     110.733 128.684 138.712  0.00  0.00    +0.000 A 
ATOM     10  C   UNL     1     111.374 127.408 138.654  0.00  0.00    +0.000 A 
ATOM     11  C   UNL     1     111.598 129.890 140.383  0.00  0.00    +0.000 A 
ATOM     12  C   UNL     1     111.109 129.668 139.712  0.00  0.00    +0.000 A 
ENDROOT
BRANCH  10  13
ATOM     13  C   UNL     1     111.458 126.667 138.303  0.00  0.00    +0.000 A 
ATOM     14  C   UNL     1     110.898 126.077 138.445  0.00  0.00    +0.000 A 
ATOM     15  C   UNL     1     112.101 126.515 137.810  0.00  0.00    +0.000 A 
ATOM     16  C   UNL     1     110.982 125.336 138.094  0.00  0.00    +0.000 A 
ATOM     17  C   UNL     1     112.186 125.772 137.459  0.00  0.00    +0.000 A 
ATOM     18  C   UNL     1     111.626 125.183 137.601  0.00  0.00    +0.000 A 
BRANCH  18  19
ATOM     19  O   UNL     1     111.710 124.441 137.250  0.00  0.00    +0.000 OA
ATOM     20  C   UNL     1     111.620 124.359 136.434  0.00  0.00    +0.000 C 
ENDBRANCH  18  19
ENDBRANCH  10  13
BRANCH   4  21
ATOM     21  O   UNL     1     110.344 127.735 137.718  0.00  0.00    +0.000 OA
BRANCH  21  30
ATOM     22  O   UNL     1     111.017 128.603 136.804  0.00  0.00    +0.000 OA
ATOM     23  O   UNL     1     110.296 129.636 135.021  0.00  0.00    +0.000 OA
ATOM     24  O   UNL     1     108.927 128.850 135.501  0.00  0.00    +0.000 OA
ATOM     25  O   UNL     1     108.951 127.900 136.850  0.00  0.00    +0.000 OA
ATOM     26  C   UNL     1     111.005 129.078 136.130  0.00  0.00    +0.000 C 
ATOM     27  C   UNL     1     110.308 129.161 135.696  0.00  0.00    +0.000 C 
ATOM     28  C   UNL     1     109.623 128.768 135.936  0.00  0.00    +0.000 C 
ATOM     29  C   UNL     1     109.635 128.292 136.610  0.00  0.00    +0.000 C 
ATOM     30  C   UNL     1     110.332 128.210 137.044  0.00  0.00    +0.000 C 
BRANCH  26  31
ATOM     31  C   UNL     1     111.689 129.471 135.890  0.00  0.00    +0.000 C 
BRANCH  31  32
ATOM     32  O   UNL     1     112.394 129.053 135.795  0.00  0.00    +0.000 OA
BRANCH  32  38
ATOM     33  O   UNL     1     113.264 129.825 136.624  0.00  0.00    +0.000 OA
ATOM     34  O   UNL     1     113.545 129.024 134.613  0.00  0.00    +0.000 OA
ATOM     35  O   UNL     1     114.991 129.781 134.852  0.00  0.00    +0.000 OA
ATOM     36  O   UNL     1     115.287 130.567 136.272  0.00  0.00    +0.000 OA
ATOM     37  C   UNL     1     113.692 129.417 135.324  0.00  0.00    +0.000 C 
ATOM     38  C   UNL     1     113.117 129.432 135.915  0.00  0.00    +0.000 C 
ATOM     39  C   UNL     1     114.416 129.796 135.442  0.00  0.00    +0.000 C 
ATOM     40  C   UNL     1     114.563 130.189 136.153  0.00  0.00    +0.000 C 
ATOM     41  C   UNL     1     113.988 130.204 136.744  0.00  0.00    +0.000 C 
ATOM     42  C   UNL     1     114.135 130.597 137.453  0.00  0.00    +0.000 C 
ENDBRANCH  32  38
ENDBRANCH  31  32
ENDBRANCH  26  31
ENDBRANCH  21  30
ENDBRANCH   4  21
BRANCH   5  43
ATOM     43  O   UNL     1     112.652 129.540 141.331  0.00  0.00    +0.000 OA
BRANCH  43  52
ATOM     44  O   UNL     1     111.728 129.567 142.420  0.00  0.00    +0.000 OA
ATOM     45  O   UNL     1     112.527 131.826 143.040  0.00  0.00    +0.000 OA
ATOM     46  O   UNL     1     111.337 131.100 143.923  0.00  0.00    +0.000 OA
ATOM     47  O   UNL     1     113.185 131.046 141.744  0.00  0.00    +0.000 OA
ATOM     48  C   UNL     1     112.261 131.073 142.834  0.00  0.00    +0.000 C 
ATOM     49  C   UNL     1     111.665 130.710 143.275  0.00  0.00    +0.000 C 
ATOM     50  C   UNL     1     112.590 130.683 142.186  0.00  0.00    +0.000 C 
ATOM     51  C   UNL     1     111.399 129.957 143.068  0.00  0.00    +0.000 C 
ATOM     52  C   UNL     1     112.323 129.929 141.979  0.00  0.00    +0.000 C 
BRANCH  51  54
ATOM     53  O   UNL     1     110.862 128.794 143.700  0.00  0.00    +0.000 OA
ATOM     54  C   UNL     1     110.804 129.594 143.510  0.00  0.00    +0.000 C 
ENDBRANCH  51  54
ENDBRANCH  43  52
ENDBRANCH   5  43
BRANCH   6  55
ATOM     55  C   UNL     1     112.815 128.023 140.603  0.00  0.00    +0.000 C 
BRANCH  55  56
ATOM     56  C   UNL     1     113.612 128.103 140.403  0.00  0.00    +0.000 C 
ATOM     57  C   UNL     1     114.162 127.549 140.670  0.00  0.00    +0.000 C 
ATOM     58  C   UNL     1     114.958 127.630 140.469  0.00  0.00    +0.000 C 
ATOM     59  C   UNL     1     113.916 126.915 141.137  0.00  0.00    +0.000 C 
ENDBRANCH  55  56
ENDBRANCH   6  55
TORSDOF 12
ENDMDL
MODEL 10
REMARK VINA RESULT:     -10.3      1.911      4.766
REMARK  Name = 44259077
REMARK  12 active torsions:
REMARK  status: ('A' for Active; 'I' for Inactive)
REMARK    1  A    between atoms: O_2  and  C_26
REMARK    2  A    between atoms: O_2  and  C_30
REMARK    3  A    between atoms: O_5  and  C_28
REMARK    4  A    between atoms: O_5  and  C_39
REMARK    5  A    between atoms: O_12  and  C_36
REMARK    6  A    between atoms: O_12  and  C_40
REMARK    7  A    between atoms: O_20  and  C_56
REMARK    8  A    between atoms: C_21  and  C_30
REMARK    9  A    between atoms: C_35  and  C_38
REMARK   10  A    between atoms: C_41  and  C_48
REMARK   11  A    between atoms: C_45  and  C_49
REMARK   12  A    between atoms: C_48  and  C_50
REMARK                            x       y       z     vdW  Elec       q    Type
REMARK                         _______ _______ _______ _____ _____    ______ ____
ROOT
ATOM      1  O   UNL     1     110.279 128.679 137.858  0.00  0.00    +0.000 OA
ATOM      2  O   UNL     1     109.253 127.309 139.647  0.00  0.00    +0.000 OA
ATOM      3  O   UNL     1     109.655 126.092 138.984  0.00  0.00    +0.000 OA
ATOM      4  C   UNL     1     109.562 128.589 139.090  0.00  0.00    +0.000 A 
ATOM      5  C   UNL     1     110.745 126.628 137.102  0.00  0.00    +0.000 A 
ATOM      6  C   UNL     1     110.707 127.485 137.150  0.00  0.00    +0.000 A 
ATOM      7  C   UNL     1     109.971 127.399 138.413  0.00  0.00    +0.000 A 
ATOM      8  C   UNL     1     110.313 127.855 137.817  0.00  0.00    +0.000 A 
ATOM      9  C   UNL     1     109.595 127.766 139.051  0.00  0.00    +0.000 A 
ATOM     10  C   UNL     1     109.903 129.045 138.494  0.00  0.00    +0.000 A 
ATOM     11  C   UNL     1     110.389 126.153 137.723  0.00  0.00    +0.000 A 
ATOM     12  C   UNL     1     109.999 126.541 138.383  0.00  0.00    +0.000 A 
ENDROOT
BRANCH  10  13
ATOM     13  C   UNL     1     109.870 129.868 138.534  0.00  0.00    +0.000 A 
ATOM     14  C   UNL     1     109.166 130.262 138.360  0.00  0.00    +0.000 A 
ATOM     15  C   UNL     1     110.540 130.298 138.749  0.00  0.00    +0.000 A 
ATOM     16  C   UNL     1     109.132 131.085 138.400  0.00  0.00    +0.000 A 
ATOM     17  C   UNL     1     110.506 131.122 138.790  0.00  0.00    +0.000 A 
ATOM     18  C   UNL     1     109.802 131.515 138.615  0.00  0.00    +0.000 A 
BRANCH  18  19
ATOM     19  O   UNL     1     109.769 132.339 138.656  0.00  0.00    +0.000 OA
ATOM     20  C   UNL     1     109.949 132.791 137.990  0.00  0.00    +0.000 C 
ENDBRANCH  18  19
ENDBRANCH  10  13
BRANCH   4  21
ATOM     21  O   UNL     1     109.186 128.955 139.727  0.00  0.00    +0.000 OA
BRANCH  21  30
ATOM     22  O   UNL     1     110.261 128.764 140.648  0.00  0.00    +0.000 OA
ATOM     23  O   UNL     1     110.251 128.420 142.804  0.00  0.00    +0.000 OA
ATOM     24  O   UNL     1     108.634 128.536 142.499  0.00  0.00    +0.000 OA
ATOM     25  O   UNL     1     108.101 128.803 140.961  0.00  0.00    +0.000 OA
ATOM     26  C   UNL     1     110.527 128.630 141.417  0.00  0.00    +0.000 C 
ATOM     27  C   UNL     1     109.985 128.554 142.035  0.00  0.00    +0.000 C 
ATOM     28  C   UNL     1     109.176 128.612 141.882  0.00  0.00    +0.000 C 
ATOM     29  C   UNL     1     108.909 128.745 141.113  0.00  0.00    +0.000 C 
ATOM     30  C   UNL     1     109.452 128.821 140.496  0.00  0.00    +0.000 C 
BRANCH  26  31
ATOM     31  C   UNL     1     111.335 128.572 141.570  0.00  0.00    +0.000 C 
BRANCH  31  32
ATOM     32  O   UNL     1     111.784 127.984 141.205  0.00  0.00    +0.000 OA
BRANCH  32  38
ATOM     33  O   UNL     1     112.904 128.860 141.070  0.00  0.00    +0.000 OA
ATOM     34  O   UNL     1     112.775 126.683 140.988  0.00  0.00    +0.000 OA
ATOM     35  O   UNL     1     114.392 126.909 140.746  0.00  0.00    +0.000 OA
ATOM     36  O   UNL     1     115.016 128.436 140.719  0.00  0.00    +0.000 OA
ATOM     37  C   UNL     1     113.088 127.447 140.975  0.00  0.00    +0.000 C 
ATOM     38  C   UNL     1     112.592 128.097 141.084  0.00  0.00    +0.000 C 
ATOM     39  C   UNL     1     113.896 127.559 140.854  0.00  0.00    +0.000 C 
ATOM     40  C   UNL     1     114.208 128.324 140.841  0.00  0.00    +0.000 C 
ATOM     41  C   UNL     1     113.712 128.974 140.949  0.00  0.00    +0.000 C 
ATOM     42  C   UNL     1     114.025 129.737 140.936  0.00  0.00    +0.000 C 
ENDBRANCH  32  38
ENDBRANCH  31  32
ENDBRANCH  26  31
ENDBRANCH  21  30
ENDBRANCH   4  21
BRANCH   5  43
ATOM     43  O   UNL     1     111.121 126.264 136.464  0.00  0.00    +0.000 OA
BRANCH  43  52
ATOM     44  O   UNL     1     112.306 125.753 137.079  0.00  0.00    +0.000 OA
ATOM     45  O   UNL     1     111.906 123.553 136.018  0.00  0.00    +0.000 OA
ATOM     46  O   UNL     1     113.224 123.774 136.986  0.00  0.00    +0.000 OA
ATOM     47  O   UNL     1     110.855 124.797 135.757  0.00  0.00    +0.000 OA
ATOM     48  C   UNL     1     112.039 124.286 136.372  0.00  0.00    +0.000 C 
ATOM     49  C   UNL     1     112.698 124.397 136.856  0.00  0.00    +0.000 C 
ATOM     50  C   UNL     1     111.514 124.908 136.241  0.00  0.00    +0.000 C 
ATOM     51  C   UNL     1     112.831 125.130 137.209  0.00  0.00    +0.000 C 
ATOM     52  C   UNL     1     111.647 125.642 136.595  0.00  0.00    +0.000 C 
BRANCH  51  54
ATOM     53  O   UNL     1     113.910 125.951 137.662  0.00  0.00    +0.000 OA
ATOM     54  C   UNL     1     113.490 125.241 137.694  0.00  0.00    +0.000 C 
ENDBRANCH  51  54
ENDBRANCH  43  52
ENDBRANCH   5  43
BRANCH   6  55
ATOM     55  C   UNL     1     111.046 127.949 136.558  0.00  0.00    +0.000 C 
BRANCH  55  56
ATOM     56  C   UNL     1     110.615 128.130 135.877  0.00  0.00    +0.000 C 
ATOM     57  C   UNL     1     110.946 128.615 135.297  0.00  0.00    +0.000 C 
ATOM     58  C   UNL     1     110.515 128.795 134.616  0.00  0.00    +0.000 C 
ATOM     59  C   UNL     1     111.706 128.919 135.397  0.00  0.00    +0.000 C 
ENDBRANCH  55  56
ENDBRANCH   6  55
TORSDOF 12
ENDMDL
