MODEL 1
REMARK VINA RESULT:      -9.8      0.000      0.000
REMARK  Name = 42607898
REMARK  4 active torsions:
REMARK  status: ('A' for Active; 'I' for Inactive)
REMARK    1  A    between atoms: O_2  and  C_15
REMARK    2  A    between atoms: O_2  and  C_17
REMARK    3  A    between atoms: C_14  and  C_16
REMARK    4  A    between atoms: C_21  and  C_26
REMARK                            x       y       z     vdW  Elec       q    Type
REMARK                         _______ _______ _______ _____ _____    ______ ____
ROOT
ATOM      1  O   UNL     1     103.038 130.368 142.072  0.00  0.00    +0.000 OA
ATOM      2  O   UNL     1     103.704 128.145 140.342  0.00  0.00    +0.000 OA
ATOM      3  O   UNL     1     102.738 129.118 139.891  0.00  0.00    +0.000 OA
ATOM      4  C   UNL     1     104.430 128.670 142.332  0.00  0.00    +0.000 A 
ATOM      5  C   UNL     1     104.003 129.362 142.477  0.00  0.00    +0.000 A 
ATOM      6  C   UNL     1     103.476 129.648 141.910  0.00  0.00    +0.000 A 
ATOM      7  C   UNL     1     103.377 129.242 141.198  0.00  0.00    +0.000 A 
ATOM      8  C   UNL     1     102.488 130.671 141.486  0.00  0.00    +0.000 C 
ATOM      9  C   UNL     1     104.330 128.265 141.621  0.00  0.00    +0.000 A 
ATOM     10  C   UNL     1     102.384 130.249 140.744  0.00  0.00    +0.000 C 
ATOM     11  C   UNL     1     103.803 128.551 141.053  0.00  0.00    +0.000 A 
ATOM     12  C   UNL     1     102.832 129.529 140.600  0.00  0.00    +0.000 C 
ATOM     13  C   UNL     1     104.103 129.766 143.189  0.00  0.00    +0.000 C 
ATOM     14  C   UNL     1     104.757 127.574 141.476  0.00  0.00    +0.000 C 
ENDROOT
BRANCH   8  16
ATOM     15  O   UNL     1     100.786 133.436 142.074  0.00  0.00    +0.000 OA
ATOM     16  C   UNL     1     102.062 131.362 141.633  0.00  0.00    +0.000 A 
ATOM     17  C   UNL     1     101.303 131.319 141.954  0.00  0.00    +0.000 A 
ATOM     18  C   UNL     1     102.395 132.096 141.459  0.00  0.00    +0.000 A 
ATOM     19  C   UNL     1     100.878 132.010 142.101  0.00  0.00    +0.000 A 
ATOM     20  C   UNL     1     101.971 132.788 141.606  0.00  0.00    +0.000 A 
ATOM     21  C   UNL     1     101.212 132.745 141.927  0.00  0.00    +0.000 A 
ENDBRANCH   8  16
BRANCH   4  22
ATOM     22  O   UNL     1     104.957 128.384 142.899  0.00  0.00    +0.000 OA
BRANCH  22  31
ATOM     23  O   UNL     1     106.003 129.182 142.341  0.00  0.00    +0.000 OA
ATOM     24  O   UNL     1     107.643 128.067 143.822  0.00  0.00    +0.000 OA
ATOM     25  O   UNL     1     108.142 129.236 142.771  0.00  0.00    +0.000 OA
ATOM     26  O   UNL     1     106.050 127.641 143.886  0.00  0.00    +0.000 OA
ATOM     27  C   UNL     1     107.096 128.438 143.329  0.00  0.00    +0.000 C 
ATOM     28  C   UNL     1     107.345 129.023 142.803  0.00  0.00    +0.000 C 
ATOM     29  C   UNL     1     106.299 128.225 143.361  0.00  0.00    +0.000 C 
ATOM     30  C   UNL     1     106.799 129.395 142.309  0.00  0.00    +0.000 C 
ATOM     31  C   UNL     1     105.753 128.597 142.867  0.00  0.00    +0.000 C 
BRANCH  30  33
ATOM     32  O   UNL     1     107.124 129.808 140.980  0.00  0.00    +0.000 OA
ATOM     33  C   UNL     1     107.048 129.979 141.784  0.00  0.00    +0.000 C 
ENDBRANCH  30  33
ENDBRANCH  22  31
ENDBRANCH   4  22
TORSDOF 4
ENDMDL
MODEL 2
REMARK VINA RESULT:      -9.5      1.202      4.905
REMARK  Name = 42607898
REMARK  4 active torsions:
REMARK  status: ('A' for Active; 'I' for Inactive)
REMARK    1  A    between atoms: O_2  and  C_15
REMARK    2  A    between atoms: O_2  and  C_17
REMARK    3  A    between atoms: C_14  and  C_16
REMARK    4  A    between atoms: C_21  and  C_26
REMARK                            x       y       z     vdW  Elec       q    Type
REMARK                         _______ _______ _______ _____ _____    ______ ____
ROOT
ATOM      1  O   UNL     1     104.403 129.131 142.829  0.00  0.00    +0.000 OA
ATOM      2  O   UNL     1     103.240 128.657 140.221  0.00  0.00    +0.000 OA
ATOM      3  O   UNL     1     104.317 127.808 140.671  0.00  0.00    +0.000 OA
ATOM      4  C   UNL     1     102.771 130.151 141.741  0.00  0.00    +0.000 A 
ATOM      5  C   UNL     1     103.318 129.955 142.327  0.00  0.00    +0.000 A 
ATOM      6  C   UNL     1     103.839 129.325 142.211  0.00  0.00    +0.000 A 
ATOM      7  C   UNL     1     103.812 128.893 141.508  0.00  0.00    +0.000 A 
ATOM      8  C   UNL     1     104.948 128.476 142.713  0.00  0.00    +0.000 C 
ATOM      9  C   UNL     1     102.745 129.718 141.039  0.00  0.00    +0.000 A 
ATOM     10  C   UNL     1     104.921 128.026 141.982  0.00  0.00    +0.000 C 
ATOM     11  C   UNL     1     103.266 129.089 140.923  0.00  0.00    +0.000 A 
ATOM     12  C   UNL     1     104.349 128.236 141.376  0.00  0.00    +0.000 C 
ATOM     13  C   UNL     1     103.343 130.388 143.029  0.00  0.00    +0.000 C 
ATOM     14  C   UNL     1     102.198 129.915 140.453  0.00  0.00    +0.000 C 
ENDROOT
BRANCH   8  16
ATOM     15  O   UNL     1     107.130 127.698 145.063  0.00  0.00    +0.000 OA
ATOM     16  C   UNL     1     105.494 128.282 143.301  0.00  0.00    +0.000 A 
ATOM     17  C   UNL     1     106.247 128.617 143.291  0.00  0.00    +0.000 A 
ATOM     18  C   UNL     1     105.286 127.752 143.898  0.00  0.00    +0.000 A 
ATOM     19  C   UNL     1     106.793 128.423 143.878  0.00  0.00    +0.000 A 
ATOM     20  C   UNL     1     105.830 127.558 144.486  0.00  0.00    +0.000 A 
ATOM     21  C   UNL     1     106.584 127.893 144.476  0.00  0.00    +0.000 A 
ENDBRANCH   8  16
BRANCH   4  22
ATOM     22  O   UNL     1     102.250 130.781 141.857  0.00  0.00    +0.000 OA
BRANCH  22  31
ATOM     23  O   UNL     1     103.215 131.681 141.309  0.00  0.00    +0.000 OA
ATOM     24  O   UNL     1     101.624 133.556 141.589  0.00  0.00    +0.000 OA
ATOM     25  O   UNL     1     103.119 133.831 140.949  0.00  0.00    +0.000 OA
ATOM     26  O   UNL     1     101.189 132.031 142.044  0.00  0.00    +0.000 OA
ATOM     27  C   UNL     1     102.155 132.931 141.496  0.00  0.00    +0.000 C 
ATOM     28  C   UNL     1     102.902 133.068 141.176  0.00  0.00    +0.000 C 
ATOM     29  C   UNL     1     101.937 132.168 141.723  0.00  0.00    +0.000 C 
ATOM     30  C   UNL     1     103.433 132.443 141.083  0.00  0.00    +0.000 C 
ATOM     31  C   UNL     1     102.467 131.543 141.630  0.00  0.00    +0.000 C 
BRANCH  30  33
ATOM     32  O   UNL     1     104.344 132.358 139.985  0.00  0.00    +0.000 OA
ATOM     33  C   UNL     1     104.180 132.581 140.762  0.00  0.00    +0.000 C 
ENDBRANCH  30  33
ENDBRANCH  22  31
ENDBRANCH   4  22
TORSDOF 4
ENDMDL
MODEL 3
REMARK VINA RESULT:      -9.3      7.753     10.718
REMARK  Name = 42607898
REMARK  4 active torsions:
REMARK  status: ('A' for Active; 'I' for Inactive)
REMARK    1  A    between atoms: O_2  and  C_15
REMARK    2  A    between atoms: O_2  and  C_17
REMARK    3  A    between atoms: C_14  and  C_16
REMARK    4  A    between atoms: C_21  and  C_26
REMARK                            x       y       z     vdW  Elec       q    Type
REMARK                         _______ _______ _______ _____ _____    ______ ____
ROOT
ATOM      1  O   UNL     1     112.416 126.657 136.220  0.00  0.00    +0.000 OA
ATOM      2  O   UNL     1     109.882 126.034 134.966  0.00  0.00    +0.000 OA
ATOM      3  O   UNL     1     110.678 124.958 135.508  0.00  0.00    +0.000 OA
ATOM      4  C   UNL     1     110.890 127.946 135.271  0.00  0.00    +0.000 A 
ATOM      5  C   UNL     1     111.576 127.700 135.658  0.00  0.00    +0.000 A 
ATOM      6  C   UNL     1     111.698 126.900 135.815  0.00  0.00    +0.000 A 
ATOM      7  C   UNL     1     111.132 126.344 135.584  0.00  0.00    +0.000 A 
ATOM      8  C   UNL     1     112.548 125.824 136.385  0.00  0.00    +0.000 C 
ATOM      9  C   UNL     1     110.326 127.390 135.040  0.00  0.00    +0.000 A 
ATOM     10  C   UNL     1     111.960 125.245 136.145  0.00  0.00    +0.000 C 
ATOM     11  C   UNL     1     110.447 126.589 135.197  0.00  0.00    +0.000 A 
ATOM     12  C   UNL     1     111.247 125.508 135.742  0.00  0.00    +0.000 C 
ATOM     13  C   UNL     1     112.140 128.256 135.889  0.00  0.00    +0.000 C 
ATOM     14  C   UNL     1     109.639 127.636 134.653  0.00  0.00    +0.000 C 
ENDROOT
BRANCH   8  16
ATOM     15  O   UNL     1     115.295 124.854 137.935  0.00  0.00    +0.000 OA
ATOM     16  C   UNL     1     113.234 125.582 136.773  0.00  0.00    +0.000 A 
ATOM     17  C   UNL     1     113.287 125.639 137.594  0.00  0.00    +0.000 A 
ATOM     18  C   UNL     1     113.869 125.282 136.339  0.00  0.00    +0.000 A 
ATOM     19  C   UNL     1     113.974 125.397 137.982  0.00  0.00    +0.000 A 
ATOM     20  C   UNL     1     114.556 125.040 136.726  0.00  0.00    +0.000 A 
ATOM     21  C   UNL     1     114.608 125.097 137.547  0.00  0.00    +0.000 A 
ENDBRANCH   8  16
BRANCH   4  22
ATOM     22  O   UNL     1     110.769 128.747 135.114  0.00  0.00    +0.000 OA
BRANCH  22  31
ATOM     23  O   UNL     1     110.223 128.956 136.418  0.00  0.00    +0.000 OA
ATOM     24  O   UNL     1     109.246 131.102 135.666  0.00  0.00    +0.000 OA
ATOM     25  O   UNL     1     109.027 130.595 137.220  0.00  0.00    +0.000 OA
ATOM     26  O   UNL     1     110.117 130.178 134.612  0.00  0.00    +0.000 OA
ATOM     27  C   UNL     1     109.572 130.386 135.917  0.00  0.00    +0.000 C 
ATOM     28  C   UNL     1     109.463 130.133 136.694  0.00  0.00    +0.000 C 
ATOM     29  C   UNL     1     110.008 129.924 135.390  0.00  0.00    +0.000 C 
ATOM     30  C   UNL     1     109.788 129.417 136.945  0.00  0.00    +0.000 C 
ATOM     31  C   UNL     1     110.334 129.208 135.640  0.00  0.00    +0.000 C 
BRANCH  30  33
ATOM     32  O   UNL     1     109.167 128.537 137.884  0.00  0.00    +0.000 OA
ATOM     33  C   UNL     1     109.678 129.165 137.721  0.00  0.00    +0.000 C 
ENDBRANCH  30  33
ENDBRANCH  22  31
ENDBRANCH   4  22
TORSDOF 4
ENDMDL
MODEL 4
REMARK VINA RESULT:      -9.3      8.577     10.743
REMARK  Name = 42607898
REMARK  4 active torsions:
REMARK  status: ('A' for Active; 'I' for Inactive)
REMARK    1  A    between atoms: O_2  and  C_15
REMARK    2  A    between atoms: O_2  and  C_17
REMARK    3  A    between atoms: C_14  and  C_16
REMARK    4  A    between atoms: C_21  and  C_26
REMARK                            x       y       z     vdW  Elec       q    Type
REMARK                         _______ _______ _______ _____ _____    ______ ____
ROOT
ATOM      1  O   UNL     1     112.237 126.370 136.342  0.00  0.00    +0.000 OA
ATOM      2  O   UNL     1     110.802 128.250 134.673  0.00  0.00    +0.000 OA
ATOM      3  O   UNL     1     110.300 126.903 134.800  0.00  0.00    +0.000 OA
ATOM      4  C   UNL     1     112.620 128.494 135.857  0.00  0.00    +0.000 A 
ATOM      5  C   UNL     1     112.698 127.738 136.179  0.00  0.00    +0.000 A 
ATOM      6  C   UNL     1     112.144 127.153 136.000  0.00  0.00    +0.000 A 
ATOM      7  C   UNL     1     111.512 127.324 135.497  0.00  0.00    +0.000 A 
ATOM      8  C   UNL     1     111.663 125.758 136.159  0.00  0.00    +0.000 C 
ATOM      9  C   UNL     1     111.987 128.664 135.355  0.00  0.00    +0.000 A 
ATOM     10  C   UNL     1     111.005 125.935 135.636  0.00  0.00    +0.000 C 
ATOM     11  C   UNL     1     111.434 128.079 135.175  0.00  0.00    +0.000 A 
ATOM     12  C   UNL     1     110.929 126.724 135.303  0.00  0.00    +0.000 C 
ATOM     13  C   UNL     1     113.330 127.568 136.681  0.00  0.00    +0.000 C 
ATOM     14  C   UNL     1     111.909 129.420 135.032  0.00  0.00    +0.000 C 
ENDROOT
BRANCH   8  16
ATOM     15  O   UNL     1     111.985 122.740 137.455  0.00  0.00    +0.000 OA
ATOM     16  C   UNL     1     111.744 125.003 136.483  0.00  0.00    +0.000 A 
ATOM     17  C   UNL     1     112.123 124.408 136.054  0.00  0.00    +0.000 A 
ATOM     18  C   UNL     1     111.446 124.843 137.235  0.00  0.00    +0.000 A 
ATOM     19  C   UNL     1     112.203 123.654 136.378  0.00  0.00    +0.000 A 
ATOM     20  C   UNL     1     111.526 124.089 137.560  0.00  0.00    +0.000 A 
ATOM     21  C   UNL     1     111.905 123.495 137.131  0.00  0.00    +0.000 A 
ENDBRANCH   8  16
BRANCH   4  22
ATOM     22  O   UNL     1     113.173 129.078 136.036  0.00  0.00    +0.000 OA
BRANCH  22  31
ATOM     23  O   UNL     1     112.354 129.546 137.109  0.00  0.00    +0.000 OA
ATOM     24  O   UNL     1     114.219 130.959 137.917  0.00  0.00    +0.000 OA
ATOM     25  O   UNL     1     112.779 130.956 138.720  0.00  0.00    +0.000 OA
ATOM     26  O   UNL     1     114.417 130.020 136.574  0.00  0.00    +0.000 OA
ATOM     27  C   UNL     1     113.597 130.488 137.648  0.00  0.00    +0.000 C 
ATOM     28  C   UNL     1     112.877 130.486 138.049  0.00  0.00    +0.000 C 
ATOM     29  C   UNL     1     113.696 130.018 136.976  0.00  0.00    +0.000 C 
ATOM     30  C   UNL     1     112.255 130.015 137.780  0.00  0.00    +0.000 C 
ATOM     31  C   UNL     1     113.074 129.547 136.707  0.00  0.00    +0.000 C 
BRANCH  30  33
ATOM     32  O   UNL     1     111.337 129.381 138.672  0.00  0.00    +0.000 OA
ATOM     33  C   UNL     1     111.535 130.014 138.182  0.00  0.00    +0.000 C 
ENDBRANCH  30  33
ENDBRANCH  22  31
ENDBRANCH   4  22
TORSDOF 4
ENDMDL
MODEL 5
REMARK VINA RESULT:      -9.3      7.448     10.514
REMARK  Name = 42607898
REMARK  4 active torsions:
REMARK  status: ('A' for Active; 'I' for Inactive)
REMARK    1  A    between atoms: O_2  and  C_15
REMARK    2  A    between atoms: O_2  and  C_17
REMARK    3  A    between atoms: C_14  and  C_16
REMARK    4  A    between atoms: C_21  and  C_26
REMARK                            x       y       z     vdW  Elec       q    Type
REMARK                         _______ _______ _______ _____ _____    ______ ____
ROOT
ATOM      1  O   UNL     1     111.582 126.424 136.233  0.00  0.00    +0.000 OA
ATOM      2  O   UNL     1     113.135 128.864 136.098  0.00  0.00    +0.000 OA
ATOM      3  O   UNL     1     113.759 127.665 136.603  0.00  0.00    +0.000 OA
ATOM      4  C   UNL     1     111.062 128.461 135.546  0.00  0.00    +0.000 A 
ATOM      5  C   UNL     1     111.003 127.659 135.733  0.00  0.00    +0.000 A 
ATOM      6  C   UNL     1     111.656 127.259 136.042  0.00  0.00    +0.000 A 
ATOM      7  C   UNL     1     112.366 127.661 136.163  0.00  0.00    +0.000 A 
ATOM      8  C   UNL     1     112.258 126.003 136.555  0.00  0.00    +0.000 C 
ATOM      9  C   UNL     1     111.772 128.862 135.668  0.00  0.00    +0.000 A 
ATOM     10  C   UNL     1     112.998 126.421 136.682  0.00  0.00    +0.000 C 
ATOM     11  C   UNL     1     112.424 128.462 135.976  0.00  0.00    +0.000 A 
ATOM     12  C   UNL     1     113.052 127.256 136.484  0.00  0.00    +0.000 C 
ATOM     13  C   UNL     1     110.293 127.258 135.611  0.00  0.00    +0.000 C 
ATOM     14  C   UNL     1     111.830 129.664 135.480  0.00  0.00    +0.000 C 
ENDROOT
BRANCH   8  16
ATOM     15  O   UNL     1     112.014 122.798 137.301  0.00  0.00    +0.000 OA
ATOM     16  C   UNL     1     112.197 125.202 136.741  0.00  0.00    +0.000 A 
ATOM     17  C   UNL     1     112.598 124.641 136.288  0.00  0.00    +0.000 A 
ATOM     18  C   UNL     1     111.735 124.961 137.381  0.00  0.00    +0.000 A 
ATOM     19  C   UNL     1     112.537 123.840 136.474  0.00  0.00    +0.000 A 
ATOM     20  C   UNL     1     111.674 124.160 137.568  0.00  0.00    +0.000 A 
ATOM     21  C   UNL     1     112.075 123.599 137.114  0.00  0.00    +0.000 A 
ENDBRANCH   8  16
BRANCH   4  22
ATOM     22  O   UNL     1     110.409 128.861 135.237  0.00  0.00    +0.000 OA
BRANCH  22  31
ATOM     23  O   UNL     1     109.986 129.196 136.560  0.00  0.00    +0.000 OA
ATOM     24  O   UNL     1     108.130 130.541 135.625  0.00  0.00    +0.000 OA
ATOM     25  O   UNL     1     108.326 130.428 137.259  0.00  0.00    +0.000 OA
ATOM     26  O   UNL     1     109.172 129.758 134.614  0.00  0.00    +0.000 OA
ATOM     27  C   UNL     1     108.749 130.093 135.937  0.00  0.00    +0.000 C 
ATOM     28  C   UNL     1     108.847 130.036 136.754  0.00  0.00    +0.000 C 
ATOM     29  C   UNL     1     109.270 129.701 135.431  0.00  0.00    +0.000 C 
ATOM     30  C   UNL     1     109.465 129.588 137.065  0.00  0.00    +0.000 C 
ATOM     31  C   UNL     1     109.889 129.252 135.742  0.00  0.00    +0.000 C 
BRANCH  30  33
ATOM     32  O   UNL     1     109.306 128.858 138.283  0.00  0.00    +0.000 OA
ATOM     33  C   UNL     1     109.563 129.531 137.882  0.00  0.00    +0.000 C 
ENDBRANCH  30  33
ENDBRANCH  22  31
ENDBRANCH   4  22
TORSDOF 4
ENDMDL
MODEL 6
REMARK VINA RESULT:      -9.3      8.070     10.546
REMARK  Name = 42607898
REMARK  4 active torsions:
REMARK  status: ('A' for Active; 'I' for Inactive)
REMARK    1  A    between atoms: O_2  and  C_15
REMARK    2  A    between atoms: O_2  and  C_17
REMARK    3  A    between atoms: C_14  and  C_16
REMARK    4  A    between atoms: C_21  and  C_26
REMARK                            x       y       z     vdW  Elec       q    Type
REMARK                         _______ _______ _______ _____ _____    ______ ____
ROOT
ATOM      1  O   UNL     1     112.769 128.294 135.619  0.00  0.00    +0.000 OA
ATOM      2  O   UNL     1     110.003 128.256 134.765  0.00  0.00    +0.000 OA
ATOM      3  O   UNL     1     110.766 129.472 134.612  0.00  0.00    +0.000 OA
ATOM      4  C   UNL     1     111.242 126.695 135.656  0.00  0.00    +0.000 A 
ATOM      5  C   UNL     1     111.956 127.098 135.750  0.00  0.00    +0.000 A 
ATOM      6  C   UNL     1     112.020 127.886 135.516  0.00  0.00    +0.000 A 
ATOM      7  C   UNL     1     111.368 128.272 135.187  0.00  0.00    +0.000 A 
ATOM      8  C   UNL     1     112.841 129.116 135.377  0.00  0.00    +0.000 C 
ATOM      9  C   UNL     1     110.591 127.082 135.327  0.00  0.00    +0.000 A 
ATOM     10  C   UNL     1     112.163 129.518 135.035  0.00  0.00    +0.000 C 
ATOM     11  C   UNL     1     110.655 127.870 135.093  0.00  0.00    +0.000 A 
ATOM     12  C   UNL     1     111.422 129.093 134.939  0.00  0.00    +0.000 C 
ATOM     13  C   UNL     1     112.607 126.711 136.078  0.00  0.00    +0.000 C 
ATOM     14  C   UNL     1     109.877 126.679 135.233  0.00  0.00    +0.000 C 
ENDROOT
BRANCH   8  16
ATOM     15  O   UNL     1     115.702 130.715 135.756  0.00  0.00    +0.000 OA
ATOM     16  C   UNL     1     113.556 129.515 135.472  0.00  0.00    +0.000 A 
ATOM     17  C   UNL     1     113.672 130.003 136.127  0.00  0.00    +0.000 A 
ATOM     18  C   UNL     1     114.155 129.428 134.912  0.00  0.00    +0.000 A 
ATOM     19  C   UNL     1     114.387 130.403 136.222  0.00  0.00    +0.000 A 
ATOM     20  C   UNL     1     114.870 129.827 135.006  0.00  0.00    +0.000 A 
ATOM     21  C   UNL     1     114.987 130.315 135.661  0.00  0.00    +0.000 A 
ENDBRANCH   8  16
BRANCH   4  22
ATOM     22  O   UNL     1     111.179 125.907 135.890  0.00  0.00    +0.000 OA
BRANCH  22  31
ATOM     23  O   UNL     1     110.697 126.264 137.187  0.00  0.00    +0.000 OA
ATOM     24  O   UNL     1     111.449 124.077 138.068  0.00  0.00    +0.000 OA
ATOM     25  O   UNL     1     110.717 125.162 139.071  0.00  0.00    +0.000 OA
ATOM     26  O   UNL     1     111.680 124.449 136.478  0.00  0.00    +0.000 OA
ATOM     27  C   UNL     1     111.199 124.806 137.775  0.00  0.00    +0.000 C 
ATOM     28  C   UNL     1     110.832 125.349 138.276  0.00  0.00    +0.000 C 
ATOM     29  C   UNL     1     111.314 124.992 136.979  0.00  0.00    +0.000 C 
ATOM     30  C   UNL     1     110.582 126.078 137.982  0.00  0.00    +0.000 C 
ATOM     31  C   UNL     1     111.063 125.721 136.685  0.00  0.00    +0.000 C 
BRANCH  30  33
ATOM     32  O   UNL     1     109.402 126.748 138.431  0.00  0.00    +0.000 OA
ATOM     33  C   UNL     1     110.216 126.620 138.483  0.00  0.00    +0.000 C 
ENDBRANCH  30  33
ENDBRANCH  22  31
ENDBRANCH   4  22
TORSDOF 4
ENDMDL
MODEL 7
REMARK VINA RESULT:      -9.3      5.847      7.662
REMARK  Name = 42607898
REMARK  4 active torsions:
REMARK  status: ('A' for Active; 'I' for Inactive)
REMARK    1  A    between atoms: O_2  and  C_15
REMARK    2  A    between atoms: O_2  and  C_17
REMARK    3  A    between atoms: C_14  and  C_16
REMARK    4  A    between atoms: C_21  and  C_26
REMARK                            x       y       z     vdW  Elec       q    Type
REMARK                         _______ _______ _______ _____ _____    ______ ____
ROOT
ATOM      1  O   UNL     1     103.716 124.328 146.884  0.00  0.00    +0.000 OA
ATOM      2  O   UNL     1     104.555 124.969 149.579  0.00  0.00    +0.000 OA
ATOM      3  O   UNL     1     103.252 124.383 149.373  0.00  0.00    +0.000 OA
ATOM      4  C   UNL     1     105.583 125.218 147.670  0.00  0.00    +0.000 A 
ATOM      5  C   UNL     1     105.017 124.919 147.148  0.00  0.00    +0.000 A 
ATOM      6  C   UNL     1     104.297 124.637 147.437  0.00  0.00    +0.000 A 
ATOM      7  C   UNL     1     104.144 124.654 148.248  0.00  0.00    +0.000 A 
ATOM      8  C   UNL     1     102.966 124.033 147.179  0.00  0.00    +0.000 C 
ATOM      9  C   UNL     1     105.428 125.234 148.480  0.00  0.00    +0.000 A 
ATOM     10  C   UNL     1     102.805 124.051 148.023  0.00  0.00    +0.000 C 
ATOM     11  C   UNL     1     104.709 124.952 148.769  0.00  0.00    +0.000 A 
ATOM     12  C   UNL     1     103.399 124.363 148.561  0.00  0.00    +0.000 C 
ATOM     13  C   UNL     1     105.171 124.902 146.338  0.00  0.00    +0.000 C 
ATOM     14  C   UNL     1     105.994 125.533 149.001  0.00  0.00    +0.000 C 
ENDROOT
BRANCH   8  16
ATOM     15  O   UNL     1     100.710 122.842 145.085  0.00  0.00    +0.000 OA
ATOM     16  C   UNL     1     102.402 123.735 146.656  0.00  0.00    +0.000 A 
ATOM     17  C   UNL     1     102.552 123.038 146.241  0.00  0.00    +0.000 A 
ATOM     18  C   UNL     1     101.688 124.135 146.547  0.00  0.00    +0.000 A 
ATOM     19  C   UNL     1     101.988 122.740 145.717  0.00  0.00    +0.000 A 
ATOM     20  C   UNL     1     101.124 123.837 146.024  0.00  0.00    +0.000 A 
ATOM     21  C   UNL     1     101.274 123.140 145.609  0.00  0.00    +0.000 A 
ENDBRANCH   8  16
BRANCH   4  22
ATOM     22  O   UNL     1     106.302 125.499 147.381  0.00  0.00    +0.000 OA
BRANCH  22  31
ATOM     23  O   UNL     1     105.718 126.788 147.176  0.00  0.00    +0.000 OA
ATOM     24  O   UNL     1     107.924 127.680 146.496  0.00  0.00    +0.000 OA
ATOM     25  O   UNL     1     106.606 128.670 146.519  0.00  0.00    +0.000 OA
ATOM     26  O   UNL     1     107.773 126.094 146.927  0.00  0.00    +0.000 OA
ATOM     27  C   UNL     1     107.189 127.382 146.723  0.00  0.00    +0.000 C 
ATOM     28  C   UNL     1     106.529 127.877 146.734  0.00  0.00    +0.000 C 
ATOM     29  C   UNL     1     107.113 126.589 146.939  0.00  0.00    +0.000 C 
ATOM     30  C   UNL     1     105.794 127.580 146.961  0.00  0.00    +0.000 C 
ATOM     31  C   UNL     1     106.378 126.292 147.165  0.00  0.00    +0.000 C 
BRANCH  30  33
ATOM     32  O   UNL     1     104.878 128.405 147.684  0.00  0.00    +0.000 OA
ATOM     33  C   UNL     1     105.135 128.075 146.972  0.00  0.00    +0.000 C 
ENDBRANCH  30  33
ENDBRANCH  22  31
ENDBRANCH   4  22
TORSDOF 4
ENDMDL
MODEL 8
REMARK VINA RESULT:      -9.2      7.485     10.738
REMARK  Name = 42607898
REMARK  4 active torsions:
REMARK  status: ('A' for Active; 'I' for Inactive)
REMARK    1  A    between atoms: O_2  and  C_15
REMARK    2  A    between atoms: O_2  and  C_17
REMARK    3  A    between atoms: C_14  and  C_16
REMARK    4  A    between atoms: C_21  and  C_26
REMARK                            x       y       z     vdW  Elec       q    Type
REMARK                         _______ _______ _______ _____ _____    ______ ____
ROOT
ATOM      1  O   UNL     1     112.660 127.342 137.082  0.00  0.00    +0.000 OA
ATOM      2  O   UNL     1     113.255 129.856 135.776  0.00  0.00    +0.000 OA
ATOM      3  O   UNL     1     114.142 128.736 135.575  0.00  0.00    +0.000 OA
ATOM      4  C   UNL     1     111.611 129.289 137.096  0.00  0.00    +0.000 A 
ATOM      5  C   UNL     1     111.800 128.501 137.250  0.00  0.00    +0.000 A 
ATOM      6  C   UNL     1     112.474 128.164 136.913  0.00  0.00    +0.000 A 
ATOM      7  C   UNL     1     112.959 128.617 136.422  0.00  0.00    +0.000 A 
ATOM      8  C   UNL     1     113.360 126.987 136.734  0.00  0.00    +0.000 C 
ATOM      9  C   UNL     1     112.096 129.740 136.604  0.00  0.00    +0.000 A 
ATOM     10  C   UNL     1     113.865 127.457 136.222  0.00  0.00    +0.000 C 
ATOM     11  C   UNL     1     112.770 129.404 136.267  0.00  0.00    +0.000 A 
ATOM     12  C   UNL     1     113.663 128.278 136.065  0.00  0.00    +0.000 C 
ATOM     13  C   UNL     1     111.315 128.050 137.742  0.00  0.00    +0.000 C 
ATOM     14  C   UNL     1     111.907 130.529 136.450  0.00  0.00    +0.000 C 
ENDROOT
BRANCH   8  16
ATOM     15  O   UNL     1     114.106 123.834 137.359  0.00  0.00    +0.000 OA
ATOM     16  C   UNL     1     113.547 126.198 136.890  0.00  0.00    +0.000 A 
ATOM     17  C   UNL     1     114.089 126.013 137.484  0.00  0.00    +0.000 A 
ATOM     18  C   UNL     1     113.191 125.596 136.454  0.00  0.00    +0.000 A 
ATOM     19  C   UNL     1     114.276 125.224 137.640  0.00  0.00    +0.000 A 
ATOM     20  C   UNL     1     113.377 124.808 136.609  0.00  0.00    +0.000 A 
ATOM     21  C   UNL     1     113.919 124.622 137.202  0.00  0.00    +0.000 A 
ENDBRANCH   8  16
BRANCH   4  22
ATOM     22  O   UNL     1     110.938 129.626 137.433  0.00  0.00    +0.000 OA
BRANCH  22  31
ATOM     23  O   UNL     1     110.119 129.108 136.382  0.00  0.00    +0.000 OA
ATOM     24  O   UNL     1     108.291 130.636 137.054  0.00  0.00    +0.000 OA
ATOM     25  O   UNL     1     108.082 129.610 135.780  0.00  0.00    +0.000 OA
ATOM     26  O   UNL     1     109.719 130.644 137.881  0.00  0.00    +0.000 OA
ATOM     27  C   UNL     1     108.900 130.127 136.830  0.00  0.00    +0.000 C 
ATOM     28  C   UNL     1     108.796 129.613 136.193  0.00  0.00    +0.000 C 
ATOM     29  C   UNL     1     109.615 130.131 137.244  0.00  0.00    +0.000 C 
ATOM     30  C   UNL     1     109.406 129.104 135.969  0.00  0.00    +0.000 C 
ATOM     31  C   UNL     1     110.224 129.622 137.020  0.00  0.00    +0.000 C 
BRANCH  30  33
ATOM     32  O   UNL     1     109.674 128.744 134.612  0.00  0.00    +0.000 OA
ATOM     33  C   UNL     1     109.301 128.591 135.332  0.00  0.00    +0.000 C 
ENDBRANCH  30  33
ENDBRANCH  22  31
ENDBRANCH   4  22
TORSDOF 4
ENDMDL
MODEL 9
REMARK VINA RESULT:      -9.2      7.991      9.324
REMARK  Name = 42607898
REMARK  4 active torsions:
REMARK  status: ('A' for Active; 'I' for Inactive)
REMARK    1  A    between atoms: O_2  and  C_15
REMARK    2  A    between atoms: O_2  and  C_17
REMARK    3  A    between atoms: C_14  and  C_16
REMARK    4  A    between atoms: C_21  and  C_26
REMARK                            x       y       z     vdW  Elec       q    Type
REMARK                         _______ _______ _______ _____ _____    ______ ____
ROOT
ATOM      1  O   UNL     1     110.687 128.024 135.772  0.00  0.00    +0.000 OA
ATOM      2  O   UNL     1     110.359 125.175 135.376  0.00  0.00    +0.000 OA
ATOM      3  O   UNL     1     109.333 126.070 134.897  0.00  0.00    +0.000 OA
ATOM      4  C   UNL     1     111.967 126.307 136.324  0.00  0.00    +0.000 A 
ATOM      5  C   UNL     1     111.688 127.079 136.234  0.00  0.00    +0.000 A 
ATOM      6  C   UNL     1     110.966 127.216 135.859  0.00  0.00    +0.000 A 
ATOM      7  C   UNL     1     110.523 126.581 135.573  0.00  0.00    +0.000 A 
ATOM      8  C   UNL     1     109.936 128.173 135.382  0.00  0.00    +0.000 C 
ATOM      9  C   UNL     1     111.523 125.673 136.037  0.00  0.00    +0.000 A 
ATOM     10  C   UNL     1     109.474 127.512 135.084  0.00  0.00    +0.000 C 
ATOM     11  C   UNL     1     110.802 125.810 135.662  0.00  0.00    +0.000 A 
ATOM     12  C   UNL     1     109.770 126.711 135.180  0.00  0.00    +0.000 C 
ATOM     13  C   UNL     1     112.131 127.713 136.520  0.00  0.00    +0.000 C 
ATOM     14  C   UNL     1     111.803 124.901 136.127  0.00  0.00    +0.000 C 
ENDROOT
BRANCH   8  16
ATOM     15  O   UNL     1     108.831 131.262 135.029  0.00  0.00    +0.000 OA
ATOM     16  C   UNL     1     109.659 128.945 135.294  0.00  0.00    +0.000 A 
ATOM     17  C   UNL     1     109.074 129.234 135.799  0.00  0.00    +0.000 A 
ATOM     18  C   UNL     1     109.968 129.428 134.701  0.00  0.00    +0.000 A 
ATOM     19  C   UNL     1     108.798 130.006 135.711  0.00  0.00    +0.000 A 
ATOM     20  C   UNL     1     109.692 130.201 134.612  0.00  0.00    +0.000 A 
ATOM     21  C   UNL     1     109.107 130.489 135.117  0.00  0.00    +0.000 A 
ENDBRANCH   8  16
BRANCH   4  22
ATOM     22  O   UNL     1     112.689 126.170 136.699  0.00  0.00    +0.000 OA
BRANCH  22  31
ATOM     23  O   UNL     1     112.041 126.169 137.973  0.00  0.00    +0.000 OA
ATOM     24  O   UNL     1     114.247 126.197 139.095  0.00  0.00    +0.000 OA
ATOM     25  O   UNL     1     112.864 126.186 139.994  0.00  0.00    +0.000 OA
ATOM     26  O   UNL     1     114.159 126.189 137.447  0.00  0.00    +0.000 OA
ATOM     27  C   UNL     1     113.511 126.187 138.721  0.00  0.00    +0.000 C 
ATOM     28  C   UNL     1     112.820 126.182 139.170  0.00  0.00    +0.000 C 
ATOM     29  C   UNL     1     113.467 126.184 137.896  0.00  0.00    +0.000 C 
ATOM     30  C   UNL     1     112.084 126.173 138.796  0.00  0.00    +0.000 C 
ATOM     31  C   UNL     1     112.732 126.174 137.522  0.00  0.00    +0.000 C 
BRANCH  30  33
ATOM     32  O   UNL     1     110.928 125.486 139.280  0.00  0.00    +0.000 OA
ATOM     33  C   UNL     1     111.393 126.167 139.246  0.00  0.00    +0.000 C 
ENDBRANCH  30  33
ENDBRANCH  22  31
ENDBRANCH   4  22
TORSDOF 4
ENDMDL
MODEL 10
REMARK VINA RESULT:      -9.1      6.200      8.948
REMARK  Name = 42607898
REMARK  4 active torsions:
REMARK  status: ('A' for Active; 'I' for Inactive)
REMARK    1  A    between atoms: O_2  and  C_15
REMARK    2  A    between atoms: O_2  and  C_17
REMARK    3  A    between atoms: C_14  and  C_16
REMARK    4  A    between atoms: C_21  and  C_26
REMARK                            x       y       z     vdW  Elec       q    Type
REMARK                         _______ _______ _______ _____ _____    ______ ____
ROOT
ATOM      1  O   UNL     1     110.493 127.478 136.668  0.00  0.00    +0.000 OA
ATOM      2  O   UNL     1     108.026 128.703 135.775  0.00  0.00    +0.000 OA
ATOM      3  O   UNL     1     108.135 127.263 135.770  0.00  0.00    +0.000 OA
ATOM      4  C   UNL     1     109.879 129.597 136.504  0.00  0.00    +0.000 A 
ATOM      5  C   UNL     1     110.330 128.921 136.653  0.00  0.00    +0.000 A 
ATOM      6  C   UNL     1     110.013 128.173 136.509  0.00  0.00    +0.000 A 
ATOM      7  C   UNL     1     109.245 128.101 136.216  0.00  0.00    +0.000 A 
ATOM      8  C   UNL     1     110.168 126.697 136.520  0.00  0.00    +0.000 C 
ATOM      9  C   UNL     1     109.111 129.523 136.211  0.00  0.00    +0.000 A 
ATOM     10  C   UNL     1     109.368 126.621 136.215  0.00  0.00    +0.000 C 
ATOM     11  C   UNL     1     108.794 128.775 136.068  0.00  0.00    +0.000 A 
ATOM     12  C   UNL     1     108.904 127.328 136.062  0.00  0.00    +0.000 C 
ATOM     13  C   UNL     1     111.098 128.995 136.945  0.00  0.00    +0.000 C 
ATOM     14  C   UNL     1     108.660 130.198 136.063  0.00  0.00    +0.000 C 
ENDROOT
BRANCH   8  16
ATOM     15  O   UNL     1     111.980 124.005 137.118  0.00  0.00    +0.000 OA
ATOM     16  C   UNL     1     110.621 126.024 136.670  0.00  0.00    +0.000 A 
ATOM     17  C   UNL     1     110.711 125.751 137.443  0.00  0.00    +0.000 A 
ATOM     18  C   UNL     1     110.984 125.624 136.046  0.00  0.00    +0.000 A 
ATOM     19  C   UNL     1     111.164 125.077 137.592  0.00  0.00    +0.000 A 
ATOM     20  C   UNL     1     111.437 124.951 136.195  0.00  0.00    +0.000 A 
ATOM     21  C   UNL     1     111.527 124.678 136.968  0.00  0.00    +0.000 A 
ENDBRANCH   8  16
BRANCH   4  22
ATOM     22  O   UNL     1     110.196 130.345 136.648  0.00  0.00    +0.000 OA
BRANCH  22  31
ATOM     23  O   UNL     1     109.741 130.281 138.001  0.00  0.00    +0.000 OA
ATOM     24  O   UNL     1     110.494 132.611 138.364  0.00  0.00    +0.000 OA
ATOM     25  O   UNL     1     109.788 131.771 139.595  0.00  0.00    +0.000 OA
ATOM     26  O   UNL     1     110.698 131.898 136.890  0.00  0.00    +0.000 OA
ATOM     27  C   UNL     1     110.243 131.834 138.243  0.00  0.00    +0.000 C 
ATOM     28  C   UNL     1     109.890 131.414 138.858  0.00  0.00    +0.000 C 
ATOM     29  C   UNL     1     110.345 131.477 137.505  0.00  0.00    +0.000 C 
ATOM     30  C   UNL     1     109.639 130.637 138.737  0.00  0.00    +0.000 C 
ATOM     31  C   UNL     1     110.094 130.701 137.384  0.00  0.00    +0.000 C 
BRANCH  30  33
ATOM     32  O   UNL     1     108.468 130.105 139.361  0.00  0.00    +0.000 OA
ATOM     33  C   UNL     1     109.286 130.218 139.353  0.00  0.00    +0.000 C 
ENDBRANCH  30  33
ENDBRANCH  22  31
ENDBRANCH   4  22
TORSDOF 4
ENDMDL
