MODEL 1
REMARK VINA RESULT:     -11.0      0.000      0.000
REMARK  Name = 194566
REMARK  4 active torsions:
REMARK  status: ('A' for Active; 'I' for Inactive)
REMARK    1  A    between atoms: O_1  and  C_14
REMARK    2  A    between atoms: O_1  and  C_15
REMARK    3  A    between atoms: C_18  and  C_24
REMARK    4  A    between atoms: C_34  and  C_35
REMARK                            x       y       z     vdW  Elec       q    Type
REMARK                         _______ _______ _______ _____ _____    ______ ____
ROOT
ATOM      1  O   UNL     1     107.564 125.365 147.010  0.00  0.00    +0.000 OA
ATOM      2  O   UNL     1     105.996 124.568 148.751  0.00  0.00    +0.000 OA
ATOM      3  O   UNL     1     107.624 124.486 149.007  0.00  0.00    +0.000 OA
ATOM      4  C   UNL     1     106.227 125.141 147.462  0.00  0.00    +0.000 C 
ATOM      5  C   UNL     1     106.750 125.406 146.882  0.00  0.00    +0.000 C 
ATOM      6  C   UNL     1     106.519 124.834 148.171  0.00  0.00    +0.000 C 
ATOM      7  C   UNL     1     107.855 125.058 147.718  0.00  0.00    +0.000 C 
ATOM      8  C   UNL     1     107.333 124.793 148.299  0.00  0.00    +0.000 C 
ATOM      9  C   UNL     1     108.669 125.017 147.846  0.00  0.00    +0.000 C 
ENDROOT
BRANCH   5  14
ATOM     10  O   UNL     1     106.736 127.037 146.634  0.00  0.00    +0.000 OA
ATOM     11  O   UNL     1     106.182 124.389 145.714  0.00  0.00    +0.000 OA
ATOM     12  O   UNL     1     105.569 126.634 144.016  0.00  0.00    +0.000 OA
ATOM     13  O   UNL     1     106.443 128.188 145.813  0.00  0.00    +0.000 OA
ATOM     14  C   UNL     1     106.458 125.713 146.174  0.00  0.00    +0.000 A 
ATOM     15  C   UNL     1     106.451 126.529 146.050  0.00  0.00    +0.000 A 
ATOM     16  C   UNL     1     106.174 125.204 145.590  0.00  0.00    +0.000 A 
ATOM     17  C   UNL     1     106.160 126.835 145.341  0.00  0.00    +0.000 A 
ATOM     18  C   UNL     1     105.883 125.511 144.882  0.00  0.00    +0.000 A 
ATOM     19  C   UNL     1     105.875 126.327 144.757  0.00  0.00    +0.000 A 
ATOM     20  C   UNL     1     106.158 127.687 145.225  0.00  0.00    +0.000 A 
ATOM     21  C   UNL     1     105.855 128.012 144.488  0.00  0.00    +0.000 A 
ATOM     22  C   UNL     1     105.559 127.483 143.880  0.00  0.00    +0.000 A 
BRANCH  22  24
ATOM     23  O   UNL     1     104.391 128.698 141.044  0.00  0.00    +0.000 OA
ATOM     24  C   UNL     1     105.267 127.787 143.171  0.00  0.00    +0.000 A 
ATOM     25  C   UNL     1     105.477 127.436 142.455  0.00  0.00    +0.000 A 
ATOM     26  C   UNL     1     104.765 128.442 143.179  0.00  0.00    +0.000 A 
ATOM     27  C   UNL     1     105.185 127.740 141.746  0.00  0.00    +0.000 A 
ATOM     28  C   UNL     1     104.473 128.745 142.469  0.00  0.00    +0.000 A 
ATOM     29  C   UNL     1     104.683 128.394 141.753  0.00  0.00    +0.000 A 
ENDBRANCH  22  24
ENDBRANCH   5  14
BRANCH   4  30
ATOM     30  O   UNL     1     105.413 125.182 147.335  0.00  0.00    +0.000 OA
BRANCH  30  35
ATOM     31  O   UNL     1     105.181 126.211 148.298  0.00  0.00    +0.000 OA
ATOM     32  O   UNL     1     103.925 124.545 147.656  0.00  0.00    +0.000 OA
ATOM     33  O   UNL     1     102.949 125.256 148.780  0.00  0.00    +0.000 OA
ATOM     34  O   UNL     1     103.461 126.604 149.583  0.00  0.00    +0.000 OA
ATOM     35  C   UNL     1     104.925 125.538 147.897  0.00  0.00    +0.000 C 
ATOM     36  C   UNL     1     104.182 125.220 148.058  0.00  0.00    +0.000 C 
ATOM     37  C   UNL     1     103.693 125.575 148.619  0.00  0.00    +0.000 C 
ATOM     38  C   UNL     1     103.949 126.248 149.020  0.00  0.00    +0.000 C 
ATOM     39  C   UNL     1     104.693 126.567 148.860  0.00  0.00    +0.000 C 
ATOM     40  C   UNL     1     104.948 127.241 149.261  0.00  0.00    +0.000 C 
ENDBRANCH  30  35
ENDBRANCH   4  30
TORSDOF 4
ENDMDL
MODEL 2
REMARK VINA RESULT:     -10.9      1.866      6.405
REMARK  Name = 194566
REMARK  4 active torsions:
REMARK  status: ('A' for Active; 'I' for Inactive)
REMARK    1  A    between atoms: O_1  and  C_14
REMARK    2  A    between atoms: O_1  and  C_15
REMARK    3  A    between atoms: C_18  and  C_24
REMARK    4  A    between atoms: C_34  and  C_35
REMARK                            x       y       z     vdW  Elec       q    Type
REMARK                         _______ _______ _______ _____ _____    ______ ____
ROOT
ATOM      1  O   UNL     1     105.200 128.168 143.376  0.00  0.00    +0.000 OA
ATOM      2  O   UNL     1     106.726 128.203 141.428  0.00  0.00    +0.000 OA
ATOM      3  O   UNL     1     105.216 128.857 141.306  0.00  0.00    +0.000 OA
ATOM      4  C   UNL     1     106.464 127.852 142.788  0.00  0.00    +0.000 C 
ATOM      5  C   UNL     1     105.955 127.841 143.437  0.00  0.00    +0.000 C 
ATOM      6  C   UNL     1     106.217 128.191 142.077  0.00  0.00    +0.000 C 
ATOM      7  C   UNL     1     104.954 128.506 142.666  0.00  0.00    +0.000 C 
ATOM      8  C   UNL     1     105.462 128.518 142.016  0.00  0.00    +0.000 C 
ATOM      9  C   UNL     1     104.199 128.833 142.605  0.00  0.00    +0.000 C 
ENDROOT
BRANCH   5  14
ATOM     10  O   UNL     1     105.434 126.332 143.856  0.00  0.00    +0.000 OA
ATOM     11  O   UNL     1     106.969 128.671 144.439  0.00  0.00    +0.000 OA
ATOM     12  O   UNL     1     106.959 126.481 146.312  0.00  0.00    +0.000 OA
ATOM     13  O   UNL     1     105.402 125.214 144.768  0.00  0.00    +0.000 OA
ATOM     14  C   UNL     1     106.202 127.501 144.148  0.00  0.00    +0.000 A 
ATOM     15  C   UNL     1     105.941 126.747 144.357  0.00  0.00    +0.000 A 
ATOM     16  C   UNL     1     106.709 127.916 144.650  0.00  0.00    +0.000 A 
ATOM     17  C   UNL     1     106.188 126.408 145.068  0.00  0.00    +0.000 A 
ATOM     18  C   UNL     1     106.955 127.577 145.359  0.00  0.00    +0.000 A 
ATOM     19  C   UNL     1     106.695 126.823 145.569  0.00  0.00    +0.000 A 
ATOM     20  C   UNL     1     105.909 125.622 145.274  0.00  0.00    +0.000 A 
ATOM     21  C   UNL     1     106.163 125.263 146.014  0.00  0.00    +0.000 A 
ATOM     22  C   UNL     1     106.691 125.695 146.536  0.00  0.00    +0.000 A 
BRANCH  22  24
ATOM     23  O   UNL     1     107.685 124.349 149.379  0.00  0.00    +0.000 OA
ATOM     24  C   UNL     1     106.939 125.359 147.247  0.00  0.00    +0.000 A 
ATOM     25  C   UNL     1     107.745 125.283 147.409  0.00  0.00    +0.000 A 
ATOM     26  C   UNL     1     106.382 125.097 147.796  0.00  0.00    +0.000 A 
ATOM     27  C   UNL     1     107.993 124.947 148.119  0.00  0.00    +0.000 A 
ATOM     28  C   UNL     1     106.631 124.760 148.508  0.00  0.00    +0.000 A 
ATOM     29  C   UNL     1     107.437 124.686 148.668  0.00  0.00    +0.000 A 
ENDBRANCH  22  24
ENDBRANCH   5  14
BRANCH   4  30
ATOM     30  O   UNL     1     107.219 127.525 142.849  0.00  0.00    +0.000 OA
BRANCH  30  35
ATOM     31  O   UNL     1     106.959 126.432 141.966  0.00  0.00    +0.000 OA
ATOM     32  O   UNL     1     108.790 127.558 142.347  0.00  0.00    +0.000 OA
ATOM     33  O   UNL     1     109.316 126.481 141.213  0.00  0.00    +0.000 OA
ATOM     34  O   UNL     1     108.271 125.371 140.581  0.00  0.00    +0.000 OA
ATOM     35  C   UNL     1     107.481 126.986 142.282  0.00  0.00    +0.000 C 
ATOM     36  C   UNL     1     108.267 127.003 142.031  0.00  0.00    +0.000 C 
ATOM     37  C   UNL     1     108.531 126.465 141.464  0.00  0.00    +0.000 C 
ATOM     38  C   UNL     1     108.008 125.910 141.149  0.00  0.00    +0.000 C 
ATOM     39  C   UNL     1     107.222 125.894 141.399  0.00  0.00    +0.000 C 
ATOM     40  C   UNL     1     106.700 125.339 141.083  0.00  0.00    +0.000 C 
ENDBRANCH  30  35
ENDBRANCH   4  30
TORSDOF 4
ENDMDL
MODEL 3
REMARK VINA RESULT:     -10.8      8.219     10.119
REMARK  Name = 194566
REMARK  4 active torsions:
REMARK  status: ('A' for Active; 'I' for Inactive)
REMARK    1  A    between atoms: O_1  and  C_14
REMARK    2  A    between atoms: O_1  and  C_15
REMARK    3  A    between atoms: C_18  and  C_24
REMARK    4  A    between atoms: C_34  and  C_35
REMARK                            x       y       z     vdW  Elec       q    Type
REMARK                         _______ _______ _______ _____ _____    ______ ____
ROOT
ATOM      1  O   UNL     1     114.207 129.510 140.102  0.00  0.00    +0.000 OA
ATOM      2  O   UNL     1     112.842 130.043 142.096  0.00  0.00    +0.000 OA
ATOM      3  O   UNL     1     113.978 131.115 141.563  0.00  0.00    +0.000 OA
ATOM      4  C   UNL     1     113.184 129.152 141.033  0.00  0.00    +0.000 C 
ATOM      5  C   UNL     1     113.639 128.975 140.368  0.00  0.00    +0.000 C 
ATOM      6  C   UNL     1     113.297 129.866 141.432  0.00  0.00    +0.000 C 
ATOM      7  C   UNL     1     114.320 130.223 140.500  0.00  0.00    +0.000 C 
ATOM      8  C   UNL     1     113.865 130.402 141.165  0.00  0.00    +0.000 C 
ATOM      9  C   UNL     1     114.888 130.759 140.233  0.00  0.00    +0.000 C 
ENDROOT
BRANCH   5  14
ATOM     10  O   UNL     1     112.791 128.946 138.953  0.00  0.00    +0.000 OA
ATOM     11  O   UNL     1     114.259 127.577 140.987  0.00  0.00    +0.000 OA
ATOM     12  O   UNL     1     113.187 126.085 138.767  0.00  0.00    +0.000 OA
ATOM     13  O   UNL     1     112.238 128.235 137.825  0.00  0.00    +0.000 OA
ATOM     14  C   UNL     1     113.525 128.261 139.970  0.00  0.00    +0.000 A 
ATOM     15  C   UNL     1     113.101 128.247 139.262  0.00  0.00    +0.000 A 
ATOM     16  C   UNL     1     113.835 127.562 140.279  0.00  0.00    +0.000 A 
ATOM     17  C   UNL     1     112.988 127.533 138.863  0.00  0.00    +0.000 A 
ATOM     18  C   UNL     1     113.722 126.849 139.881  0.00  0.00    +0.000 A 
ATOM     19  C   UNL     1     113.298 126.834 139.173  0.00  0.00    +0.000 A 
ATOM     20  C   UNL     1     112.545 127.532 138.127  0.00  0.00    +0.000 A 
ATOM     21  C   UNL     1     112.423 126.791 137.707  0.00  0.00    +0.000 A 
ATOM     22  C   UNL     1     112.746 126.063 138.029  0.00  0.00    +0.000 A 
BRANCH  22  24
ATOM     23  O   UNL     1     112.297 123.204 136.444  0.00  0.00    +0.000 OA
ATOM     24  C   UNL     1     112.634 125.348 137.633  0.00  0.00    +0.000 A 
ATOM     25  C   UNL     1     111.891 124.989 137.633  0.00  0.00    +0.000 A 
ATOM     26  C   UNL     1     113.265 124.993 137.237  0.00  0.00    +0.000 A 
ATOM     27  C   UNL     1     111.779 124.275 137.237  0.00  0.00    +0.000 A 
ATOM     28  C   UNL     1     113.152 124.278 136.841  0.00  0.00    +0.000 A 
ATOM     29  C   UNL     1     112.409 123.919 136.841  0.00  0.00    +0.000 A 
ENDBRANCH  22  24
ENDBRANCH   5  14
BRANCH   4  30
ATOM     30  O   UNL     1     112.615 128.616 141.300  0.00  0.00    +0.000 OA
BRANCH  30  35
ATOM     31  O   UNL     1     111.499 129.441 140.960  0.00  0.00    +0.000 OA
ATOM     32  O   UNL     1     111.766 127.989 142.568  0.00  0.00    +0.000 OA
ATOM     33  O   UNL     1     110.225 128.500 142.862  0.00  0.00    +0.000 OA
ATOM     34  O   UNL     1     109.533 129.638 141.888  0.00  0.00    +0.000 OA
ATOM     35  C   UNL     1     111.845 128.872 141.446  0.00  0.00    +0.000 C 
ATOM     36  C   UNL     1     111.420 128.559 142.080  0.00  0.00    +0.000 C 
ATOM     37  C   UNL     1     110.650 128.814 142.228  0.00  0.00    +0.000 C 
ATOM     38  C   UNL     1     110.304 129.383 141.741  0.00  0.00    +0.000 C 
ATOM     39  C   UNL     1     110.729 129.696 141.107  0.00  0.00    +0.000 C 
ATOM     40  C   UNL     1     110.382 130.266 140.620  0.00  0.00    +0.000 C 
ENDBRANCH  30  35
ENDBRANCH   4  30
TORSDOF 4
ENDMDL
MODEL 4
REMARK VINA RESULT:     -10.8      9.124     11.021
REMARK  Name = 194566
REMARK  4 active torsions:
REMARK  status: ('A' for Active; 'I' for Inactive)
REMARK    1  A    between atoms: O_1  and  C_14
REMARK    2  A    between atoms: O_1  and  C_15
REMARK    3  A    between atoms: C_18  and  C_24
REMARK    4  A    between atoms: C_34  and  C_35
REMARK                            x       y       z     vdW  Elec       q    Type
REMARK                         _______ _______ _______ _____ _____    ______ ____
ROOT
ATOM      1  O   UNL     1     113.476 125.615 137.388  0.00  0.00    +0.000 OA
ATOM      2  O   UNL     1     111.205 124.647 137.568  0.00  0.00    +0.000 OA
ATOM      3  O   UNL     1     112.364 123.875 136.683  0.00  0.00    +0.000 OA
ATOM      4  C   UNL     1     112.139 125.679 137.890  0.00  0.00    +0.000 C 
ATOM      5  C   UNL     1     112.896 126.001 137.830  0.00  0.00    +0.000 C 
ATOM      6  C   UNL     1     111.962 124.970 137.507  0.00  0.00    +0.000 C 
ATOM      7  C   UNL     1     113.298 124.907 137.005  0.00  0.00    +0.000 C 
ATOM      8  C   UNL     1     112.541 124.583 137.065  0.00  0.00    +0.000 C 
ATOM      9  C   UNL     1     113.877 124.520 136.563  0.00  0.00    +0.000 C 
ENDROOT
BRANCH   5  14
ATOM     10  O   UNL     1     113.239 126.005 139.444  0.00  0.00    +0.000 OA
ATOM     11  O   UNL     1     112.908 127.416 136.981  0.00  0.00    +0.000 OA
ATOM     12  O   UNL     1     113.611 128.874 139.365  0.00  0.00    +0.000 OA
ATOM     13  O   UNL     1     113.591 126.698 140.660  0.00  0.00    +0.000 OA
ATOM     14  C   UNL     1     113.074 126.711 138.213  0.00  0.00    +0.000 A 
ATOM     15  C   UNL     1     113.245 126.712 139.020  0.00  0.00    +0.000 A 
ATOM     16  C   UNL     1     113.080 127.419 137.789  0.00  0.00    +0.000 A 
ATOM     17  C   UNL     1     113.422 127.422 139.403  0.00  0.00    +0.000 A 
ATOM     18  C   UNL     1     113.257 128.127 138.171  0.00  0.00    +0.000 A 
ATOM     19  C   UNL     1     113.428 128.129 138.978  0.00  0.00    +0.000 A 
ATOM     20  C   UNL     1     113.599 127.409 140.244  0.00  0.00    +0.000 A 
ATOM     21  C   UNL     1     113.785 128.146 140.648  0.00  0.00    +0.000 A 
ATOM     22  C   UNL     1     113.791 128.882 140.206  0.00  0.00    +0.000 A 
BRANCH  22  24
ATOM     23  O   UNL     1     114.500 131.724 141.726  0.00  0.00    +0.000 OA
ATOM     24  C   UNL     1     113.968 129.593 140.586  0.00  0.00    +0.000 A 
ATOM     25  C   UNL     1     114.701 129.953 140.467  0.00  0.00    +0.000 A 
ATOM     26  C   UNL     1     113.412 129.943 141.085  0.00  0.00    +0.000 A 
ATOM     27  C   UNL     1     114.878 130.662 140.847  0.00  0.00    +0.000 A 
ATOM     28  C   UNL     1     113.590 130.654 141.465  0.00  0.00    +0.000 A 
ATOM     29  C   UNL     1     114.323 131.013 141.346  0.00  0.00    +0.000 A 
ENDBRANCH  22  24
ENDBRANCH   5  14
BRANCH   4  30
ATOM     30  O   UNL     1     111.560 126.066 138.333  0.00  0.00    +0.000 OA
BRANCH  30  35
ATOM     31  O   UNL     1     110.762 126.397 137.194  0.00  0.00    +0.000 OA
ATOM     32  O   UNL     1     110.204 126.031 139.272  0.00  0.00    +0.000 OA
ATOM     33  O   UNL     1     108.729 126.345 138.604  0.00  0.00    +0.000 OA
ATOM     34  O   UNL     1     108.609 126.694 136.995  0.00  0.00    +0.000 OA
ATOM     35  C   UNL     1     110.822 126.223 137.998  0.00  0.00    +0.000 C 
ATOM     36  C   UNL     1     110.144 126.206 138.467  0.00  0.00    +0.000 C 
ATOM     37  C   UNL     1     109.407 126.363 138.134  0.00  0.00    +0.000 C 
ATOM     38  C   UNL     1     109.347 126.537 137.330  0.00  0.00    +0.000 C 
ATOM     39  C   UNL     1     110.025 126.554 136.860  0.00  0.00    +0.000 C 
ATOM     40  C   UNL     1     109.965 126.729 136.056  0.00  0.00    +0.000 C 
ENDBRANCH  30  35
ENDBRANCH   4  30
TORSDOF 4
ENDMDL
MODEL 5
REMARK VINA RESULT:     -10.7      7.755     10.331
REMARK  Name = 194566
REMARK  4 active torsions:
REMARK  status: ('A' for Active; 'I' for Inactive)
REMARK    1  A    between atoms: O_1  and  C_14
REMARK    2  A    between atoms: O_1  and  C_15
REMARK    3  A    between atoms: C_18  and  C_24
REMARK    4  A    between atoms: C_34  and  C_35
REMARK                            x       y       z     vdW  Elec       q    Type
REMARK                         _______ _______ _______ _____ _____    ______ ____
ROOT
ATOM      1  O   UNL     1     110.355 130.808 141.747  0.00  0.00    +0.000 OA
ATOM      2  O   UNL     1     112.143 130.599 140.048  0.00  0.00    +0.000 OA
ATOM      3  O   UNL     1     110.559 130.483 139.599  0.00  0.00    +0.000 OA
ATOM      4  C   UNL     1     111.743 130.796 141.406  0.00  0.00    +0.000 C 
ATOM      5  C   UNL     1     111.147 130.866 141.972  0.00  0.00    +0.000 C 
ATOM      6  C   UNL     1     111.547 130.669 140.614  0.00  0.00    +0.000 C 
ATOM      7  C   UNL     1     110.160 130.680 140.956  0.00  0.00    +0.000 C 
ATOM      8  C   UNL     1     110.755 130.611 140.389  0.00  0.00    +0.000 C 
ATOM      9  C   UNL     1     109.368 130.622 140.732  0.00  0.00    +0.000 C 
ENDROOT
BRANCH   5  14
ATOM     10  O   UNL     1     111.530 132.384 142.492  0.00  0.00    +0.000 OA
ATOM     11  O   UNL     1     111.155 129.604 143.034  0.00  0.00    +0.000 OA
ATOM     12  O   UNL     1     111.937 131.370 145.172  0.00  0.00    +0.000 OA
ATOM     13  O   UNL     1     111.922 133.302 143.535  0.00  0.00    +0.000 OA
ATOM     14  C   UNL     1     111.343 130.994 142.764  0.00  0.00    +0.000 A 
ATOM     15  C   UNL     1     111.535 131.753 143.023  0.00  0.00    +0.000 A 
ATOM     16  C   UNL     1     111.347 130.363 143.295  0.00  0.00    +0.000 A 
ATOM     17  C   UNL     1     111.731 131.881 143.815  0.00  0.00    +0.000 A 
ATOM     18  C   UNL     1     111.543 130.491 144.085  0.00  0.00    +0.000 A 
ATOM     19  C   UNL     1     111.735 131.250 144.346  0.00  0.00    +0.000 A 
ATOM     20  C   UNL     1     111.929 132.677 144.072  0.00  0.00    +0.000 A 
ATOM     21  C   UNL     1     112.134 132.816 144.896  0.00  0.00    +0.000 A 
ATOM     22  C   UNL     1     112.138 132.159 145.449  0.00  0.00    +0.000 A 
BRANCH  22  24
ATOM     23  O   UNL     1     112.922 132.659 148.615  0.00  0.00    +0.000 OA
ATOM     24  C   UNL     1     112.334 132.284 146.241  0.00  0.00    +0.000 A 
ATOM     25  C   UNL     1     113.050 132.003 146.538  0.00  0.00    +0.000 A 
ATOM     26  C   UNL     1     111.813 132.690 146.735  0.00  0.00    +0.000 A 
ATOM     27  C   UNL     1     113.246 132.128 147.328  0.00  0.00    +0.000 A 
ATOM     28  C   UNL     1     112.009 132.815 147.527  0.00  0.00    +0.000 A 
ATOM     29  C   UNL     1     112.726 132.534 147.823  0.00  0.00    +0.000 A 
ENDBRANCH  22  24
ENDBRANCH   5  14
BRANCH   4  30
ATOM     30  O   UNL     1     112.534 130.855 141.631  0.00  0.00    +0.000 OA
BRANCH  30  35
ATOM     31  O   UNL     1     112.859 129.492 141.346  0.00  0.00    +0.000 OA
ATOM     32  O   UNL     1     114.057 131.310 141.188  0.00  0.00    +0.000 OA
ATOM     33  O   UNL     1     115.144 130.176 140.682  0.00  0.00    +0.000 OA
ATOM     34  O   UNL     1     114.707 128.586 140.619  0.00  0.00    +0.000 OA
ATOM     35  C   UNL     1     113.077 130.287 141.378  0.00  0.00    +0.000 C 
ATOM     36  C   UNL     1     113.839 130.515 141.156  0.00  0.00    +0.000 C 
ATOM     37  C   UNL     1     114.382 129.948 140.903  0.00  0.00    +0.000 C 
ATOM     38  C   UNL     1     114.163 129.154 140.872  0.00  0.00    +0.000 C 
ATOM     39  C   UNL     1     113.402 128.926 141.093  0.00  0.00    +0.000 C 
ATOM     40  C   UNL     1     113.185 128.130 141.062  0.00  0.00    +0.000 C 
ENDBRANCH  30  35
ENDBRANCH   4  30
TORSDOF 4
ENDMDL
MODEL 6
REMARK VINA RESULT:     -10.7      9.975     11.970
REMARK  Name = 194566
REMARK  4 active torsions:
REMARK  status: ('A' for Active; 'I' for Inactive)
REMARK    1  A    between atoms: O_1  and  C_14
REMARK    2  A    between atoms: O_1  and  C_15
REMARK    3  A    between atoms: C_18  and  C_24
REMARK    4  A    between atoms: C_34  and  C_35
REMARK                            x       y       z     vdW  Elec       q    Type
REMARK                         _______ _______ _______ _____ _____    ______ ____
ROOT
ATOM      1  O   UNL     1     113.255 130.205 136.923  0.00  0.00    +0.000 OA
ATOM      2  O   UNL     1     111.388 131.557 137.825  0.00  0.00    +0.000 OA
ATOM      3  O   UNL     1     112.672 132.301 137.103  0.00  0.00    +0.000 OA
ATOM      4  C   UNL     1     111.991 130.284 137.585  0.00  0.00    +0.000 C 
ATOM      5  C   UNL     1     112.613 129.833 137.284  0.00  0.00    +0.000 C 
ATOM      6  C   UNL     1     112.010 131.107 137.525  0.00  0.00    +0.000 C 
ATOM      7  C   UNL     1     113.274 131.027 136.863  0.00  0.00    +0.000 C 
ATOM      8  C   UNL     1     112.652 131.479 137.163  0.00  0.00    +0.000 C 
ATOM      9  C   UNL     1     113.916 131.399 136.502  0.00  0.00    +0.000 C 
ENDROOT
BRANCH   5  14
ATOM     10  O   UNL     1     112.202 128.920 135.973  0.00  0.00    +0.000 OA
ATOM     11  O   UNL     1     112.983 129.102 138.716  0.00  0.00    +0.000 OA
ATOM     12  O   UNL     1     112.536 126.510 137.542  0.00  0.00    +0.000 OA
ATOM     13  O   UNL     1     111.969 127.640 135.348  0.00  0.00    +0.000 OA
ATOM     14  C   UNL     1     112.593 129.010 137.345  0.00  0.00    +0.000 A 
ATOM     15  C   UNL     1     112.388 128.554 136.689  0.00  0.00    +0.000 A 
ATOM     16  C   UNL     1     112.778 128.645 138.061  0.00  0.00    +0.000 A 
ATOM     17  C   UNL     1     112.368 127.731 136.750  0.00  0.00    +0.000 A 
ATOM     18  C   UNL     1     112.758 127.823 138.121  0.00  0.00    +0.000 A 
ATOM     19  C   UNL     1     112.553 127.365 137.466  0.00  0.00    +0.000 A 
ATOM     20  C   UNL     1     112.152 127.267 136.059  0.00  0.00    +0.000 A 
ATOM     21  C   UNL     1     112.130 126.409 136.117  0.00  0.00    +0.000 A 
ATOM     22  C   UNL     1     112.323 126.028 136.862  0.00  0.00    +0.000 A 
BRANCH  22  24
ATOM     23  O   UNL     1     112.245 122.739 137.116  0.00  0.00    +0.000 OA
ATOM     24  C   UNL     1     112.304 125.206 136.925  0.00  0.00    +0.000 A 
ATOM     25  C   UNL     1     111.612 124.827 137.169  0.00  0.00    +0.000 A 
ATOM     26  C   UNL     1     112.976 124.762 136.746  0.00  0.00    +0.000 A 
ATOM     27  C   UNL     1     111.593 124.005 137.232  0.00  0.00    +0.000 A 
ATOM     28  C   UNL     1     112.956 123.939 136.809  0.00  0.00    +0.000 A 
ATOM     29  C   UNL     1     112.264 123.561 137.052  0.00  0.00    +0.000 A 
ENDBRANCH  22  24
ENDBRANCH   5  14
BRANCH   4  30
ATOM     30  O   UNL     1     111.349 129.912 137.946  0.00  0.00    +0.000 OA
BRANCH  30  35
ATOM     31  O   UNL     1     110.419 130.249 136.915  0.00  0.00    +0.000 OA
ATOM     32  O   UNL     1     110.132 129.965 139.060  0.00  0.00    +0.000 OA
ATOM     33  O   UNL     1     108.594 130.329 138.585  0.00  0.00    +0.000 OA
ATOM     34  O   UNL     1     108.273 130.639 136.997  0.00  0.00    +0.000 OA
ATOM     35  C   UNL     1     110.580 130.094 137.708  0.00  0.00    +0.000 C 
ATOM     36  C   UNL     1     109.972 130.120 138.265  0.00  0.00    +0.000 C 
ATOM     37  C   UNL     1     109.203 130.302 138.028  0.00  0.00    +0.000 C 
ATOM     38  C   UNL     1     109.043 130.457 137.234  0.00  0.00    +0.000 C 
ATOM     39  C   UNL     1     109.651 130.431 136.677  0.00  0.00    +0.000 C 
ATOM     40  C   UNL     1     109.489 130.586 135.883  0.00  0.00    +0.000 C 
ENDBRANCH  30  35
ENDBRANCH   4  30
TORSDOF 4
ENDMDL
MODEL 7
REMARK VINA RESULT:     -10.6      8.997     11.342
REMARK  Name = 194566
REMARK  4 active torsions:
REMARK  status: ('A' for Active; 'I' for Inactive)
REMARK    1  A    between atoms: O_1  and  C_14
REMARK    2  A    between atoms: O_1  and  C_15
REMARK    3  A    between atoms: C_18  and  C_24
REMARK    4  A    between atoms: C_34  and  C_35
REMARK                            x       y       z     vdW  Elec       q    Type
REMARK                         _______ _______ _______ _____ _____    ______ ____
ROOT
ATOM      1  O   UNL     1     109.251 130.306 135.451  0.00  0.00    +0.000 OA
ATOM      2  O   UNL     1     108.247 131.419 137.420  0.00  0.00    +0.000 OA
ATOM      3  O   UNL     1     108.104 132.101 135.925  0.00  0.00    +0.000 OA
ATOM      4  C   UNL     1     108.988 130.335 136.856  0.00  0.00    +0.000 C 
ATOM      5  C   UNL     1     109.322 129.965 136.199  0.00  0.00    +0.000 C 
ATOM      6  C   UNL     1     108.581 131.048 136.764  0.00  0.00    +0.000 C 
ATOM      7  C   UNL     1     108.845 131.017 135.360  0.00  0.00    +0.000 C 
ATOM      8  C   UNL     1     108.510 131.389 136.016  0.00  0.00    +0.000 C 
ATOM      9  C   UNL     1     108.774 131.358 134.612  0.00  0.00    +0.000 C 
ENDROOT
BRANCH   5  14
ATOM     10  O   UNL     1     108.486 128.548 136.321  0.00  0.00    +0.000 OA
ATOM     11  O   UNL     1     110.971 129.957 136.261  0.00  0.00    +0.000 OA
ATOM     12  O   UNL     1     110.976 127.093 136.570  0.00  0.00    +0.000 OA
ATOM     13  O   UNL     1     108.445 127.113 136.474  0.00  0.00    +0.000 OA
ATOM     14  C   UNL     1     109.729 129.252 136.291  0.00  0.00    +0.000 A 
ATOM     15  C   UNL     1     109.310 128.544 136.352  0.00  0.00    +0.000 A 
ATOM     16  C   UNL     1     110.553 129.248 136.322  0.00  0.00    +0.000 A 
ATOM     17  C   UNL     1     109.717 127.831 136.444  0.00  0.00    +0.000 A 
ATOM     18  C   UNL     1     110.959 128.536 136.413  0.00  0.00    +0.000 A 
ATOM     19  C   UNL     1     110.541 127.827 136.474  0.00  0.00    +0.000 A 
ATOM     20  C   UNL     1     109.269 127.101 136.506  0.00  0.00    +0.000 A 
ATOM     21  C   UNL     1     109.687 126.355 136.602  0.00  0.00    +0.000 A 
ATOM     22  C   UNL     1     110.545 126.351 136.634  0.00  0.00    +0.000 A 
BRANCH  22  24
ATOM     23  O   UNL     1     112.180 123.508 137.002  0.00  0.00    +0.000 OA
ATOM     24  C   UNL     1     110.954 125.640 136.725  0.00  0.00    +0.000 A 
ATOM     25  C   UNL     1     111.152 125.373 137.480  0.00  0.00    +0.000 A 
ATOM     26  C   UNL     1     111.164 125.197 136.062  0.00  0.00    +0.000 A 
ATOM     27  C   UNL     1     111.561 124.663 137.572  0.00  0.00    +0.000 A 
ATOM     28  C   UNL     1     111.573 124.486 136.155  0.00  0.00    +0.000 A 
ATOM     29  C   UNL     1     111.771 124.219 136.910  0.00  0.00    +0.000 A 
ENDBRANCH  22  24
ENDBRANCH   5  14
BRANCH   4  30
ATOM     30  O   UNL     1     109.059 129.995 137.603  0.00  0.00    +0.000 OA
BRANCH  30  35
ATOM     31  O   UNL     1     109.872 131.056 138.109  0.00  0.00    +0.000 OA
ATOM     32  O   UNL     1     108.522 129.678 139.131  0.00  0.00    +0.000 OA
ATOM     33  O   UNL     1     109.066 130.581 140.401  0.00  0.00    +0.000 OA
ATOM     34  O   UNL     1     110.147 131.800 140.143  0.00  0.00    +0.000 OA
ATOM     35  C   UNL     1     109.332 130.446 138.238  0.00  0.00    +0.000 C 
ATOM     36  C   UNL     1     109.063 130.288 139.002  0.00  0.00    +0.000 C 
ATOM     37  C   UNL     1     109.334 130.739 139.637  0.00  0.00    +0.000 C 
ATOM     38  C   UNL     1     109.875 131.349 139.507  0.00  0.00    +0.000 C 
ATOM     39  C   UNL     1     110.143 131.507 138.743  0.00  0.00    +0.000 C 
ATOM     40  C   UNL     1     110.684 132.117 138.615  0.00  0.00    +0.000 C 
ENDBRANCH  30  35
ENDBRANCH   4  30
TORSDOF 4
ENDMDL
MODEL 8
REMARK VINA RESULT:     -10.6      8.955     11.408
REMARK  Name = 194566
REMARK  4 active torsions:
REMARK  status: ('A' for Active; 'I' for Inactive)
REMARK    1  A    between atoms: O_1  and  C_14
REMARK    2  A    between atoms: O_1  and  C_15
REMARK    3  A    between atoms: C_18  and  C_24
REMARK    4  A    between atoms: C_34  and  C_35
REMARK                            x       y       z     vdW  Elec       q    Type
REMARK                         _______ _______ _______ _____ _____    ______ ____
ROOT
ATOM      1  O   UNL     1     110.586 126.678 135.481  0.00  0.00    +0.000 OA
ATOM      2  O   UNL     1     112.020 125.348 136.998  0.00  0.00    +0.000 OA
ATOM      3  O   UNL     1     111.058 124.588 135.894  0.00  0.00    +0.000 OA
ATOM      4  C   UNL     1     111.545 126.615 136.539  0.00  0.00    +0.000 C 
ATOM      5  C   UNL     1     111.067 127.058 136.034  0.00  0.00    +0.000 C 
ATOM      6  C   UNL     1     111.542 125.791 136.493  0.00  0.00    +0.000 C 
ATOM      7  C   UNL     1     110.583 125.855 135.435  0.00  0.00    +0.000 C 
ATOM      8  C   UNL     1     111.061 125.411 135.940  0.00  0.00    +0.000 C 
ATOM      9  C   UNL     1     110.103 125.475 134.883  0.00  0.00    +0.000 C 
ENDROOT
BRANCH   5  14
ATOM     10  O   UNL     1     109.827 127.846 136.786  0.00  0.00    +0.000 OA
ATOM     11  O   UNL     1     112.311 127.918 135.374  0.00  0.00    +0.000 OA
ATOM     12  O   UNL     1     111.090 130.388 136.216  0.00  0.00    +0.000 OA
ATOM     13  O   UNL     1     109.183 129.061 137.225  0.00  0.00    +0.000 OA
ATOM     14  C   UNL     1     111.070 127.883 136.080  0.00  0.00    +0.000 A 
ATOM     15  C   UNL     1     110.450 128.276 136.457  0.00  0.00    +0.000 A 
ATOM     16  C   UNL     1     111.692 128.312 135.751  0.00  0.00    +0.000 A 
ATOM     17  C   UNL     1     110.453 129.100 136.503  0.00  0.00    +0.000 A 
ATOM     18  C   UNL     1     111.694 129.135 135.798  0.00  0.00    +0.000 A 
ATOM     19  C   UNL     1     111.075 129.530 136.174  0.00  0.00    +0.000 A 
ATOM     20  C   UNL     1     109.801 129.498 136.898  0.00  0.00    +0.000 A 
ATOM     21  C   UNL     1     109.799 130.356 136.950  0.00  0.00    +0.000 A 
ATOM     22  C   UNL     1     110.447 130.804 136.607  0.00  0.00    +0.000 A 
BRANCH  22  24
ATOM     23  O   UNL     1     110.467 134.099 136.787  0.00  0.00    +0.000 OA
ATOM     24  C   UNL     1     110.452 131.628 136.652  0.00  0.00    +0.000 A 
ATOM     25  C   UNL     1     109.981 132.072 136.141  0.00  0.00    +0.000 A 
ATOM     26  C   UNL     1     110.929 132.007 137.209  0.00  0.00    +0.000 A 
ATOM     27  C   UNL     1     109.986 132.895 136.186  0.00  0.00    +0.000 A 
ATOM     28  C   UNL     1     110.933 132.832 137.253  0.00  0.00    +0.000 A 
ATOM     29  C   UNL     1     110.462 133.275 136.742  0.00  0.00    +0.000 A 
ENDBRANCH  22  24
ENDBRANCH   5  14
BRANCH   4  30
ATOM     30  O   UNL     1     112.025 126.996 137.092  0.00  0.00    +0.000 OA
BRANCH  30  35
ATOM     31  O   UNL     1     111.277 126.555 138.226  0.00  0.00    +0.000 OA
ATOM     32  O   UNL     1     113.403 126.993 137.999  0.00  0.00    +0.000 OA
ATOM     33  O   UNL     1     113.344 126.550 139.588  0.00  0.00    +0.000 OA
ATOM     34  O   UNL     1     111.906 126.111 140.269  0.00  0.00    +0.000 OA
ATOM     35  C   UNL     1     111.995 126.774 137.886  0.00  0.00    +0.000 C 
ATOM     36  C   UNL     1     112.684 126.773 138.340  0.00  0.00    +0.000 C 
ATOM     37  C   UNL     1     112.655 126.552 139.134  0.00  0.00    +0.000 C 
ATOM     38  C   UNL     1     111.936 126.332 139.474  0.00  0.00    +0.000 C 
ATOM     39  C   UNL     1     111.247 126.334 139.020  0.00  0.00    +0.000 C 
ATOM     40  C   UNL     1     110.529 126.114 139.361  0.00  0.00    +0.000 C 
ENDBRANCH  30  35
ENDBRANCH   4  30
TORSDOF 4
ENDMDL
MODEL 9
REMARK VINA RESULT:     -10.6      9.020     11.214
REMARK  Name = 194566
REMARK  4 active torsions:
REMARK  status: ('A' for Active; 'I' for Inactive)
REMARK    1  A    between atoms: O_1  and  C_14
REMARK    2  A    between atoms: O_1  and  C_15
REMARK    3  A    between atoms: C_18  and  C_24
REMARK    4  A    between atoms: C_34  and  C_35
REMARK                            x       y       z     vdW  Elec       q    Type
REMARK                         _______ _______ _______ _____ _____    ______ ____
ROOT
ATOM      1  O   UNL     1     113.632 126.343 136.369  0.00  0.00    +0.000 OA
ATOM      2  O   UNL     1     113.543 125.304 138.613  0.00  0.00    +0.000 OA
ATOM      3  O   UNL     1     114.816 124.993 137.610  0.00  0.00    +0.000 OA
ATOM      4  C   UNL     1     112.966 126.152 137.618  0.00  0.00    +0.000 C 
ATOM      5  C   UNL     1     112.996 126.498 136.870  0.00  0.00    +0.000 C 
ATOM      6  C   UNL     1     113.573 125.650 137.865  0.00  0.00    +0.000 C 
ATOM      7  C   UNL     1     114.238 125.842 136.615  0.00  0.00    +0.000 C 
ATOM      8  C   UNL     1     114.209 125.495 137.363  0.00  0.00    +0.000 C 
ATOM      9  C   UNL     1     114.875 125.686 136.113  0.00  0.00    +0.000 C 
ENDROOT
BRANCH   5  14
ATOM     10  O   UNL     1     113.212 128.134 136.907  0.00  0.00    +0.000 OA
ATOM     11  O   UNL     1     111.566 125.867 136.341  0.00  0.00    +0.000 OA
ATOM     12  O   UNL     1     110.536 128.516 135.872  0.00  0.00    +0.000 OA
ATOM     13  O   UNL     1     112.733 129.477 136.686  0.00  0.00    +0.000 OA
ATOM     14  C   UNL     1     112.389 127.000 136.624  0.00  0.00    +0.000 A 
ATOM     15  C   UNL     1     112.497 127.818 136.642  0.00  0.00    +0.000 A 
ATOM     16  C   UNL     1     111.674 126.685 136.359  0.00  0.00    +0.000 A 
ATOM     17  C   UNL     1     111.890 128.320 136.396  0.00  0.00    +0.000 A 
ATOM     18  C   UNL     1     111.068 127.186 136.113  0.00  0.00    +0.000 A 
ATOM     19  C   UNL     1     111.175 128.004 136.131  0.00  0.00    +0.000 A 
ATOM     20  C   UNL     1     112.016 129.170 136.420  0.00  0.00    +0.000 A 
ATOM     21  C   UNL     1     111.387 129.698 136.164  0.00  0.00    +0.000 A 
ATOM     22  C   UNL     1     110.642 129.369 135.889  0.00  0.00    +0.000 A 
BRANCH  22  24
ATOM     23  O   UNL     1     108.210 131.367 134.900  0.00  0.00    +0.000 OA
ATOM     24  C   UNL     1     110.034 129.869 135.642  0.00  0.00    +0.000 A 
ATOM     25  C   UNL     1     110.005 130.127 134.859  0.00  0.00    +0.000 A 
ATOM     26  C   UNL     1     109.455 130.110 136.178  0.00  0.00    +0.000 A 
ATOM     27  C   UNL     1     109.397 130.626 134.612  0.00  0.00    +0.000 A 
ATOM     28  C   UNL     1     108.847 130.610 135.930  0.00  0.00    +0.000 A 
ATOM     29  C   UNL     1     108.818 130.868 135.147  0.00  0.00    +0.000 A 
ENDBRANCH  22  24
ENDBRANCH   5  14
BRANCH   4  30
ATOM     30  O   UNL     1     112.329 126.307 138.120  0.00  0.00    +0.000 OA
BRANCH  30  35
ATOM     31  O   UNL     1     113.091 127.052 139.073  0.00  0.00    +0.000 OA
ATOM     32  O   UNL     1     111.354 125.755 139.331  0.00  0.00    +0.000 OA
ATOM     33  O   UNL     1     111.627 126.224 140.889  0.00  0.00    +0.000 OA
ATOM     34  O   UNL     1     112.876 127.245 141.236  0.00  0.00    +0.000 OA
ATOM     35  C   UNL     1     112.467 126.542 138.899  0.00  0.00    +0.000 C 
ATOM     36  C   UNL     1     111.979 126.266 139.504  0.00  0.00    +0.000 C 
ATOM     37  C   UNL     1     112.115 126.500 140.284  0.00  0.00    +0.000 C 
ATOM     38  C   UNL     1     112.740 127.010 140.457  0.00  0.00    +0.000 C 
ATOM     39  C   UNL     1     113.227 127.286 139.851  0.00  0.00    +0.000 C 
ATOM     40  C   UNL     1     113.852 127.797 140.026  0.00  0.00    +0.000 C 
ENDBRANCH  30  35
ENDBRANCH   4  30
TORSDOF 4
ENDMDL
MODEL 10
REMARK VINA RESULT:     -10.5      1.313      2.128
REMARK  Name = 194566
REMARK  4 active torsions:
REMARK  status: ('A' for Active; 'I' for Inactive)
REMARK    1  A    between atoms: O_1  and  C_14
REMARK    2  A    between atoms: O_1  and  C_15
REMARK    3  A    between atoms: C_18  and  C_24
REMARK    4  A    between atoms: C_34  and  C_35
REMARK                            x       y       z     vdW  Elec       q    Type
REMARK                         _______ _______ _______ _____ _____    ______ ____
ROOT
ATOM      1  O   UNL     1     106.820 125.677 147.012  0.00  0.00    +0.000 OA
ATOM      2  O   UNL     1     104.984 124.437 148.114  0.00  0.00    +0.000 OA
ATOM      3  O   UNL     1     106.548 124.177 148.573  0.00  0.00    +0.000 OA
ATOM      4  C   UNL     1     105.426 125.394 147.150  0.00  0.00    +0.000 C 
ATOM      5  C   UNL     1     106.039 125.808 146.783  0.00  0.00    +0.000 C 
ATOM      6  C   UNL     1     105.596 124.850 147.747  0.00  0.00    +0.000 C 
ATOM      7  C   UNL     1     106.990 125.134 147.609  0.00  0.00    +0.000 C 
ATOM      8  C   UNL     1     106.378 124.720 147.976  0.00  0.00    +0.000 C 
ATOM      9  C   UNL     1     107.772 125.004 147.838  0.00  0.00    +0.000 C 
ENDROOT
BRANCH   5  14
ATOM     10  O   UNL     1     106.326 125.417 145.205  0.00  0.00    +0.000 OA
ATOM     11  O   UNL     1     105.412 127.285 147.166  0.00  0.00    +0.000 OA
ATOM     12  O   UNL     1     105.348 128.013 144.379  0.00  0.00    +0.000 OA
ATOM     13  O   UNL     1     106.310 125.744 143.800  0.00  0.00    +0.000 OA
ATOM     14  C   UNL     1     105.869 126.352 146.185  0.00  0.00    +0.000 A 
ATOM     15  C   UNL     1     106.013 126.156 145.397  0.00  0.00    +0.000 A 
ATOM     16  C   UNL     1     105.555 127.090 146.377  0.00  0.00    +0.000 A 
ATOM     17  C   UNL     1     105.842 126.700 144.800  0.00  0.00    +0.000 A 
ATOM     18  C   UNL     1     105.386 127.633 145.780  0.00  0.00    +0.000 A 
ATOM     19  C   UNL     1     105.529 127.439 144.991  0.00  0.00    +0.000 A 
ATOM     20  C   UNL     1     105.997 126.484 143.982  0.00  0.00    +0.000 A 
ATOM     21  C   UNL     1     105.822 127.047 143.356  0.00  0.00    +0.000 A 
ATOM     22  C   UNL     1     105.495 127.816 143.555  0.00  0.00    +0.000 A 
BRANCH  22  24
ATOM     23  O   UNL     1     104.811 129.997 141.176  0.00  0.00    +0.000 OA
ATOM     24  C   UNL     1     105.325 128.361 142.960  0.00  0.00    +0.000 A 
ATOM     25  C   UNL     1     104.569 128.387 142.629  0.00  0.00    +0.000 A 
ATOM     26  C   UNL     1     105.909 128.881 142.697  0.00  0.00    +0.000 A 
ATOM     27  C   UNL     1     104.398 128.932 142.035  0.00  0.00    +0.000 A 
ATOM     28  C   UNL     1     105.737 129.426 142.101  0.00  0.00    +0.000 A 
ATOM     29  C   UNL     1     104.982 129.451 141.771  0.00  0.00    +0.000 A 
ENDBRANCH  22  24
ENDBRANCH   5  14
BRANCH   4  30
ATOM     30  O   UNL     1     104.645 125.524 146.920  0.00  0.00    +0.000 OA
BRANCH  30  35
ATOM     31  O   UNL     1     104.451 124.267 146.269  0.00  0.00    +0.000 OA
ATOM     32  O   UNL     1     103.088 125.481 147.466  0.00  0.00    +0.000 OA
ATOM     33  O   UNL     1     102.116 124.203 147.087  0.00  0.00    +0.000 OA
ATOM     34  O   UNL     1     102.701 122.967 146.163  0.00  0.00    +0.000 OA
ATOM     35  C   UNL     1     104.159 124.885 146.731  0.00  0.00    +0.000 C 
ATOM     36  C   UNL     1     103.381 124.863 147.003  0.00  0.00    +0.000 C 
ATOM     37  C   UNL     1     102.895 124.224 146.814  0.00  0.00    +0.000 C 
ATOM     38  C   UNL     1     103.187 123.607 146.352  0.00  0.00    +0.000 C 
ATOM     39  C   UNL     1     103.966 123.628 146.080  0.00  0.00    +0.000 C 
ATOM     40  C   UNL     1     104.257 123.010 145.617  0.00  0.00    +0.000 C 
ENDBRANCH  30  35
ENDBRANCH   4  30
TORSDOF 4
ENDMDL
