MODEL 1
REMARK VINA RESULT:     -11.3      0.000      0.000
REMARK  Name = 6438582
REMARK  12 active torsions:
REMARK  status: ('A' for Active; 'I' for Inactive)
REMARK    1  A    between atoms: O_2  and  C_16
REMARK    2  A    between atoms: O_2  and  C_23
REMARK    3  A    between atoms: O_3  and  C_18
REMARK    4  A    between atoms: O_3  and  C_24
REMARK    5  A    between atoms: O_5  and  C_20
REMARK    6  A    between atoms: O_5  and  C_22
REMARK    7  A    between atoms: C_19  and  C_21
REMARK    8  A    between atoms: C_23  and  C_28
REMARK    9  A    between atoms: C_24  and  C_29
REMARK   10  A    between atoms: C_25  and  C_31
REMARK   11  A    between atoms: C_33  and  C_40
REMARK   12  A    between atoms: C_35  and  C_43
REMARK                            x       y       z     vdW  Elec       q    Type
REMARK                         _______ _______ _______ _____ _____    ______ ____
ROOT
ATOM      1  O   UNL     1     106.477 126.432 142.429  0.00  0.00    +0.000 OA
ATOM      2  O   UNL     1     104.648 126.657 140.777  0.00  0.00    +0.000 OA
ATOM      3  C   UNL     1     105.859 126.032 141.204  0.00  0.00    +0.000 C 
ATOM      4  C   UNL     1     105.258 126.582 141.327  0.00  0.00    +0.000 C 
ATOM      5  C   UNL     1     105.265 127.058 142.002  0.00  0.00    +0.000 C 
ATOM      6  C   UNL     1     106.469 125.957 141.754  0.00  0.00    +0.000 C 
ATOM      7  C   UNL     1     105.874 126.983 142.552  0.00  0.00    +0.000 C 
ENDROOT
BRANCH   6   9
ATOM      8  O   UNL     1     107.861 125.635 141.705  0.00  0.00    +0.000 OA
ATOM      9  C   UNL     1     107.072 125.407 141.631  0.00  0.00    +0.000 C 
ENDBRANCH   6   9
BRANCH   3  10
ATOM     10  O   UNL     1     105.853 125.557 140.529  0.00  0.00    +0.000 OA
BRANCH  10  12
ATOM     11  O   UNL     1     105.401 124.344 141.134  0.00  0.00    +0.000 OA
ATOM     12  C   UNL     1     105.383 124.879 140.507  0.00  0.00    +0.000 C 
BRANCH  12  13
ATOM     13  C   UNL     1     104.895 124.736 139.857  0.00  0.00    +0.000 C 
ATOM     14  C   UNL     1     104.668 123.966 139.672  0.00  0.00    +0.000 C 
BRANCH  14  16
ATOM     15  O   UNL     1     102.718 123.396 137.072  0.00  0.00    +0.000 OA
ATOM     16  C   UNL     1     104.181 123.823 139.023  0.00  0.00    +0.000 A 
ATOM     17  C   UNL     1     104.513 123.638 138.291  0.00  0.00    +0.000 A 
ATOM     18  C   UNL     1     103.361 123.866 139.104  0.00  0.00    +0.000 A 
ATOM     19  C   UNL     1     104.025 123.495 137.640  0.00  0.00    +0.000 A 
ATOM     20  C   UNL     1     102.874 123.724 138.455  0.00  0.00    +0.000 A 
ATOM     21  C   UNL     1     103.206 123.538 137.723  0.00  0.00    +0.000 A 
ENDBRANCH  14  16
ENDBRANCH  12  13
ENDBRANCH  10  12
ENDBRANCH   3  10
BRANCH   5  22
ATOM     22  O   UNL     1     104.663 127.607 142.125  0.00  0.00    +0.000 OA
BRANCH  22  24
ATOM     23  O   UNL     1     105.243 128.485 141.158  0.00  0.00    +0.000 OA
ATOM     24  C   UNL     1     104.613 128.278 141.648  0.00  0.00    +0.000 C 
BRANCH  24  25
ATOM     25  C   UNL     1     103.931 128.743 141.659  0.00  0.00    +0.000 C 
ATOM     26  C   UNL     1     103.992 129.566 141.651  0.00  0.00    +0.000 C 
BRANCH  26  28
ATOM     27  O   UNL     1     101.265 131.424 141.699  0.00  0.00    +0.000 OA
ATOM     28  C   UNL     1     103.311 130.030 141.663  0.00  0.00    +0.000 A 
ATOM     29  C   UNL     1     102.818 130.059 141.002  0.00  0.00    +0.000 A 
ATOM     30  C   UNL     1     103.121 130.467 142.337  0.00  0.00    +0.000 A 
ATOM     31  C   UNL     1     102.137 130.523 141.013  0.00  0.00    +0.000 A 
ATOM     32  C   UNL     1     102.438 130.931 142.349  0.00  0.00    +0.000 A 
ATOM     33  C   UNL     1     101.947 130.959 141.687  0.00  0.00    +0.000 A 
ENDBRANCH  26  28
ENDBRANCH  24  25
ENDBRANCH  22  24
ENDBRANCH   5  22
BRANCH   7  34
ATOM     34  O   UNL     1     105.883 127.458 143.227  0.00  0.00    +0.000 OA
BRANCH  34  39
ATOM     35  O   UNL     1     107.004 127.222 145.085  0.00  0.00    +0.000 OA
ATOM     36  O   UNL     1     105.204 126.078 143.827  0.00  0.00    +0.000 OA
ATOM     37  O   UNL     1     105.105 125.057 144.841  0.00  0.00    +0.000 OA
ATOM     38  O   UNL     1     106.858 125.196 147.173  0.00  0.00    +0.000 OA
ATOM     39  C   UNL     1     106.143 127.149 143.946  0.00  0.00    +0.000 A 
ATOM     40  C   UNL     1     106.743 127.531 144.365  0.00  0.00    +0.000 A 
ATOM     41  C   UNL     1     105.804 126.460 144.246  0.00  0.00    +0.000 A 
ATOM     42  C   UNL     1     106.065 126.151 144.966  0.00  0.00    +0.000 A 
ATOM     43  C   UNL     1     106.664 126.532 145.385  0.00  0.00    +0.000 A 
ATOM     44  C   UNL     1     105.704 125.432 145.268  0.00  0.00    +0.000 A 
ATOM     45  C   UNL     1     106.945 126.221 146.135  0.00  0.00    +0.000 A 
ATOM     46  C   UNL     1     105.971 125.105 146.016  0.00  0.00    +0.000 A 
ATOM     47  C   UNL     1     106.596 125.503 146.453  0.00  0.00    +0.000 A 
BRANCH  40  49
ATOM     48  O   UNL     1     108.100 130.289 143.165  0.00  0.00    +0.000 OA
ATOM     49  C   UNL     1     107.082 128.220 144.065  0.00  0.00    +0.000 A 
ATOM     50  C   UNL     1     107.796 128.183 143.654  0.00  0.00    +0.000 A 
ATOM     51  C   UNL     1     106.707 128.947 144.177  0.00  0.00    +0.000 A 
ATOM     52  C   UNL     1     108.136 128.873 143.354  0.00  0.00    +0.000 A 
ATOM     53  C   UNL     1     107.046 129.636 143.877  0.00  0.00    +0.000 A 
ATOM     54  C   UNL     1     107.760 129.599 143.466  0.00  0.00    +0.000 A 
ENDBRANCH  40  49
ENDBRANCH  34  39
ENDBRANCH   7  34
TORSDOF 12
ENDMDL
MODEL 2
REMARK VINA RESULT:     -10.2      1.945      5.102
REMARK  Name = 6438582
REMARK  12 active torsions:
REMARK  status: ('A' for Active; 'I' for Inactive)
REMARK    1  A    between atoms: O_2  and  C_16
REMARK    2  A    between atoms: O_2  and  C_23
REMARK    3  A    between atoms: O_3  and  C_18
REMARK    4  A    between atoms: O_3  and  C_24
REMARK    5  A    between atoms: O_5  and  C_20
REMARK    6  A    between atoms: O_5  and  C_22
REMARK    7  A    between atoms: C_19  and  C_21
REMARK    8  A    between atoms: C_23  and  C_28
REMARK    9  A    between atoms: C_24  and  C_29
REMARK   10  A    between atoms: C_25  and  C_31
REMARK   11  A    between atoms: C_33  and  C_40
REMARK   12  A    between atoms: C_35  and  C_43
REMARK                            x       y       z     vdW  Elec       q    Type
REMARK                         _______ _______ _______ _____ _____    ______ ____
ROOT
ATOM      1  O   UNL     1     106.053 127.508 143.554  0.00  0.00    +0.000 OA
ATOM      2  O   UNL     1     106.183 125.085 144.043  0.00  0.00    +0.000 OA
ATOM      3  C   UNL     1     105.777 126.154 143.187  0.00  0.00    +0.000 C 
ATOM      4  C   UNL     1     106.140 125.892 143.880  0.00  0.00    +0.000 C 
ATOM      5  C   UNL     1     106.460 126.438 144.410  0.00  0.00    +0.000 C 
ATOM      6  C   UNL     1     105.734 126.962 143.024  0.00  0.00    +0.000 C 
ATOM      7  C   UNL     1     106.416 127.245 144.247  0.00  0.00    +0.000 C 
ENDROOT
BRANCH   6   9
ATOM      8  O   UNL     1     104.794 127.813 142.364  0.00  0.00    +0.000 OA
ATOM      9  C   UNL     1     105.371 127.224 142.331  0.00  0.00    +0.000 C 
ENDBRANCH   6   9
BRANCH   3  10
ATOM     10  O   UNL     1     105.457 125.609 142.657  0.00  0.00    +0.000 OA
BRANCH  10  12
ATOM     11  O   UNL     1     106.725 125.162 142.176  0.00  0.00    +0.000 OA
ATOM     12  C   UNL     1     105.922 125.302 142.050  0.00  0.00    +0.000 C 
BRANCH  12  13
ATOM     13  C   UNL     1     105.585 125.134 141.315  0.00  0.00    +0.000 C 
ATOM     14  C   UNL     1     105.664 124.382 140.987  0.00  0.00    +0.000 C 
BRANCH  14  16
ATOM     15  O   UNL     1     104.316 123.713 138.050  0.00  0.00    +0.000 OA
ATOM     16  C   UNL     1     105.327 124.215 140.253  0.00  0.00    +0.000 A 
ATOM     17  C   UNL     1     105.523 124.673 139.596  0.00  0.00    +0.000 A 
ATOM     18  C   UNL     1     104.795 123.589 140.176  0.00  0.00    +0.000 A 
ATOM     19  C   UNL     1     105.186 124.506 138.861  0.00  0.00    +0.000 A 
ATOM     20  C   UNL     1     104.458 123.422 139.442  0.00  0.00    +0.000 A 
ATOM     21  C   UNL     1     104.653 123.880 138.785  0.00  0.00    +0.000 A 
ENDBRANCH  14  16
ENDBRANCH  12  13
ENDBRANCH  10  12
ENDBRANCH   3  10
BRANCH   5  22
ATOM     22  O   UNL     1     106.822 126.176 145.103  0.00  0.00    +0.000 OA
BRANCH  22  24
ATOM     23  O   UNL     1     105.546 125.900 145.683  0.00  0.00    +0.000 OA
ATOM     24  C   UNL     1     106.368 125.842 145.705  0.00  0.00    +0.000 C 
BRANCH  24  25
ATOM     25  C   UNL     1     106.737 125.450 146.332  0.00  0.00    +0.000 C 
ATOM     26  C   UNL     1     106.551 125.649 147.110  0.00  0.00    +0.000 C 
BRANCH  26  28
ATOM     27  O   UNL     1     108.024 124.081 149.612  0.00  0.00    +0.000 OA
ATOM     28  C   UNL     1     106.919 125.257 147.735  0.00  0.00    +0.000 A 
ATOM     29  C   UNL     1     107.742 125.246 147.788  0.00  0.00    +0.000 A 
ATOM     30  C   UNL     1     106.464 124.876 148.308  0.00  0.00    +0.000 A 
ATOM     31  C   UNL     1     108.111 124.854 148.413  0.00  0.00    +0.000 A 
ATOM     32  C   UNL     1     106.832 124.484 148.934  0.00  0.00    +0.000 A 
ATOM     33  C   UNL     1     107.656 124.473 148.986  0.00  0.00    +0.000 A 
ENDBRANCH  26  28
ENDBRANCH  24  25
ENDBRANCH  22  24
ENDBRANCH   5  22
BRANCH   7  34
ATOM     34  O   UNL     1     106.736 127.791 144.777  0.00  0.00    +0.000 OA
BRANCH  34  39
ATOM     35  O   UNL     1     107.197 129.903 144.470  0.00  0.00    +0.000 OA
ATOM     36  O   UNL     1     107.980 127.685 143.698  0.00  0.00    +0.000 OA
ATOM     37  O   UNL     1     108.982 128.299 142.860  0.00  0.00    +0.000 OA
ATOM     38  O   UNL     1     109.194 131.211 142.803  0.00  0.00    +0.000 OA
ATOM     39  C   UNL     1     107.097 128.477 144.495  0.00  0.00    +0.000 A 
ATOM     40  C   UNL     1     106.835 129.216 144.753  0.00  0.00    +0.000 A 
ATOM     41  C   UNL     1     107.719 128.424 143.956  0.00  0.00    +0.000 A 
ATOM     42  C   UNL     1     108.080 129.111 143.674  0.00  0.00    +0.000 A 
ATOM     43  C   UNL     1     107.819 129.850 143.931  0.00  0.00    +0.000 A 
ATOM     44  C   UNL     1     108.727 129.043 143.112  0.00  0.00    +0.000 A 
ATOM     45  C   UNL     1     108.186 130.572 143.645  0.00  0.00    +0.000 A 
ATOM     46  C   UNL     1     109.107 129.753 142.815  0.00  0.00    +0.000 A 
ATOM     47  C   UNL     1     108.835 130.524 143.083  0.00  0.00    +0.000 A 
BRANCH  40  49
ATOM     48  O   UNL     1     104.346 129.429 146.909  0.00  0.00    +0.000 OA
ATOM     49  C   UNL     1     106.214 129.269 145.291  0.00  0.00    +0.000 A 
ATOM     50  C   UNL     1     105.450 129.432 145.025  0.00  0.00    +0.000 A 
ATOM     51  C   UNL     1     106.355 129.160 146.097  0.00  0.00    +0.000 A 
ATOM     52  C   UNL     1     104.827 129.485 145.565  0.00  0.00    +0.000 A 
ATOM     53  C   UNL     1     105.733 129.213 146.636  0.00  0.00    +0.000 A 
ATOM     54  C   UNL     1     104.969 129.375 146.370  0.00  0.00    +0.000 A 
ENDBRANCH  40  49
ENDBRANCH  34  39
ENDBRANCH   7  34
TORSDOF 12
ENDMDL
MODEL 3
REMARK VINA RESULT:     -10.2      1.262      2.704
REMARK  Name = 6438582
REMARK  12 active torsions:
REMARK  status: ('A' for Active; 'I' for Inactive)
REMARK    1  A    between atoms: O_2  and  C_16
REMARK    2  A    between atoms: O_2  and  C_23
REMARK    3  A    between atoms: O_3  and  C_18
REMARK    4  A    between atoms: O_3  and  C_24
REMARK    5  A    between atoms: O_5  and  C_20
REMARK    6  A    between atoms: O_5  and  C_22
REMARK    7  A    between atoms: C_19  and  C_21
REMARK    8  A    between atoms: C_23  and  C_28
REMARK    9  A    between atoms: C_24  and  C_29
REMARK   10  A    between atoms: C_25  and  C_31
REMARK   11  A    between atoms: C_33  and  C_40
REMARK   12  A    between atoms: C_35  and  C_43
REMARK                            x       y       z     vdW  Elec       q    Type
REMARK                         _______ _______ _______ _____ _____    ______ ____
ROOT
ATOM      1  O   UNL     1     106.676 126.668 142.167  0.00  0.00    +0.000 OA
ATOM      2  O   UNL     1     104.639 126.787 140.766  0.00  0.00    +0.000 OA
ATOM      3  C   UNL     1     105.686 126.021 141.364  0.00  0.00    +0.000 C 
ATOM      4  C   UNL     1     105.318 126.747 141.233  0.00  0.00    +0.000 C 
ATOM      5  C   UNL     1     105.628 127.434 141.569  0.00  0.00    +0.000 C 
ATOM      6  C   UNL     1     106.365 125.982 141.831  0.00  0.00    +0.000 C 
ATOM      7  C   UNL     1     106.307 127.395 142.036  0.00  0.00    +0.000 C 
ENDROOT
BRANCH   6   9
ATOM      8  O   UNL     1     106.891 125.004 142.732  0.00  0.00    +0.000 OA
ATOM      9  C   UNL     1     106.735 125.255 141.962  0.00  0.00    +0.000 C 
ENDBRANCH   6   9
BRANCH   3  10
ATOM     10  O   UNL     1     105.376 125.334 141.028  0.00  0.00    +0.000 OA
BRANCH  10  12
ATOM     11  O   UNL     1     106.229 125.275 139.884  0.00  0.00    +0.000 OA
ATOM     12  C   UNL     1     105.483 125.182 140.225  0.00  0.00    +0.000 C 
BRANCH  12  13
ATOM     13  C   UNL     1     104.846 124.937 139.762  0.00  0.00    +0.000 C 
ATOM     14  C   UNL     1     104.895 124.238 139.329  0.00  0.00    +0.000 C 
BRANCH  14  16
ATOM     15  O   UNL     1     102.344 123.259 137.477  0.00  0.00    +0.000 OA
ATOM     16  C   UNL     1     104.257 123.993 138.867  0.00  0.00    +0.000 A 
ATOM     17  C   UNL     1     104.379 123.771 138.081  0.00  0.00    +0.000 A 
ATOM     18  C   UNL     1     103.498 123.970 139.188  0.00  0.00    +0.000 A 
ATOM     19  C   UNL     1     103.741 123.526 137.618  0.00  0.00    +0.000 A 
ATOM     20  C   UNL     1     102.861 123.726 138.726  0.00  0.00    +0.000 A 
ATOM     21  C   UNL     1     102.982 123.504 137.941  0.00  0.00    +0.000 A 
ENDBRANCH  14  16
ENDBRANCH  12  13
ENDBRANCH  10  12
ENDBRANCH   3  10
BRANCH   5  22
ATOM     22  O   UNL     1     105.259 128.160 141.438  0.00  0.00    +0.000 OA
BRANCH  22  24
ATOM     23  O   UNL     1     104.251 127.827 142.395  0.00  0.00    +0.000 OA
ATOM     24  C   UNL     1     104.547 128.335 141.816  0.00  0.00    +0.000 C 
BRANCH  24  25
ATOM     25  C   UNL     1     104.129 129.018 141.614  0.00  0.00    +0.000 C 
ATOM     26  C   UNL     1     103.584 129.340 142.143  0.00  0.00    +0.000 C 
BRANCH  26  28
ATOM     27  O   UNL     1     101.915 132.069 141.334  0.00  0.00    +0.000 OA
ATOM     28  C   UNL     1     103.167 130.022 141.941  0.00  0.00    +0.000 A 
ATOM     29  C   UNL     1     103.223 130.696 142.414  0.00  0.00    +0.000 A 
ATOM     30  C   UNL     1     102.693 130.030 141.266  0.00  0.00    +0.000 A 
ATOM     31  C   UNL     1     102.806 131.378 142.212  0.00  0.00    +0.000 A 
ATOM     32  C   UNL     1     102.276 130.713 141.063  0.00  0.00    +0.000 A 
ATOM     33  C   UNL     1     102.333 131.386 141.536  0.00  0.00    +0.000 A 
ENDBRANCH  26  28
ENDBRANCH  24  25
ENDBRANCH  22  24
ENDBRANCH   5  22
BRANCH   7  34
ATOM     34  O   UNL     1     106.618 128.081 142.372  0.00  0.00    +0.000 OA
BRANCH  34  39
ATOM     35  O   UNL     1     108.595 128.435 143.227  0.00  0.00    +0.000 OA
ATOM     36  O   UNL     1     107.566 127.954 141.027  0.00  0.00    +0.000 OA
ATOM     37  O   UNL     1     108.857 127.983 140.384  0.00  0.00    +0.000 OA
ATOM     38  O   UNL     1     111.235 128.507 141.998  0.00  0.00    +0.000 OA
ATOM     39  C   UNL     1     107.435 128.178 142.432  0.00  0.00    +0.000 A 
ATOM     40  C   UNL     1     107.777 128.338 143.166  0.00  0.00    +0.000 A 
ATOM     41  C   UNL     1     107.908 128.114 141.761  0.00  0.00    +0.000 A 
ATOM     42  C   UNL     1     108.726 128.211 141.821  0.00  0.00    +0.000 A 
ATOM     43  C   UNL     1     109.069 128.371 142.554  0.00  0.00    +0.000 A 
ATOM     44  C   UNL     1     109.209 128.143 141.113  0.00  0.00    +0.000 A 
ATOM     45  C   UNL     1     109.918 128.474 142.631  0.00  0.00    +0.000 A 
ATOM     46  C   UNL     1     110.060 128.243 141.170  0.00  0.00    +0.000 A 
ATOM     47  C   UNL     1     110.418 128.410 141.934  0.00  0.00    +0.000 A 
BRANCH  40  49
ATOM     48  O   UNL     1     105.882 128.590 145.856  0.00  0.00    +0.000 OA
ATOM     49  C   UNL     1     107.304 128.401 143.838  0.00  0.00    +0.000 A 
ATOM     50  C   UNL     1     107.217 127.755 144.343  0.00  0.00    +0.000 A 
ATOM     51  C   UNL     1     106.916 129.110 144.005  0.00  0.00    +0.000 A 
ATOM     52  C   UNL     1     106.743 127.818 145.017  0.00  0.00    +0.000 A 
ATOM     53  C   UNL     1     106.443 129.173 144.677  0.00  0.00    +0.000 A 
ATOM     54  C   UNL     1     106.357 128.527 145.183  0.00  0.00    +0.000 A 
ENDBRANCH  40  49
ENDBRANCH  34  39
ENDBRANCH   7  34
TORSDOF 12
ENDMDL
MODEL 4
REMARK VINA RESULT:      -9.7      6.328      8.194
REMARK  Name = 6438582
REMARK  12 active torsions:
REMARK  status: ('A' for Active; 'I' for Inactive)
REMARK    1  A    between atoms: O_2  and  C_16
REMARK    2  A    between atoms: O_2  and  C_23
REMARK    3  A    between atoms: O_3  and  C_18
REMARK    4  A    between atoms: O_3  and  C_24
REMARK    5  A    between atoms: O_5  and  C_20
REMARK    6  A    between atoms: O_5  and  C_22
REMARK    7  A    between atoms: C_19  and  C_21
REMARK    8  A    between atoms: C_23  and  C_28
REMARK    9  A    between atoms: C_24  and  C_29
REMARK   10  A    between atoms: C_25  and  C_31
REMARK   11  A    between atoms: C_33  and  C_40
REMARK   12  A    between atoms: C_35  and  C_43
REMARK                            x       y       z     vdW  Elec       q    Type
REMARK                         _______ _______ _______ _____ _____    ______ ____
ROOT
ATOM      1  O   UNL     1     111.409 127.038 138.364  0.00  0.00    +0.000 OA
ATOM      2  O   UNL     1     108.964 126.732 138.137  0.00  0.00    +0.000 OA
ATOM      3  C   UNL     1     110.126 126.843 138.961  0.00  0.00    +0.000 C 
ATOM      4  C   UNL     1     109.779 126.834 138.213  0.00  0.00    +0.000 C 
ATOM      5  C   UNL     1     110.247 126.927 137.539  0.00  0.00    +0.000 C 
ATOM      6  C   UNL     1     110.941 126.945 139.036  0.00  0.00    +0.000 C 
ATOM      7  C   UNL     1     111.062 127.029 137.615  0.00  0.00    +0.000 C 
ENDROOT
BRANCH   6   9
ATOM      8  O   UNL     1     111.798 127.567 139.996  0.00  0.00    +0.000 OA
ATOM      9  C   UNL     1     111.288 126.954 139.785  0.00  0.00    +0.000 C 
ENDBRANCH   6   9
BRANCH   3  10
ATOM     10  O   UNL     1     109.658 126.750 139.634  0.00  0.00    +0.000 OA
BRANCH  10  12
ATOM     11  O   UNL     1     109.882 125.345 139.761  0.00  0.00    +0.000 OA
ATOM     12  C   UNL     1     109.390 126.001 139.850  0.00  0.00    +0.000 C 
BRANCH  12  13
ATOM     13  C   UNL     1     108.629 125.907 140.157  0.00  0.00    +0.000 C 
ATOM     14  C   UNL     1     108.510 125.450 140.833  0.00  0.00    +0.000 C 
BRANCH  14  16
ATOM     15  O   UNL     1     105.469 125.073 142.056  0.00  0.00    +0.000 OA
ATOM     16  C   UNL     1     107.751 125.356 141.138  0.00  0.00    +0.000 A 
ATOM     17  C   UNL     1     107.338 124.653 141.010  0.00  0.00    +0.000 A 
ATOM     18  C   UNL     1     107.402 125.964 141.573  0.00  0.00    +0.000 A 
ATOM     19  C   UNL     1     106.577 124.559 141.316  0.00  0.00    +0.000 A 
ATOM     20  C   UNL     1     106.642 125.870 141.879  0.00  0.00    +0.000 A 
ATOM     21  C   UNL     1     106.230 125.167 141.750  0.00  0.00    +0.000 A 
ENDBRANCH  14  16
ENDBRANCH  12  13
ENDBRANCH  10  12
ENDBRANCH   3  10
BRANCH   5  22
ATOM     22  O   UNL     1     109.900 126.919 136.791  0.00  0.00    +0.000 OA
BRANCH  22  24
ATOM     23  O   UNL     1     108.484 127.079 136.689  0.00  0.00    +0.000 OA
ATOM     24  C   UNL     1     109.244 127.394 136.635  0.00  0.00    +0.000 C 
BRANCH  24  25
ATOM     25  C   UNL     1     109.348 128.185 136.425  0.00  0.00    +0.000 C 
ATOM     26  C   UNL     1     108.895 128.514 135.819  0.00  0.00    +0.000 C 
BRANCH  26  28
ATOM     27  O   UNL     1     109.312 131.678 134.979  0.00  0.00    +0.000 OA
ATOM     28  C   UNL     1     108.999 129.305 135.609  0.00  0.00    +0.000 A 
ATOM     29  C   UNL     1     109.338 129.498 134.882  0.00  0.00    +0.000 A 
ATOM     30  C   UNL     1     108.764 129.903 136.126  0.00  0.00    +0.000 A 
ATOM     31  C   UNL     1     109.442 130.288 134.672  0.00  0.00    +0.000 A 
ATOM     32  C   UNL     1     108.869 130.695 135.916  0.00  0.00    +0.000 A 
ATOM     33  C   UNL     1     109.207 130.887 135.189  0.00  0.00    +0.000 A 
ENDBRANCH  26  28
ENDBRANCH  24  25
ENDBRANCH  22  24
ENDBRANCH   5  22
BRANCH   7  34
ATOM     34  O   UNL     1     111.531 127.122 136.942  0.00  0.00    +0.000 OA
BRANCH  34  39
ATOM     35  O   UNL     1     113.685 126.855 136.709  0.00  0.00    +0.000 OA
ATOM     36  O   UNL     1     111.669 125.494 137.169  0.00  0.00    +0.000 OA
ATOM     37  O   UNL     1     112.464 124.292 137.248  0.00  0.00    +0.000 OA
ATOM     38  O   UNL     1     115.352 124.472 136.854  0.00  0.00    +0.000 OA
ATOM     39  C   UNL     1     112.272 126.762 136.902  0.00  0.00    +0.000 A 
ATOM     40  C   UNL     1     112.943 127.216 136.749  0.00  0.00    +0.000 A 
ATOM     41  C   UNL     1     112.341 125.948 137.015  0.00  0.00    +0.000 A 
ATOM     42  C   UNL     1     113.083 125.587 136.975  0.00  0.00    +0.000 A 
ATOM     43  C   UNL     1     113.754 126.041 136.822  0.00  0.00    +0.000 A 
ATOM     44  C   UNL     1     113.141 124.738 137.095  0.00  0.00    +0.000 A 
ATOM     45  C   UNL     1     114.531 125.678 136.778  0.00  0.00    +0.000 A 
ATOM     46  C   UNL     1     113.910 124.356 137.054  0.00  0.00    +0.000 A 
ATOM     47  C   UNL     1     114.610 124.830 136.894  0.00  0.00    +0.000 A 
BRANCH  40  49
ATOM     48  O   UNL     1     112.668 130.473 136.297  0.00  0.00    +0.000 OA
ATOM     49  C   UNL     1     112.874 128.030 136.636  0.00  0.00    +0.000 A 
ATOM     50  C   UNL     1     112.999 128.546 137.267  0.00  0.00    +0.000 A 
ATOM     51  C   UNL     1     112.681 128.329 135.892  0.00  0.00    +0.000 A 
ATOM     52  C   UNL     1     112.930 129.361 137.154  0.00  0.00    +0.000 A 
ATOM     53  C   UNL     1     112.612 129.142 135.779  0.00  0.00    +0.000 A 
ATOM     54  C   UNL     1     112.736 129.658 136.410  0.00  0.00    +0.000 A 
ENDBRANCH  40  49
ENDBRANCH  34  39
ENDBRANCH   7  34
TORSDOF 12
ENDMDL
MODEL 5
REMARK VINA RESULT:      -9.6      6.402      9.050
REMARK  Name = 6438582
REMARK  12 active torsions:
REMARK  status: ('A' for Active; 'I' for Inactive)
REMARK    1  A    between atoms: O_2  and  C_16
REMARK    2  A    between atoms: O_2  and  C_23
REMARK    3  A    between atoms: O_3  and  C_18
REMARK    4  A    between atoms: O_3  and  C_24
REMARK    5  A    between atoms: O_5  and  C_20
REMARK    6  A    between atoms: O_5  and  C_22
REMARK    7  A    between atoms: C_19  and  C_21
REMARK    8  A    between atoms: C_23  and  C_28
REMARK    9  A    between atoms: C_24  and  C_29
REMARK   10  A    between atoms: C_25  and  C_31
REMARK   11  A    between atoms: C_33  and  C_40
REMARK   12  A    between atoms: C_35  and  C_43
REMARK                            x       y       z     vdW  Elec       q    Type
REMARK                         _______ _______ _______ _____ _____    ______ ____
ROOT
ATOM      1  O   UNL     1     112.370 127.997 138.596  0.00  0.00    +0.000 OA
ATOM      2  O   UNL     1     110.707 129.504 139.640  0.00  0.00    +0.000 OA
ATOM      3  C   UNL     1     111.901 128.726 139.732  0.00  0.00    +0.000 C 
ATOM      4  C   UNL     1     111.261 129.002 139.292  0.00  0.00    +0.000 C 
ATOM      5  C   UNL     1     111.174 128.776 138.503  0.00  0.00    +0.000 C 
ATOM      6  C   UNL     1     112.455 128.224 139.385  0.00  0.00    +0.000 C 
ATOM      7  C   UNL     1     111.729 128.274 138.155  0.00  0.00    +0.000 C 
ENDROOT
BRANCH   6   9
ATOM      8  O   UNL     1     113.863 128.018 139.528  0.00  0.00    +0.000 OA
ATOM      9  C   UNL     1     113.096 127.948 139.826  0.00  0.00    +0.000 C 
ENDBRANCH   6   9
BRANCH   3  10
ATOM     10  O   UNL     1     111.988 128.952 140.521  0.00  0.00    +0.000 OA
BRANCH  10  12
ATOM     11  O   UNL     1     111.251 127.825 140.997  0.00  0.00    +0.000 OA
ATOM     12  C   UNL     1     111.531 128.594 141.106  0.00  0.00    +0.000 C 
BRANCH  12  13
ATOM     13  C   UNL     1     111.353 129.002 141.801  0.00  0.00    +0.000 C 
ATOM     14  C   UNL     1     111.296 128.596 142.516  0.00  0.00    +0.000 C 
BRANCH  14  16
ATOM     15  O   UNL     1     110.585 130.232 145.292  0.00  0.00    +0.000 OA
ATOM     16  C   UNL     1     111.118 129.004 143.209  0.00  0.00    +0.000 A 
ATOM     17  C   UNL     1     110.364 129.319 143.321  0.00  0.00    +0.000 A 
ATOM     18  C   UNL     1     111.695 129.099 143.793  0.00  0.00    +0.000 A 
ATOM     19  C   UNL     1     110.186 129.729 144.016  0.00  0.00    +0.000 A 
ATOM     20  C   UNL     1     111.517 129.507 144.486  0.00  0.00    +0.000 A 
ATOM     21  C   UNL     1     110.763 129.822 144.598  0.00  0.00    +0.000 A 
ENDBRANCH  14  16
ENDBRANCH  12  13
ENDBRANCH  10  12
ENDBRANCH   3  10
BRANCH   5  22
ATOM     22  O   UNL     1     110.534 129.052 138.062  0.00  0.00    +0.000 OA
BRANCH  22  24
ATOM     23  O   UNL     1     111.131 130.349 138.008  0.00  0.00    +0.000 OA
ATOM     24  C   UNL     1     110.513 129.838 137.814  0.00  0.00    +0.000 C 
BRANCH  24  25
ATOM     25  C   UNL     1     109.872 130.114 137.372  0.00  0.00    +0.000 C 
ATOM     26  C   UNL     1     109.954 130.788 136.904  0.00  0.00    +0.000 C 
BRANCH  26  28
ATOM     27  O   UNL     1     107.394 131.891 135.137  0.00  0.00    +0.000 OA
ATOM     28  C   UNL     1     109.315 131.064 136.463  0.00  0.00    +0.000 A 
ATOM     29  C   UNL     1     108.698 131.466 136.835  0.00  0.00    +0.000 A 
ATOM     30  C   UNL     1     109.291 130.937 135.648  0.00  0.00    +0.000 A 
ATOM     31  C   UNL     1     108.059 131.742 136.394  0.00  0.00    +0.000 A 
ATOM     32  C   UNL     1     108.650 131.213 135.206  0.00  0.00    +0.000 A 
ATOM     33  C   UNL     1     108.035 131.615 135.580  0.00  0.00    +0.000 A 
ENDBRANCH  26  28
ENDBRANCH  24  25
ENDBRANCH  22  24
ENDBRANCH   5  22
BRANCH   7  34
ATOM     34  O   UNL     1     111.643 128.047 137.367  0.00  0.00    +0.000 OA
BRANCH  34  39
ATOM     35  O   UNL     1     112.617 126.418 136.287  0.00  0.00    +0.000 OA
ATOM     36  O   UNL     1     110.971 126.735 138.109  0.00  0.00    +0.000 OA
ATOM     37  O   UNL     1     110.827 125.308 138.266  0.00  0.00    +0.000 OA
ATOM     38  O   UNL     1     112.377 123.527 136.547  0.00  0.00    +0.000 OA
ATOM     39  C   UNL     1     111.855 127.285 137.130  0.00  0.00    +0.000 A 
ATOM     40  C   UNL     1     112.404 127.180 136.523  0.00  0.00    +0.000 A 
ATOM     41  C   UNL     1     111.519 126.630 137.501  0.00  0.00    +0.000 A 
ATOM     42  C   UNL     1     111.732 125.868 137.265  0.00  0.00    +0.000 A 
ATOM     43  C   UNL     1     112.280 125.763 136.658  0.00  0.00    +0.000 A 
ATOM     44  C   UNL     1     111.375 125.193 137.659  0.00  0.00    +0.000 A 
ATOM     45  C   UNL     1     112.510 124.975 136.403  0.00  0.00    +0.000 A 
ATOM     46  C   UNL     1     111.591 124.398 137.418  0.00  0.00    +0.000 A 
ATOM     47  C   UNL     1     112.163 124.287 136.785  0.00  0.00    +0.000 A 
BRANCH  40  49
ATOM     48  O   UNL     1     113.749 129.803 135.038  0.00  0.00    +0.000 OA
ATOM     49  C   UNL     1     112.740 127.835 136.152  0.00  0.00    +0.000 A 
ATOM     50  C   UNL     1     112.321 128.237 135.565  0.00  0.00    +0.000 A 
ATOM     51  C   UNL     1     113.495 128.090 136.367  0.00  0.00    +0.000 A 
ATOM     52  C   UNL     1     112.658 128.893 135.194  0.00  0.00    +0.000 A 
ATOM     53  C   UNL     1     113.831 128.745 135.996  0.00  0.00    +0.000 A 
ATOM     54  C   UNL     1     113.412 129.147 135.410  0.00  0.00    +0.000 A 
ENDBRANCH  40  49
ENDBRANCH  34  39
ENDBRANCH   7  34
TORSDOF 12
ENDMDL
MODEL 6
REMARK VINA RESULT:      -9.6      5.263      8.187
REMARK  Name = 6438582
REMARK  12 active torsions:
REMARK  status: ('A' for Active; 'I' for Inactive)
REMARK    1  A    between atoms: O_2  and  C_16
REMARK    2  A    between atoms: O_2  and  C_23
REMARK    3  A    between atoms: O_3  and  C_18
REMARK    4  A    between atoms: O_3  and  C_24
REMARK    5  A    between atoms: O_5  and  C_20
REMARK    6  A    between atoms: O_5  and  C_22
REMARK    7  A    between atoms: C_19  and  C_21
REMARK    8  A    between atoms: C_23  and  C_28
REMARK    9  A    between atoms: C_24  and  C_29
REMARK   10  A    between atoms: C_25  and  C_31
REMARK   11  A    between atoms: C_33  and  C_40
REMARK   12  A    between atoms: C_35  and  C_43
REMARK                            x       y       z     vdW  Elec       q    Type
REMARK                         _______ _______ _______ _____ _____    ______ ____
ROOT
ATOM      1  O   UNL     1     110.472 128.089 140.329  0.00  0.00    +0.000 OA
ATOM      2  O   UNL     1     110.487 125.717 139.622  0.00  0.00    +0.000 OA
ATOM      3  C   UNL     1     110.015 126.745 140.494  0.00  0.00    +0.000 C 
ATOM      4  C   UNL     1     110.482 126.508 139.858  0.00  0.00    +0.000 C 
ATOM      5  C   UNL     1     110.945 127.060 139.456  0.00  0.00    +0.000 C 
ATOM      6  C   UNL     1     110.009 127.536 140.730  0.00  0.00    +0.000 C 
ATOM      7  C   UNL     1     110.940 127.851 139.692  0.00  0.00    +0.000 C 
ENDROOT
BRANCH   6   9
ATOM      8  O   UNL     1     109.866 128.239 141.966  0.00  0.00    +0.000 OA
ATOM      9  C   UNL     1     109.541 127.774 141.367  0.00  0.00    +0.000 C 
ENDBRANCH   6   9
BRANCH   3  10
ATOM     10  O   UNL     1     109.552 126.193 140.896  0.00  0.00    +0.000 OA
BRANCH  10  12
ATOM     11  O   UNL     1     108.592 126.136 139.839  0.00  0.00    +0.000 OA
ATOM     12  C   UNL     1     108.789 126.023 140.633  0.00  0.00    +0.000 C 
BRANCH  12  13
ATOM     13  C   UNL     1     108.222 125.741 141.162  0.00  0.00    +0.000 C 
ATOM     14  C   UNL     1     107.495 125.471 140.883  0.00  0.00    +0.000 C 
BRANCH  14  16
ATOM     15  O   UNL     1     105.229 124.344 143.000  0.00  0.00    +0.000 OA
ATOM     16  C   UNL     1     106.929 125.189 141.412  0.00  0.00    +0.000 A 
ATOM     17  C   UNL     1     106.598 125.697 141.971  0.00  0.00    +0.000 A 
ATOM     18  C   UNL     1     106.693 124.399 141.382  0.00  0.00    +0.000 A 
ATOM     19  C   UNL     1     106.031 125.415 142.501  0.00  0.00    +0.000 A 
ATOM     20  C   UNL     1     106.127 124.117 141.911  0.00  0.00    +0.000 A 
ATOM     21  C   UNL     1     105.796 124.625 142.470  0.00  0.00    +0.000 A 
ENDBRANCH  14  16
ENDBRANCH  12  13
ENDBRANCH  10  12
ENDBRANCH   3  10
BRANCH   5  22
ATOM     22  O   UNL     1     111.412 126.823 138.820  0.00  0.00    +0.000 OA
BRANCH  22  24
ATOM     23  O   UNL     1     112.311 126.174 139.722  0.00  0.00    +0.000 OA
ATOM     24  C   UNL     1     112.089 126.370 138.952  0.00  0.00    +0.000 C 
BRANCH  24  25
ATOM     25  C   UNL     1     112.544 126.111 138.313  0.00  0.00    +0.000 C 
ATOM     26  C   UNL     1     113.363 126.053 138.387  0.00  0.00    +0.000 C 
BRANCH  26  28
ATOM     27  O   UNL     1     115.180 125.019 135.834  0.00  0.00    +0.000 OA
ATOM     28  C   UNL     1     113.817 125.795 137.749  0.00  0.00    +0.000 A 
ATOM     29  C   UNL     1     113.881 126.261 137.071  0.00  0.00    +0.000 A 
ATOM     30  C   UNL     1     114.208 125.069 137.788  0.00  0.00    +0.000 A 
ATOM     31  C   UNL     1     114.335 126.003 136.433  0.00  0.00    +0.000 A 
ATOM     32  C   UNL     1     114.663 124.810 137.149  0.00  0.00    +0.000 A 
ATOM     33  C   UNL     1     114.726 125.278 136.472  0.00  0.00    +0.000 A 
ENDBRANCH  26  28
ENDBRANCH  24  25
ENDBRANCH  22  24
ENDBRANCH   5  22
BRANCH   7  34
ATOM     34  O   UNL     1     111.402 128.404 139.291  0.00  0.00    +0.000 OA
BRANCH  34  39
ATOM     35  O   UNL     1     111.300 130.585 139.334  0.00  0.00    +0.000 OA
ATOM     36  O   UNL     1     109.944 128.662 138.562  0.00  0.00    +0.000 OA
ATOM     37  O   UNL     1     108.913 129.547 138.077  0.00  0.00    +0.000 OA
ATOM     38  O   UNL     1     109.260 132.432 138.379  0.00  0.00    +0.000 OA
ATOM     39  C   UNL     1     111.125 129.174 139.184  0.00  0.00    +0.000 A 
ATOM     40  C   UNL     1     111.577 129.814 139.441  0.00  0.00    +0.000 A 
ATOM     41  C   UNL     1     110.396 129.303 138.820  0.00  0.00    +0.000 A 
ATOM     42  C   UNL     1     110.119 130.073 138.712  0.00  0.00    +0.000 A 
ATOM     43  C   UNL     1     110.571 130.713 138.969  0.00  0.00    +0.000 A 
ATOM     44  C   UNL     1     109.358 130.194 138.331  0.00  0.00    +0.000 A 
ATOM     45  C   UNL     1     110.294 131.520 138.864  0.00  0.00    +0.000 A 
ATOM     46  C   UNL     1     109.064 130.993 138.217  0.00  0.00    +0.000 A 
ATOM     47  C   UNL     1     109.535 131.661 138.485  0.00  0.00    +0.000 A 
BRANCH  40  49
ATOM     48  O   UNL     1     114.493 129.299 140.898  0.00  0.00    +0.000 OA
ATOM     49  C   UNL     1     112.305 129.685 139.805  0.00  0.00    +0.000 A 
ATOM     50  C   UNL     1     112.979 129.557 139.346  0.00  0.00    +0.000 A 
ATOM     51  C   UNL     1     112.362 129.685 140.628  0.00  0.00    +0.000 A 
ATOM     52  C   UNL     1     113.708 129.428 139.710  0.00  0.00    +0.000 A 
ATOM     53  C   UNL     1     113.090 129.556 140.992  0.00  0.00    +0.000 A 
ATOM     54  C   UNL     1     113.763 129.428 140.533  0.00  0.00    +0.000 A 
ENDBRANCH  40  49
ENDBRANCH  34  39
ENDBRANCH   7  34
TORSDOF 12
ENDMDL
MODEL 7
REMARK VINA RESULT:      -9.5      6.130      8.969
REMARK  Name = 6438582
REMARK  12 active torsions:
REMARK  status: ('A' for Active; 'I' for Inactive)
REMARK    1  A    between atoms: O_2  and  C_16
REMARK    2  A    between atoms: O_2  and  C_23
REMARK    3  A    between atoms: O_3  and  C_18
REMARK    4  A    between atoms: O_3  and  C_24
REMARK    5  A    between atoms: O_5  and  C_20
REMARK    6  A    between atoms: O_5  and  C_22
REMARK    7  A    between atoms: C_19  and  C_21
REMARK    8  A    between atoms: C_23  and  C_28
REMARK    9  A    between atoms: C_24  and  C_29
REMARK   10  A    between atoms: C_25  and  C_31
REMARK   11  A    between atoms: C_33  and  C_40
REMARK   12  A    between atoms: C_35  and  C_43
REMARK                            x       y       z     vdW  Elec       q    Type
REMARK                         _______ _______ _______ _____ _____    ______ ____
ROOT
ATOM      1  O   UNL     1     111.200 127.123 139.648  0.00  0.00    +0.000 OA
ATOM      2  O   UNL     1     111.061 129.393 140.625  0.00  0.00    +0.000 OA
ATOM      3  C   UNL     1     111.032 127.973 140.784  0.00  0.00    +0.000 C 
ATOM      4  C   UNL     1     111.107 128.636 140.300  0.00  0.00    +0.000 C 
ATOM      5  C   UNL     1     111.228 128.543 139.489  0.00  0.00    +0.000 C 
ATOM      6  C   UNL     1     111.079 127.217 140.459  0.00  0.00    +0.000 C 
ATOM      7  C   UNL     1     111.275 127.787 139.163  0.00  0.00    +0.000 C 
ENDROOT
BRANCH   6   9
ATOM      8  O   UNL     1     110.459 125.963 140.755  0.00  0.00    +0.000 OA
ATOM      9  C   UNL     1     111.004 126.553 140.944  0.00  0.00    +0.000 C 
ENDBRANCH   6   9
BRANCH   3  10
ATOM     10  O   UNL     1     110.911 128.066 141.595  0.00  0.00    +0.000 OA
BRANCH  10  12
ATOM     11  O   UNL     1     112.280 127.948 141.984  0.00  0.00    +0.000 OA
ATOM     12  C   UNL     1     111.537 128.291 142.083  0.00  0.00    +0.000 C 
BRANCH  12  13
ATOM     13  C   UNL     1     111.419 128.859 142.671  0.00  0.00    +0.000 C 
ATOM     14  C   UNL     1     111.834 128.809 143.381  0.00  0.00    +0.000 C 
BRANCH  14  16
ATOM     15  O   UNL     1     111.363 131.080 145.729  0.00  0.00    +0.000 OA
ATOM     16  C   UNL     1     111.716 129.376 143.968  0.00  0.00    +0.000 A 
ATOM     17  C   UNL     1     111.552 129.142 144.741  0.00  0.00    +0.000 A 
ATOM     18  C   UNL     1     111.763 130.179 143.782  0.00  0.00    +0.000 A 
ATOM     19  C   UNL     1     111.434 129.710 145.329  0.00  0.00    +0.000 A 
ATOM     20  C   UNL     1     111.645 130.746 144.368  0.00  0.00    +0.000 A 
ATOM     21  C   UNL     1     111.481 130.512 145.142  0.00  0.00    +0.000 A 
ENDBRANCH  14  16
ENDBRANCH  12  13
ENDBRANCH  10  12
ENDBRANCH   3  10
BRANCH   5  22
ATOM     22  O   UNL     1     111.303 129.206 139.004  0.00  0.00    +0.000 OA
BRANCH  22  24
ATOM     23  O   UNL     1     109.898 129.456 139.084  0.00  0.00    +0.000 OA
ATOM     24  C   UNL     1     110.659 129.709 138.891  0.00  0.00    +0.000 C 
BRANCH  24  25
ATOM     25  C   UNL     1     110.776 130.466 138.583  0.00  0.00    +0.000 C 
ATOM     26  C   UNL     1     110.288 130.746 137.980  0.00  0.00    +0.000 C 
BRANCH  26  28
ATOM     27  O   UNL     1     110.754 133.774 136.753  0.00  0.00    +0.000 OA
ATOM     28  C   UNL     1     110.405 131.503 137.674  0.00  0.00    +0.000 A 
ATOM     29  C   UNL     1     111.019 131.643 137.140  0.00  0.00    +0.000 A 
ATOM     30  C   UNL     1     109.907 132.121 137.900  0.00  0.00    +0.000 A 
ATOM     31  C   UNL     1     111.135 132.399 136.834  0.00  0.00    +0.000 A 
ATOM     32  C   UNL     1     110.024 132.878 137.593  0.00  0.00    +0.000 A 
ATOM     33  C   UNL     1     110.638 133.017 137.060  0.00  0.00    +0.000 A 
ENDBRANCH  26  28
ENDBRANCH  24  25
ENDBRANCH  22  24
ENDBRANCH   5  22
BRANCH   7  34
ATOM     34  O   UNL     1     111.396 127.693 138.352  0.00  0.00    +0.000 OA
BRANCH  34  39
ATOM     35  O   UNL     1     111.936 125.901 137.228  0.00  0.00    +0.000 OA
ATOM     36  O   UNL     1     112.923 127.421 138.914  0.00  0.00    +0.000 OA
ATOM     37  O   UNL     1     114.145 126.653 138.933  0.00  0.00    +0.000 OA
ATOM     38  O   UNL     1     114.371 124.302 137.214  0.00  0.00    +0.000 OA
ATOM     39  C   UNL     1     111.830 127.050 138.071  0.00  0.00    +0.000 A 
ATOM     40  C   UNL     1     111.501 126.544 137.510  0.00  0.00    +0.000 A 
ATOM     41  C   UNL     1     112.594 126.915 138.352  0.00  0.00    +0.000 A 
ATOM     42  C   UNL     1     113.029 126.272 138.071  0.00  0.00    +0.000 A 
ATOM     43  C   UNL     1     112.700 125.765 137.510  0.00  0.00    +0.000 A 
ATOM     44  C   UNL     1     113.823 126.141 138.371  0.00  0.00    +0.000 A 
ATOM     45  C   UNL     1     113.142 125.093 137.209  0.00  0.00    +0.000 A 
ATOM     46  C   UNL     1     114.281 125.474 138.083  0.00  0.00    +0.000 A 
ATOM     47  C   UNL     1     113.938 124.946 137.497  0.00  0.00    +0.000 A 
BRANCH  40  49
ATOM     48  O   UNL     1     108.446 127.087 136.385  0.00  0.00    +0.000 OA
ATOM     49  C   UNL     1     110.738 126.679 137.229  0.00  0.00    +0.000 A 
ATOM     50  C   UNL     1     110.610 127.235 136.633  0.00  0.00    +0.000 A 
ATOM     51  C   UNL     1     110.101 126.260 137.544  0.00  0.00    +0.000 A 
ATOM     52  C   UNL     1     109.846 127.371 136.351  0.00  0.00    +0.000 A 
ATOM     53  C   UNL     1     109.338 126.395 137.263  0.00  0.00    +0.000 A 
ATOM     54  C   UNL     1     109.210 126.951 136.667  0.00  0.00    +0.000 A 
ENDBRANCH  40  49
ENDBRANCH  34  39
ENDBRANCH   7  34
TORSDOF 12
ENDMDL
MODEL 8
REMARK VINA RESULT:      -9.5      6.583     10.086
REMARK  Name = 6438582
REMARK  12 active torsions:
REMARK  status: ('A' for Active; 'I' for Inactive)
REMARK    1  A    between atoms: O_2  and  C_16
REMARK    2  A    between atoms: O_2  and  C_23
REMARK    3  A    between atoms: O_3  and  C_18
REMARK    4  A    between atoms: O_3  and  C_24
REMARK    5  A    between atoms: O_5  and  C_20
REMARK    6  A    between atoms: O_5  and  C_22
REMARK    7  A    between atoms: C_19  and  C_21
REMARK    8  A    between atoms: C_23  and  C_28
REMARK    9  A    between atoms: C_24  and  C_29
REMARK   10  A    between atoms: C_25  and  C_31
REMARK   11  A    between atoms: C_33  and  C_40
REMARK   12  A    between atoms: C_35  and  C_43
REMARK                            x       y       z     vdW  Elec       q    Type
REMARK                         _______ _______ _______ _____ _____    ______ ____
ROOT
ATOM      1  O   UNL     1     111.903 129.324 138.966  0.00  0.00    +0.000 OA
ATOM      2  O   UNL     1     111.792 127.331 140.428  0.00  0.00    +0.000 OA
ATOM      3  C   UNL     1     112.040 128.727 140.257  0.00  0.00    +0.000 C 
ATOM      4  C   UNL     1     111.829 127.996 139.941  0.00  0.00    +0.000 C 
ATOM      5  C   UNL     1     111.654 127.927 139.137  0.00  0.00    +0.000 C 
ATOM      6  C   UNL     1     112.077 129.392 139.769  0.00  0.00    +0.000 C 
ATOM      7  C   UNL     1     111.691 128.591 138.650  0.00  0.00    +0.000 C 
ENDROOT
BRANCH   6   9
ATOM      8  O   UNL     1     112.830 130.604 139.689  0.00  0.00    +0.000 OA
ATOM      9  C   UNL     1     112.288 130.125 140.085  0.00  0.00    +0.000 C 
ENDBRANCH   6   9
BRANCH   3  10
ATOM     10  O   UNL     1     112.214 128.796 141.060  0.00  0.00    +0.000 OA
BRANCH  10  12
ATOM     11  O   UNL     1     110.828 128.779 141.404  0.00  0.00    +0.000 OA
ATOM     12  C   UNL     1     111.612 128.944 141.603  0.00  0.00    +0.000 C 
BRANCH  12  13
ATOM     13  C   UNL     1     111.791 129.259 142.344  0.00  0.00    +0.000 C 
ATOM     14  C   UNL     1     111.262 129.169 142.970  0.00  0.00    +0.000 C 
BRANCH  14  16
ATOM     15  O   UNL     1     111.981 130.425 145.936  0.00  0.00    +0.000 OA
ATOM     16  C   UNL     1     111.442 129.483 143.711  0.00  0.00    +0.000 A 
ATOM     17  C   UNL     1     111.606 128.979 144.343  0.00  0.00    +0.000 A 
ATOM     18  C   UNL     1     111.457 130.300 143.820  0.00  0.00    +0.000 A 
ATOM     19  C   UNL     1     111.786 129.293 145.085  0.00  0.00    +0.000 A 
ATOM     20  C   UNL     1     111.637 130.614 144.561  0.00  0.00    +0.000 A 
ATOM     21  C   UNL     1     111.801 130.111 145.193  0.00  0.00    +0.000 A 
ENDBRANCH  14  16
ENDBRANCH  12  13
ENDBRANCH  10  12
ENDBRANCH   3  10
BRANCH   5  22
ATOM     22  O   UNL     1     111.443 127.195 138.821  0.00  0.00    +0.000 OA
BRANCH  22  24
ATOM     23  O   UNL     1     111.767 126.056 139.621  0.00  0.00    +0.000 OA
ATOM     24  C   UNL     1     111.914 126.533 138.965  0.00  0.00    +0.000 C 
BRANCH  24  25
ATOM     25  C   UNL     1     112.533 126.348 138.451  0.00  0.00    +0.000 C 
ATOM     26  C   UNL     1     112.645 125.568 138.204  0.00  0.00    +0.000 C 
BRANCH  26  28
ATOM     27  O   UNL     1     115.120 124.828 136.150  0.00  0.00    +0.000 OA
ATOM     28  C   UNL     1     113.263 125.383 137.691  0.00  0.00    +0.000 A 
ATOM     29  C   UNL     1     114.044 125.534 137.913  0.00  0.00    +0.000 A 
ATOM     30  C   UNL     1     113.102 125.048 136.955  0.00  0.00    +0.000 A 
ATOM     31  C   UNL     1     114.662 125.349 137.400  0.00  0.00    +0.000 A 
ATOM     32  C   UNL     1     113.721 124.862 136.441  0.00  0.00    +0.000 A 
ATOM     33  C   UNL     1     114.501 125.013 136.664  0.00  0.00    +0.000 A 
ENDBRANCH  26  28
ENDBRANCH  24  25
ENDBRANCH  22  24
ENDBRANCH   5  22
BRANCH   7  34
ATOM     34  O   UNL     1     111.517 128.524 137.846  0.00  0.00    +0.000 OA
BRANCH  34  39
ATOM     35  O   UNL     1     111.017 130.087 136.406  0.00  0.00    +0.000 OA
ATOM     36  O   UNL     1     110.047 129.013 138.415  0.00  0.00    +0.000 OA
ATOM     37  O   UNL     1     108.878 129.855 138.336  0.00  0.00    +0.000 OA
ATOM     38  O   UNL     1     108.688 131.821 136.184  0.00  0.00    +0.000 OA
ATOM     39  C   UNL     1     111.105 129.127 137.461  0.00  0.00    +0.000 A 
ATOM     40  C   UNL     1     111.429 129.484 136.792  0.00  0.00    +0.000 A 
ATOM     41  C   UNL     1     110.371 129.371 137.745  0.00  0.00    +0.000 A 
ATOM     42  C   UNL     1     109.959 129.974 137.360  0.00  0.00    +0.000 A 
ATOM     43  C   UNL     1     110.282 130.331 136.691  0.00  0.00    +0.000 A 
ATOM     44  C   UNL     1     109.194 130.219 137.665  0.00  0.00    +0.000 A 
ATOM     45  C   UNL     1     109.864 130.959 136.280  0.00  0.00    +0.000 A 
ATOM     46  C   UNL     1     108.760 130.846 137.269  0.00  0.00    +0.000 A 
ATOM     47  C   UNL     1     109.097 131.219 136.571  0.00  0.00    +0.000 A 
BRANCH  40  49
ATOM     48  O   UNL     1     114.369 128.507 135.654  0.00  0.00    +0.000 OA
ATOM     49  C   UNL     1     112.164 129.240 136.508  0.00  0.00    +0.000 A 
ATOM     50  C   UNL     1     112.215 128.589 136.004  0.00  0.00    +0.000 A 
ATOM     51  C   UNL     1     112.847 129.647 136.726  0.00  0.00    +0.000 A 
ATOM     52  C   UNL     1     112.951 128.344 135.719  0.00  0.00    +0.000 A 
ATOM     53  C   UNL     1     113.582 129.403 136.442  0.00  0.00    +0.000 A 
ATOM     54  C   UNL     1     113.634 128.752 135.939  0.00  0.00    +0.000 A 
ENDBRANCH  40  49
ENDBRANCH  34  39
ENDBRANCH   7  34
TORSDOF 12
ENDMDL
MODEL 9
REMARK VINA RESULT:      -9.5      4.605      7.289
REMARK  Name = 6438582
REMARK  12 active torsions:
REMARK  status: ('A' for Active; 'I' for Inactive)
REMARK    1  A    between atoms: O_2  and  C_16
REMARK    2  A    between atoms: O_2  and  C_23
REMARK    3  A    between atoms: O_3  and  C_18
REMARK    4  A    between atoms: O_3  and  C_24
REMARK    5  A    between atoms: O_5  and  C_20
REMARK    6  A    between atoms: O_5  and  C_22
REMARK    7  A    between atoms: C_19  and  C_21
REMARK    8  A    between atoms: C_23  and  C_28
REMARK    9  A    between atoms: C_24  and  C_29
REMARK   10  A    between atoms: C_25  and  C_31
REMARK   11  A    between atoms: C_33  and  C_40
REMARK   12  A    between atoms: C_35  and  C_43
REMARK                            x       y       z     vdW  Elec       q    Type
REMARK                         _______ _______ _______ _____ _____    ______ ____
ROOT
ATOM      1  O   UNL     1     109.979 128.354 140.787  0.00  0.00    +0.000 OA
ATOM      2  O   UNL     1     109.886 126.045 139.901  0.00  0.00    +0.000 OA
ATOM      3  C   UNL     1     109.226 127.189 140.443  0.00  0.00    +0.000 C 
ATOM      4  C   UNL     1     109.917 126.815 140.196  0.00  0.00    +0.000 C 
ATOM      5  C   UNL     1     110.640 127.209 140.244  0.00  0.00    +0.000 C 
ATOM      6  C   UNL     1     109.256 127.959 140.739  0.00  0.00    +0.000 C 
ATOM      7  C   UNL     1     110.671 127.979 140.539  0.00  0.00    +0.000 C 
ENDROOT
BRANCH   6   9
ATOM      8  O   UNL     1     108.350 129.062 140.662  0.00  0.00    +0.000 OA
ATOM      9  C   UNL     1     108.564 128.334 140.986  0.00  0.00    +0.000 C 
ENDBRANCH   6   9
BRANCH   3  10
ATOM     10  O   UNL     1     108.502 126.795 140.396  0.00  0.00    +0.000 OA
BRANCH  10  12
ATOM     11  O   UNL     1     108.609 126.222 141.700  0.00  0.00    +0.000 OA
ATOM     12  C   UNL     1     108.327 126.187 140.925  0.00  0.00    +0.000 C 
BRANCH  12  13
ATOM     13  C   UNL     1     107.872 125.544 140.680  0.00  0.00    +0.000 C 
ATOM     14  C   UNL     1     107.139 125.401 141.030  0.00  0.00    +0.000 C 
BRANCH  14  16
ATOM     15  O   UNL     1     105.318 122.828 140.052  0.00  0.00    +0.000 OA
ATOM     16  C   UNL     1     106.684 124.758 140.786  0.00  0.00    +0.000 A 
ATOM     17  C   UNL     1     106.838 124.006 141.087  0.00  0.00    +0.000 A 
ATOM     18  C   UNL     1     106.075 124.867 140.240  0.00  0.00    +0.000 A 
ATOM     19  C   UNL     1     106.382 123.362 140.842  0.00  0.00    +0.000 A 
ATOM     20  C   UNL     1     105.620 124.225 139.996  0.00  0.00    +0.000 A 
ATOM     21  C   UNL     1     105.774 123.472 140.297  0.00  0.00    +0.000 A 
ENDBRANCH  14  16
ENDBRANCH  12  13
ENDBRANCH  10  12
ENDBRANCH   3  10
BRANCH   5  22
ATOM     22  O   UNL     1     111.332 126.835 139.996  0.00  0.00    +0.000 OA
BRANCH  22  24
ATOM     23  O   UNL     1     110.938 126.991 138.631  0.00  0.00    +0.000 OA
ATOM     24  C   UNL     1     111.452 126.678 139.195  0.00  0.00    +0.000 C 
BRANCH  24  25
ATOM     25  C   UNL     1     112.086 126.205 138.958  0.00  0.00    +0.000 C 
ATOM     26  C   UNL     1     112.461 126.350 138.237  0.00  0.00    +0.000 C 
BRANCH  26  28
ATOM     27  O   UNL     1     114.996 124.462 137.288  0.00  0.00    +0.000 OA
ATOM     28  C   UNL     1     113.094 125.878 138.000  0.00  0.00    +0.000 A 
ATOM     29  C   UNL     1     113.851 126.024 138.295  0.00  0.00    +0.000 A 
ATOM     30  C   UNL     1     112.972 125.260 137.468  0.00  0.00    +0.000 A 
ATOM     31  C   UNL     1     114.484 125.552 138.058  0.00  0.00    +0.000 A 
ATOM     32  C   UNL     1     113.606 124.788 137.230  0.00  0.00    +0.000 A 
ATOM     33  C   UNL     1     114.362 124.934 137.526  0.00  0.00    +0.000 A 
ENDBRANCH  26  28
ENDBRANCH  24  25
ENDBRANCH  22  24
ENDBRANCH   5  22
BRANCH   7  34
ATOM     34  O   UNL     1     111.393 128.374 140.587  0.00  0.00    +0.000 OA
BRANCH  34  39
ATOM     35  O   UNL     1     111.871 130.238 141.620  0.00  0.00    +0.000 OA
ATOM     36  O   UNL     1     111.244 127.905 142.162  0.00  0.00    +0.000 OA
ATOM     37  O   UNL     1     111.296 128.189 143.575  0.00  0.00    +0.000 OA
ATOM     38  O   UNL     1     111.998 130.884 144.457  0.00  0.00    +0.000 OA
ATOM     39  C   UNL     1     111.528 128.917 141.194  0.00  0.00    +0.000 A 
ATOM     40  C   UNL     1     111.737 129.694 141.012  0.00  0.00    +0.000 A 
ATOM     41  C   UNL     1     111.453 128.682 141.980  0.00  0.00    +0.000 A 
ATOM     42  C   UNL     1     111.587 129.225 142.588  0.00  0.00    +0.000 A 
ATOM     43  C   UNL     1     111.796 130.002 142.407  0.00  0.00    +0.000 A 
ATOM     44  C   UNL     1     111.506 128.968 143.404  0.00  0.00    +0.000 A 
ATOM     45  C   UNL     1     111.939 130.577 143.030  0.00  0.00    +0.000 A 
ATOM     46  C   UNL     1     111.645 129.528 144.041  0.00  0.00    +0.000 A 
ATOM     47  C   UNL     1     111.863 130.339 143.852  0.00  0.00    +0.000 A 
BRANCH  40  49
ATOM     48  O   UNL     1     112.036 130.634 137.863  0.00  0.00    +0.000 OA
ATOM     49  C   UNL     1     111.812 129.929 140.226  0.00  0.00    +0.000 A 
ATOM     50  C   UNL     1     111.193 130.328 139.854  0.00  0.00    +0.000 A 
ATOM     51  C   UNL     1     112.505 129.765 139.810  0.00  0.00    +0.000 A 
ATOM     52  C   UNL     1     111.268 130.564 139.066  0.00  0.00    +0.000 A 
ATOM     53  C   UNL     1     112.580 130.000 139.023  0.00  0.00    +0.000 A 
ATOM     54  C   UNL     1     111.961 130.399 138.651  0.00  0.00    +0.000 A 
ENDBRANCH  40  49
ENDBRANCH  34  39
ENDBRANCH   7  34
TORSDOF 12
ENDMDL
MODEL 10
REMARK VINA RESULT:      -9.5      5.902      8.995
REMARK  Name = 6438582
REMARK  12 active torsions:
REMARK  status: ('A' for Active; 'I' for Inactive)
REMARK    1  A    between atoms: O_2  and  C_16
REMARK    2  A    between atoms: O_2  and  C_23
REMARK    3  A    between atoms: O_3  and  C_18
REMARK    4  A    between atoms: O_3  and  C_24
REMARK    5  A    between atoms: O_5  and  C_20
REMARK    6  A    between atoms: O_5  and  C_22
REMARK    7  A    between atoms: C_19  and  C_21
REMARK    8  A    between atoms: C_23  and  C_28
REMARK    9  A    between atoms: C_24  and  C_29
REMARK   10  A    between atoms: C_25  and  C_31
REMARK   11  A    between atoms: C_33  and  C_40
REMARK   12  A    between atoms: C_35  and  C_43
REMARK                            x       y       z     vdW  Elec       q    Type
REMARK                         _______ _______ _______ _____ _____    ______ ____
ROOT
ATOM      1  O   UNL     1     110.002 130.316 138.558  0.00  0.00    +0.000 OA
ATOM      2  O   UNL     1     109.548 128.169 139.701  0.00  0.00    +0.000 OA
ATOM      3  C   UNL     1     109.607 129.595 139.727  0.00  0.00    +0.000 C 
ATOM      4  C   UNL     1     109.699 128.884 139.320  0.00  0.00    +0.000 C 
ATOM      5  C   UNL     1     109.943 128.888 138.531  0.00  0.00    +0.000 C 
ATOM      6  C   UNL     1     109.758 130.311 139.346  0.00  0.00    +0.000 C 
ATOM      7  C   UNL     1     110.094 129.604 138.150  0.00  0.00    +0.000 C 
ENDROOT
BRANCH   6   9
ATOM      8  O   UNL     1     110.273 131.582 139.750  0.00  0.00    +0.000 OA
ATOM      9  C   UNL     1     109.666 131.024 139.753  0.00  0.00    +0.000 C 
ENDBRANCH   6   9
BRANCH   3  10
ATOM     10  O   UNL     1     109.363 129.592 140.515  0.00  0.00    +0.000 OA
BRANCH  10  12
ATOM     11  O   UNL     1     107.970 129.746 140.240  0.00  0.00    +0.000 OA
ATOM     12  C   UNL     1     108.576 129.433 140.703  0.00  0.00    +0.000 C 
BRANCH  12  13
ATOM     13  C   UNL     1     108.395 128.961 141.356  0.00  0.00    +0.000 C 
ATOM     14  C   UNL     1     107.696 129.087 141.774  0.00  0.00    +0.000 C 
BRANCH  14  16
ATOM     15  O   UNL     1     106.971 127.200 144.383  0.00  0.00    +0.000 OA
ATOM     16  C   UNL     1     107.515 128.615 142.426  0.00  0.00    +0.000 A 
ATOM     17  C   UNL     1     107.597 128.917 143.189  0.00  0.00    +0.000 A 
ATOM     18  C   UNL     1     107.251 127.841 142.315  0.00  0.00    +0.000 A 
ATOM     19  C   UNL     1     107.416 128.445 143.842  0.00  0.00    +0.000 A 
ATOM     20  C   UNL     1     107.070 127.370 142.967  0.00  0.00    +0.000 A 
ATOM     21  C   UNL     1     107.152 127.672 143.730  0.00  0.00    +0.000 A 
ENDBRANCH  14  16
ENDBRANCH  12  13
ENDBRANCH  10  12
ENDBRANCH   3  10
BRANCH   5  22
ATOM     22  O   UNL     1     110.035 128.177 138.124  0.00  0.00    +0.000 OA
BRANCH  22  24
ATOM     23  O   UNL     1     111.246 127.923 138.838  0.00  0.00    +0.000 OA
ATOM     24  C   UNL     1     110.673 127.683 138.296  0.00  0.00    +0.000 C 
BRANCH  24  25
ATOM     25  C   UNL     1     110.737 126.948 137.926  0.00  0.00    +0.000 C 
ATOM     26  C   UNL     1     111.481 126.642 137.743  0.00  0.00    +0.000 C 
BRANCH  26  28
ATOM     27  O   UNL     1     111.737 123.703 136.265  0.00  0.00    +0.000 OA
ATOM     28  C   UNL     1     111.545 125.908 137.374  0.00  0.00    +0.000 A 
ATOM     29  C   UNL     1     111.610 125.863 136.552  0.00  0.00    +0.000 A 
ATOM     30  C   UNL     1     111.544 125.218 137.825  0.00  0.00    +0.000 A 
ATOM     31  C   UNL     1     111.675 125.128 136.183  0.00  0.00    +0.000 A 
ATOM     32  C   UNL     1     111.608 124.482 137.456  0.00  0.00    +0.000 A 
ATOM     33  C   UNL     1     111.673 124.438 136.634  0.00  0.00    +0.000 A 
ENDBRANCH  26  28
ENDBRANCH  24  25
ENDBRANCH  22  24
ENDBRANCH   5  22
BRANCH   7  34
ATOM     34  O   UNL     1     110.338 129.609 137.362  0.00  0.00    +0.000 OA
BRANCH  34  39
ATOM     35  O   UNL     1     110.300 131.247 135.918  0.00  0.00    +0.000 OA
ATOM     36  O   UNL     1     108.712 129.801 137.151  0.00  0.00    +0.000 OA
ATOM     37  O   UNL     1     107.588 130.464 136.537  0.00  0.00    +0.000 OA
ATOM     38  O   UNL     1     108.079 132.631 134.641  0.00  0.00    +0.000 OA
ATOM     39  C   UNL     1     110.054 130.187 136.846  0.00  0.00    +0.000 A 
ATOM     40  C   UNL     1     110.584 130.668 136.435  0.00  0.00    +0.000 A 
ATOM     41  C   UNL     1     109.242 130.282 136.740  0.00  0.00    +0.000 A 
ATOM     42  C   UNL     1     108.958 130.861 136.223  0.00  0.00    +0.000 A 
ATOM     43  C   UNL     1     109.487 131.342 135.813  0.00  0.00    +0.000 A 
ATOM     44  C   UNL     1     108.110 130.950 136.122  0.00  0.00    +0.000 A 
ATOM     45  C   UNL     1     109.205 131.947 135.273  0.00  0.00    +0.000 A 
ATOM     46  C   UNL     1     107.808 131.550 135.586  0.00  0.00    +0.000 A 
ATOM     47  C   UNL     1     108.359 132.052 135.158  0.00  0.00    +0.000 A 
BRANCH  40  49
ATOM     48  O   UNL     1     113.834 130.285 136.857  0.00  0.00    +0.000 OA
ATOM     49  C   UNL     1     111.396 130.573 136.541  0.00  0.00    +0.000 A 
ATOM     50  C   UNL     1     111.795 129.968 136.146  0.00  0.00    +0.000 A 
ATOM     51  C   UNL     1     111.810 131.081 137.042  0.00  0.00    +0.000 A 
ATOM     52  C   UNL     1     112.608 129.872 136.251  0.00  0.00    +0.000 A 
ATOM     53  C   UNL     1     112.622 130.986 137.147  0.00  0.00    +0.000 A 
ATOM     54  C   UNL     1     113.021 130.381 136.752  0.00  0.00    +0.000 A 
ENDBRANCH  40  49
ENDBRANCH  34  39
ENDBRANCH   7  34
TORSDOF 12
ENDMDL
