MODEL 1
REMARK VINA RESULT:     -10.9      0.000      0.000
REMARK  Name = 74978175
REMARK  10 active torsions:
REMARK  status: ('A' for Active; 'I' for Inactive)
REMARK    1  A    between atoms: O_4  and  C_35
REMARK    2  A    between atoms: O_4  and  C_41
REMARK    3  A    between atoms: O_5  and  C_36
REMARK    4  A    between atoms: O_5  and  C_42
REMARK    5  A    between atoms: O_9  and  C_37
REMARK    6  A    between atoms: O_9  and  C_44
REMARK    7  A    between atoms: C_26  and  C_38
REMARK    8  A    between atoms: C_32  and  C_39
REMARK    9  A    between atoms: C_34  and  C_40
REMARK   10  A    between atoms: C_43  and  C_48
REMARK                            x       y       z     vdW  Elec       q    Type
REMARK                         _______ _______ _______ _____ _____    ______ ____
ROOT
ATOM      1  O   UNL     1     104.981 127.485 142.570  0.00  0.00    +0.000 OA
ATOM      2  O   UNL     1     107.288 128.250 142.101  0.00  0.00    +0.000 OA
ATOM      3  O   UNL     1     107.836 127.053 142.692  0.00  0.00    +0.000 OA
ATOM      4  C   UNL     1     105.877 128.464 142.040  0.00  0.00    +0.000 A 
ATOM      5  C   UNL     1     106.145 125.769 143.405  0.00  0.00    +0.000 A 
ATOM      6  C   UNL     1     105.107 128.210 142.197  0.00  0.00    +0.000 A 
ATOM      7  C   UNL     1     106.393 127.271 142.631  0.00  0.00    +0.000 A 
ATOM      8  C   UNL     1     106.519 127.995 142.257  0.00  0.00    +0.000 A 
ATOM      9  C   UNL     1     105.624 127.015 142.788  0.00  0.00    +0.000 A 
ATOM     10  C   UNL     1     105.479 126.263 143.176  0.00  0.00    +0.000 A 
ATOM     11  C   UNL     1     106.946 126.034 143.242  0.00  0.00    +0.000 A 
ATOM     12  C   UNL     1     107.071 126.790 142.852  0.00  0.00    +0.000 A 
ENDROOT
BRANCH   6  15
ATOM     13  O   UNL     1     103.193 129.036 140.241  0.00  0.00    +0.000 OA
ATOM     14  C   UNL     1     103.179 129.618 141.546  0.00  0.00    +0.000 A 
ATOM     15  C   UNL     1     104.465 128.679 141.980  0.00  0.00    +0.000 A 
ATOM     16  C   UNL     1     103.508 129.092 141.002  0.00  0.00    +0.000 A 
ATOM     17  C   UNL     1     103.493 129.675 142.307  0.00  0.00    +0.000 A 
ATOM     18  C   UNL     1     104.150 128.623 141.219  0.00  0.00    +0.000 A 
ATOM     19  C   UNL     1     104.136 129.205 142.524  0.00  0.00    +0.000 A 
BRANCH  14  20
ATOM     20  O   UNL     1     102.536 130.088 141.329  0.00  0.00    +0.000 OA
BRANCH  20  29
ATOM     21  O   UNL     1     103.304 131.273 141.112  0.00  0.00    +0.000 OA
ATOM     22  O   UNL     1     101.392 132.651 141.867  0.00  0.00    +0.000 OA
ATOM     23  O   UNL     1     102.797 133.377 141.398  0.00  0.00    +0.000 OA
ATOM     24  O   UNL     1     101.261 131.006 141.833  0.00  0.00    +0.000 OA
ATOM     25  C   UNL     1     102.029 132.191 141.615  0.00  0.00    +0.000 C 
ATOM     26  C   UNL     1     102.732 132.554 141.381  0.00  0.00    +0.000 C 
ATOM     27  C   UNL     1     101.964 131.369 141.598  0.00  0.00    +0.000 C 
ATOM     28  C   UNL     1     103.370 132.095 141.129  0.00  0.00    +0.000 C 
ATOM     29  C   UNL     1     102.601 130.910 141.347  0.00  0.00    +0.000 C 
BRANCH  28  31
ATOM     30  O   UNL     1     104.427 132.249 140.180  0.00  0.00    +0.000 OA
ATOM     31  C   UNL     1     104.072 132.458 140.895  0.00  0.00    +0.000 C 
ENDBRANCH  28  31
ENDBRANCH  20  29
ENDBRANCH  14  20
ENDBRANCH   6  15
BRANCH   4  32
ATOM     32  O   UNL     1     106.003 129.189 141.667  0.00  0.00    +0.000 OA
BRANCH  32  41
ATOM     33  O   UNL     1     106.436 129.873 142.844  0.00  0.00    +0.000 OA
ATOM     34  O   UNL     1     107.957 131.266 141.476  0.00  0.00    +0.000 OA
ATOM     35  O   UNL     1     107.883 131.485 143.110  0.00  0.00    +0.000 OA
ATOM     36  O   UNL     1     107.016 130.118 140.754  0.00  0.00    +0.000 OA
ATOM     37  C   UNL     1     107.450 130.801 141.932  0.00  0.00    +0.000 C 
ATOM     38  C   UNL     1     107.413 130.911 142.748  0.00  0.00    +0.000 C 
ATOM     39  C   UNL     1     106.980 130.228 141.571  0.00  0.00    +0.000 C 
ATOM     40  C   UNL     1     106.907 130.447 143.204  0.00  0.00    +0.000 C 
ATOM     41  C   UNL     1     106.473 129.763 142.027  0.00  0.00    +0.000 C 
BRANCH  40  43
ATOM     42  O   UNL     1     106.172 130.826 144.370  0.00  0.00    +0.000 OA
ATOM     43  C   UNL     1     106.870 130.556 144.022  0.00  0.00    +0.000 C 
ENDBRANCH  40  43
ENDBRANCH  32  41
ENDBRANCH   4  32
BRANCH   5  44
ATOM     44  O   UNL     1     106.016 125.044 143.778  0.00  0.00    +0.000 OA
BRANCH  44  53
ATOM     45  O   UNL     1     106.367 125.414 145.113  0.00  0.00    +0.000 OA
ATOM     46  O   UNL     1     104.419 124.155 145.976  0.00  0.00    +0.000 OA
ATOM     47  O   UNL     1     105.420 124.945 147.023  0.00  0.00    +0.000 OA
ATOM     48  O   UNL     1     104.717 124.204 144.353  0.00  0.00    +0.000 OA
ATOM     49  C   UNL     1     105.068 124.574 145.688  0.00  0.00    +0.000 C 
ATOM     50  C   UNL     1     105.568 124.969 146.211  0.00  0.00    +0.000 C 
ATOM     51  C   UNL     1     105.217 124.599 144.877  0.00  0.00    +0.000 C 
ATOM     52  C   UNL     1     106.218 125.389 145.924  0.00  0.00    +0.000 C 
ATOM     53  C   UNL     1     105.866 125.019 144.589  0.00  0.00    +0.000 C 
BRANCH  52  55
ATOM     54  O   UNL     1     107.517 125.579 146.489  0.00  0.00    +0.000 OA
ATOM     55  C   UNL     1     106.718 125.785 146.448  0.00  0.00    +0.000 C 
ENDBRANCH  52  55
ENDBRANCH  44  53
ENDBRANCH   5  44
TORSDOF 10
ENDMDL
MODEL 2
REMARK VINA RESULT:     -10.9      7.163     10.286
REMARK  Name = 74978175
REMARK  10 active torsions:
REMARK  status: ('A' for Active; 'I' for Inactive)
REMARK    1  A    between atoms: O_4  and  C_35
REMARK    2  A    between atoms: O_4  and  C_41
REMARK    3  A    between atoms: O_5  and  C_36
REMARK    4  A    between atoms: O_5  and  C_42
REMARK    5  A    between atoms: O_9  and  C_37
REMARK    6  A    between atoms: O_9  and  C_44
REMARK    7  A    between atoms: C_26  and  C_38
REMARK    8  A    between atoms: C_32  and  C_39
REMARK    9  A    between atoms: C_34  and  C_40
REMARK   10  A    between atoms: C_43  and  C_48
REMARK                            x       y       z     vdW  Elec       q    Type
REMARK                         _______ _______ _______ _____ _____    ______ ____
ROOT
ATOM      1  O   UNL     1     110.713 129.047 137.644  0.00  0.00    +0.000 OA
ATOM      2  O   UNL     1     111.353 130.119 139.782  0.00  0.00    +0.000 OA
ATOM      3  O   UNL     1     110.253 131.047 139.679  0.00  0.00    +0.000 OA
ATOM      4  C   UNL     1     111.581 129.129 138.776  0.00  0.00    +0.000 A 
ATOM      5  C   UNL     1     109.126 130.615 137.791  0.00  0.00    +0.000 A 
ATOM      6  C   UNL     1     111.368 128.772 138.063  0.00  0.00    +0.000 A 
ATOM      7  C   UNL     1     110.485 130.036 138.650  0.00  0.00    +0.000 A 
ATOM      8  C   UNL     1     111.140 129.761 139.069  0.00  0.00    +0.000 A 
ATOM      9  C   UNL     1     110.271 129.680 137.938  0.00  0.00    +0.000 A 
ATOM     10  C   UNL     1     109.591 129.956 137.491  0.00  0.00    +0.000 A 
ATOM     11  C   UNL     1     109.349 130.987 138.534  0.00  0.00    +0.000 A 
ATOM     12  C   UNL     1     110.032 130.696 138.966  0.00  0.00    +0.000 A 
ENDROOT
BRANCH   6  15
ATOM     13  O   UNL     1     113.211 127.716 136.151  0.00  0.00    +0.000 OA
ATOM     14  C   UNL     1     112.692 126.876 137.184  0.00  0.00    +0.000 A 
ATOM     15  C   UNL     1     111.809 128.140 137.770  0.00  0.00    +0.000 A 
ATOM     16  C   UNL     1     112.731 127.612 136.814  0.00  0.00    +0.000 A 
ATOM     17  C   UNL     1     112.213 126.771 137.847  0.00  0.00    +0.000 A 
ATOM     18  C   UNL     1     112.289 128.244 137.107  0.00  0.00    +0.000 A 
ATOM     19  C   UNL     1     111.771 127.404 138.140  0.00  0.00    +0.000 A 
BRANCH  14  20
ATOM     20  O   UNL     1     113.134 126.243 136.890  0.00  0.00    +0.000 OA
BRANCH  20  29
ATOM     21  O   UNL     1     112.070 125.490 136.305  0.00  0.00    +0.000 OA
ATOM     22  O   UNL     1     113.071 123.400 137.177  0.00  0.00    +0.000 OA
ATOM     23  O   UNL     1     111.674 123.343 136.301  0.00  0.00    +0.000 OA
ATOM     24  O   UNL     1     113.801 124.850 137.471  0.00  0.00    +0.000 OA
ATOM     25  C   UNL     1     112.738 124.097 136.886  0.00  0.00    +0.000 C 
ATOM     26  C   UNL     1     112.039 124.068 136.448  0.00  0.00    +0.000 C 
ATOM     27  C   UNL     1     113.103 124.822 137.033  0.00  0.00    +0.000 C 
ATOM     28  C   UNL     1     111.705 124.765 136.158  0.00  0.00    +0.000 C 
ATOM     29  C   UNL     1     112.769 125.518 136.743  0.00  0.00    +0.000 C 
BRANCH  28  31
ATOM     30  O   UNL     1     110.768 125.391 135.278  0.00  0.00    +0.000 OA
ATOM     31  C   UNL     1     111.007 124.736 135.720  0.00  0.00    +0.000 C 
ENDBRANCH  28  31
ENDBRANCH  20  29
ENDBRANCH  14  20
ENDBRANCH   6  15
BRANCH   4  32
ATOM     32  O   UNL     1     112.236 128.854 139.195  0.00  0.00    +0.000 OA
BRANCH  32  41
ATOM     33  O   UNL     1     113.115 129.908 138.795  0.00  0.00    +0.000 OA
ATOM     34  O   UNL     1     114.240 129.806 140.997  0.00  0.00    +0.000 OA
ATOM     35  O   UNL     1     114.744 130.894 139.863  0.00  0.00    +0.000 OA
ATOM     36  O   UNL     1     112.986 128.787 140.663  0.00  0.00    +0.000 OA
ATOM     37  C   UNL     1     113.865 129.840 140.263  0.00  0.00    +0.000 C 
ATOM     38  C   UNL     1     114.117 130.383 139.696  0.00  0.00    +0.000 C 
ATOM     39  C   UNL     1     113.238 129.330 140.097  0.00  0.00    +0.000 C 
ATOM     40  C   UNL     1     113.742 130.417 138.962  0.00  0.00    +0.000 C 
ATOM     41  C   UNL     1     112.863 129.364 139.363  0.00  0.00    +0.000 C 
BRANCH  40  43
ATOM     42  O   UNL     1     114.290 130.695 137.673  0.00  0.00    +0.000 OA
ATOM     43  C   UNL     1     113.993 130.961 138.395  0.00  0.00    +0.000 C 
ENDBRANCH  40  43
ENDBRANCH  32  41
ENDBRANCH   4  32
BRANCH   5  44
ATOM     44  O   UNL     1     108.471 130.888 137.370  0.00  0.00    +0.000 OA
BRANCH  44  53
ATOM     45  O   UNL     1     109.195 131.879 136.637  0.00  0.00    +0.000 OA
ATOM     46  O   UNL     1     107.671 131.568 134.712  0.00  0.00    +0.000 OA
ATOM     47  O   UNL     1     108.902 132.663 134.621  0.00  0.00    +0.000 OA
ATOM     48  O   UNL     1     107.455 130.680 136.086  0.00  0.00    +0.000 OA
ATOM     49  C   UNL     1     108.178 131.671 135.354  0.00  0.00    +0.000 C 
ATOM     50  C   UNL     1     108.794 132.218 135.308  0.00  0.00    +0.000 C 
ATOM     51  C   UNL     1     108.071 131.227 136.041  0.00  0.00    +0.000 C 
ATOM     52  C   UNL     1     109.302 132.322 135.950  0.00  0.00    +0.000 C 
ATOM     53  C   UNL     1     108.579 131.331 136.683  0.00  0.00    +0.000 C 
BRANCH  52  55
ATOM     54  O   UNL     1     110.086 133.356 136.551  0.00  0.00    +0.000 OA
ATOM     55  C   UNL     1     109.918 132.870 135.905  0.00  0.00    +0.000 C 
ENDBRANCH  52  55
ENDBRANCH  44  53
ENDBRANCH   5  44
TORSDOF 10
ENDMDL
MODEL 3
REMARK VINA RESULT:     -10.8      6.733      8.165
REMARK  Name = 74978175
REMARK  10 active torsions:
REMARK  status: ('A' for Active; 'I' for Inactive)
REMARK    1  A    between atoms: O_4  and  C_35
REMARK    2  A    between atoms: O_4  and  C_41
REMARK    3  A    between atoms: O_5  and  C_36
REMARK    4  A    between atoms: O_5  and  C_42
REMARK    5  A    between atoms: O_9  and  C_37
REMARK    6  A    between atoms: O_9  and  C_44
REMARK    7  A    between atoms: C_26  and  C_38
REMARK    8  A    between atoms: C_32  and  C_39
REMARK    9  A    between atoms: C_34  and  C_40
REMARK   10  A    between atoms: C_43  and  C_48
REMARK                            x       y       z     vdW  Elec       q    Type
REMARK                         _______ _______ _______ _____ _____    ______ ____
ROOT
ATOM      1  O   UNL     1     111.325 128.725 139.610  0.00  0.00    +0.000 OA
ATOM      2  O   UNL     1     112.956 128.832 141.469  0.00  0.00    +0.000 OA
ATOM      3  O   UNL     1     113.170 127.407 141.401  0.00  0.00    +0.000 OA
ATOM      4  C   UNL     1     112.043 129.485 140.584  0.00  0.00    +0.000 A 
ATOM      5  C   UNL     1     111.884 126.567 139.770  0.00  0.00    +0.000 A 
ATOM      6  C   UNL     1     111.500 129.450 139.964  0.00  0.00    +0.000 A 
ATOM      7  C   UNL     1     112.237 128.072 140.495  0.00  0.00    +0.000 A 
ATOM      8  C   UNL     1     112.412 128.797 140.849  0.00  0.00    +0.000 A 
ATOM      9  C   UNL     1     111.694 128.036 139.875  0.00  0.00    +0.000 A 
ATOM     10  C   UNL     1     111.503 127.288 139.498  0.00  0.00    +0.000 A 
ATOM     11  C   UNL     1     112.451 126.604 140.416  0.00  0.00    +0.000 A 
ATOM     12  C   UNL     1     112.628 127.361 140.780  0.00  0.00    +0.000 A 
ENDROOT
BRANCH   6  15
ATOM     13  O   UNL     1     109.529 131.491 140.304  0.00  0.00    +0.000 OA
ATOM     14  C   UNL     1     110.394 131.514 139.167  0.00  0.00    +0.000 A 
ATOM     15  C   UNL     1     111.131 130.137 139.699  0.00  0.00    +0.000 A 
ATOM     16  C   UNL     1     110.146 131.158 139.869  0.00  0.00    +0.000 A 
ATOM     17  C   UNL     1     111.010 131.183 138.731  0.00  0.00    +0.000 A 
ATOM     18  C   UNL     1     110.515 130.471 140.134  0.00  0.00    +0.000 A 
ATOM     19  C   UNL     1     111.379 130.494 138.997  0.00  0.00    +0.000 A 
BRANCH  14  20
ATOM     20  O   UNL     1     110.025 132.204 138.901  0.00  0.00    +0.000 OA
BRANCH  20  29
ATOM     21  O   UNL     1     109.373 131.745 137.715  0.00  0.00    +0.000 OA
ATOM     22  O   UNL     1     110.291 133.674 136.465  0.00  0.00    +0.000 OA
ATOM     23  O   UNL     1     109.333 132.573 135.695  0.00  0.00    +0.000 OA
ATOM     24  O   UNL     1     110.637 133.489 138.067  0.00  0.00    +0.000 OA
ATOM     25  C   UNL     1     109.985 133.031 136.882  0.00  0.00    +0.000 C 
ATOM     26  C   UNL     1     109.506 132.480 136.497  0.00  0.00    +0.000 C 
ATOM     27  C   UNL     1     110.158 132.938 137.683  0.00  0.00    +0.000 C 
ATOM     28  C   UNL     1     109.199 131.837 136.914  0.00  0.00    +0.000 C 
ATOM     29  C   UNL     1     109.852 132.296 138.099  0.00  0.00    +0.000 C 
BRANCH  28  31
ATOM     30  O   UNL     1     108.016 131.036 136.878  0.00  0.00    +0.000 OA
ATOM     31  C   UNL     1     108.720 131.287 136.529  0.00  0.00    +0.000 C 
ENDBRANCH  28  31
ENDBRANCH  20  29
ENDBRANCH  14  20
ENDBRANCH   6  15
BRANCH   4  32
ATOM     32  O   UNL     1     112.218 130.209 140.938  0.00  0.00    +0.000 OA
BRANCH  32  41
ATOM     33  O   UNL     1     113.502 130.318 140.320  0.00  0.00    +0.000 OA
ATOM     34  O   UNL     1     114.312 131.657 142.237  0.00  0.00    +0.000 OA
ATOM     35  O   UNL     1     115.326 131.319 140.980  0.00  0.00    +0.000 OA
ATOM     36  O   UNL     1     112.758 131.102 142.216  0.00  0.00    +0.000 OA
ATOM     37  C   UNL     1     114.042 131.210 141.598  0.00  0.00    +0.000 C 
ATOM     38  C   UNL     1     114.549 131.042 140.970  0.00  0.00    +0.000 C 
ATOM     39  C   UNL     1     113.265 130.933 141.588  0.00  0.00    +0.000 C 
ATOM     40  C   UNL     1     114.279 130.595 140.331  0.00  0.00    +0.000 C 
ATOM     41  C   UNL     1     112.995 130.487 140.949  0.00  0.00    +0.000 C 
BRANCH  40  43
ATOM     42  O   UNL     1     114.602 130.691 138.942  0.00  0.00    +0.000 OA
ATOM     43  C   UNL     1     114.786 130.426 139.702  0.00  0.00    +0.000 C 
ENDBRANCH  40  43
ENDBRANCH  32  41
ENDBRANCH   4  32
BRANCH   5  44
ATOM     44  O   UNL     1     111.708 125.844 139.414  0.00  0.00    +0.000 OA
BRANCH  44  53
ATOM     45  O   UNL     1     112.797 125.799 138.490  0.00  0.00    +0.000 OA
ATOM     46  O   UNL     1     111.282 124.906 136.747  0.00  0.00    +0.000 OA
ATOM     47  O   UNL     1     112.877 125.158 136.404  0.00  0.00    +0.000 OA
ATOM     48  O   UNL     1     110.697 125.249 138.252  0.00  0.00    +0.000 OA
ATOM     49  C   UNL     1     111.787 125.204 137.328  0.00  0.00    +0.000 C 
ATOM     50  C   UNL     1     112.584 125.330 137.157  0.00  0.00    +0.000 C 
ATOM     51  C   UNL     1     111.495 125.375 138.081  0.00  0.00    +0.000 C 
ATOM     52  C   UNL     1     113.089 125.627 137.737  0.00  0.00    +0.000 C 
ATOM     53  C   UNL     1     112.000 125.672 138.661  0.00  0.00    +0.000 C 
BRANCH  52  55
ATOM     54  O   UNL     1     114.469 125.404 138.035  0.00  0.00    +0.000 OA
ATOM     55  C   UNL     1     113.886 125.753 137.566  0.00  0.00    +0.000 C 
ENDBRANCH  52  55
ENDBRANCH  44  53
ENDBRANCH   5  44
TORSDOF 10
ENDMDL
MODEL 4
REMARK VINA RESULT:     -10.8      6.368      9.007
REMARK  Name = 74978175
REMARK  10 active torsions:
REMARK  status: ('A' for Active; 'I' for Inactive)
REMARK    1  A    between atoms: O_4  and  C_35
REMARK    2  A    between atoms: O_4  and  C_41
REMARK    3  A    between atoms: O_5  and  C_36
REMARK    4  A    between atoms: O_5  and  C_42
REMARK    5  A    between atoms: O_9  and  C_37
REMARK    6  A    between atoms: O_9  and  C_44
REMARK    7  A    between atoms: C_26  and  C_38
REMARK    8  A    between atoms: C_32  and  C_39
REMARK    9  A    between atoms: C_34  and  C_40
REMARK   10  A    between atoms: C_43  and  C_48
REMARK                            x       y       z     vdW  Elec       q    Type
REMARK                         _______ _______ _______ _____ _____    ______ ____
ROOT
ATOM      1  O   UNL     1     113.024 127.776 138.700  0.00  0.00    +0.000 OA
ATOM      2  O   UNL     1     112.533 129.601 137.102  0.00  0.00    +0.000 OA
ATOM      3  O   UNL     1     112.858 128.749 135.984  0.00  0.00    +0.000 OA
ATOM      4  C   UNL     1     112.615 129.121 138.445  0.00  0.00    +0.000 A 
ATOM      5  C   UNL     1     113.450 126.735 136.769  0.00  0.00    +0.000 A 
ATOM      6  C   UNL     1     112.779 128.513 138.979  0.00  0.00    +0.000 A 
ATOM      7  C   UNL     1     112.942 128.256 137.357  0.00  0.00    +0.000 A 
ATOM      8  C   UNL     1     112.696 128.993 137.635  0.00  0.00    +0.000 A 
ATOM      9  C   UNL     1     113.106 127.648 137.889  0.00  0.00    +0.000 A 
ATOM     10  C   UNL     1     113.363 126.876 137.612  0.00  0.00    +0.000 A 
ATOM     11  C   UNL     1     113.279 127.369 136.213  0.00  0.00    +0.000 A 
ATOM     12  C   UNL     1     113.024 128.134 136.509  0.00  0.00    +0.000 A 
ENDROOT
BRANCH   6  15
ATOM     13  O   UNL     1     113.748 129.648 141.415  0.00  0.00    +0.000 OA
ATOM     14  C   UNL     1     112.533 128.897 141.411  0.00  0.00    +0.000 A 
ATOM     15  C   UNL     1     112.697 128.641 139.789  0.00  0.00    +0.000 A 
ATOM     16  C   UNL     1     113.182 129.209 141.007  0.00  0.00    +0.000 A 
ATOM     17  C   UNL     1     111.966 128.458 141.004  0.00  0.00    +0.000 A 
ATOM     18  C   UNL     1     113.263 129.081 140.197  0.00  0.00    +0.000 A 
ATOM     19  C   UNL     1     112.048 128.330 140.192  0.00  0.00    +0.000 A 
BRANCH  14  20
ATOM     20  O   UNL     1     112.451 129.025 142.222  0.00  0.00    +0.000 OA
BRANCH  20  29
ATOM     21  O   UNL     1     111.451 130.043 142.137  0.00  0.00    +0.000 OA
ATOM     22  O   UNL     1     110.351 129.131 144.158  0.00  0.00    +0.000 OA
ATOM     23  O   UNL     1     109.718 130.452 143.400  0.00  0.00    +0.000 OA
ATOM     24  O   UNL     1     111.718 128.418 143.570  0.00  0.00    +0.000 OA
ATOM     25  C   UNL     1     110.718 129.435 143.484  0.00  0.00    +0.000 C 
ATOM     26  C   UNL     1     110.401 130.096 143.105  0.00  0.00    +0.000 C 
ATOM     27  C   UNL     1     111.401 129.078 143.190  0.00  0.00    +0.000 C 
ATOM     28  C   UNL     1     110.768 130.400 142.431  0.00  0.00    +0.000 C 
ATOM     29  C   UNL     1     111.768 129.382 142.516  0.00  0.00    +0.000 C 
BRANCH  28  31
ATOM     30  O   UNL     1     110.943 131.683 141.827  0.00  0.00    +0.000 OA
ATOM     31  C   UNL     1     110.451 131.060 142.052  0.00  0.00    +0.000 C 
ENDBRANCH  28  31
ENDBRANCH  20  29
ENDBRANCH  14  20
ENDBRANCH   6  15
BRANCH   4  32
ATOM     32  O   UNL     1     112.369 129.858 138.724  0.00  0.00    +0.000 OA
BRANCH  32  41
ATOM     33  O   UNL     1     111.003 129.661 138.354  0.00  0.00    +0.000 OA
ATOM     34  O   UNL     1     110.735 132.102 138.045  0.00  0.00    +0.000 OA
ATOM     35  O   UNL     1     109.458 131.092 137.779  0.00  0.00    +0.000 OA
ATOM     36  O   UNL     1     112.190 131.485 138.518  0.00  0.00    +0.000 OA
ATOM     37  C   UNL     1     110.824 131.288 138.148  0.00  0.00    +0.000 C 
ATOM     38  C   UNL     1     110.186 130.784 138.015  0.00  0.00    +0.000 C 
ATOM     39  C   UNL     1     111.552 130.981 138.384  0.00  0.00    +0.000 C 
ATOM     40  C   UNL     1     110.275 129.970 138.118  0.00  0.00    +0.000 C 
ATOM     41  C   UNL     1     111.642 130.167 138.487  0.00  0.00    +0.000 C 
BRANCH  40  43
ATOM     42  O   UNL     1     109.308 129.042 138.613  0.00  0.00    +0.000 OA
ATOM     43  C   UNL     1     109.636 129.464 137.985  0.00  0.00    +0.000 C 
ENDBRANCH  40  43
ENDBRANCH  32  41
ENDBRANCH   4  32
BRANCH   5  44
ATOM     44  O   UNL     1     113.696 125.997 136.493  0.00  0.00    +0.000 OA
BRANCH  44  53
ATOM     45  O   UNL     1     112.404 125.427 136.277  0.00  0.00    +0.000 OA
ATOM     46  O   UNL     1     113.211 123.261 137.162  0.00  0.00    +0.000 OA
ATOM     47  O   UNL     1     111.650 123.413 136.650  0.00  0.00    +0.000 OA
ATOM     48  O   UNL     1     114.235 124.554 137.084  0.00  0.00    +0.000 OA
ATOM     49  C   UNL     1     112.943 123.983 136.867  0.00  0.00    +0.000 C 
ATOM     50  C   UNL     1     112.162 124.059 136.611  0.00  0.00    +0.000 C 
ATOM     51  C   UNL     1     113.454 124.629 136.828  0.00  0.00    +0.000 C 
ATOM     52  C   UNL     1     111.893 124.781 136.316  0.00  0.00    +0.000 C 
ATOM     53  C   UNL     1     113.185 125.351 136.532  0.00  0.00    +0.000 C 
BRANCH  52  55
ATOM     54  O   UNL     1     110.948 125.230 135.342  0.00  0.00    +0.000 OA
ATOM     55  C   UNL     1     111.112 124.856 136.060  0.00  0.00    +0.000 C 
ENDBRANCH  52  55
ENDBRANCH  44  53
ENDBRANCH   5  44
TORSDOF 10
ENDMDL
MODEL 5
REMARK VINA RESULT:     -10.6      6.428      8.325
REMARK  Name = 74978175
REMARK  10 active torsions:
REMARK  status: ('A' for Active; 'I' for Inactive)
REMARK    1  A    between atoms: O_4  and  C_35
REMARK    2  A    between atoms: O_4  and  C_41
REMARK    3  A    between atoms: O_5  and  C_36
REMARK    4  A    between atoms: O_5  and  C_42
REMARK    5  A    between atoms: O_9  and  C_37
REMARK    6  A    between atoms: O_9  and  C_44
REMARK    7  A    between atoms: C_26  and  C_38
REMARK    8  A    between atoms: C_32  and  C_39
REMARK    9  A    between atoms: C_34  and  C_40
REMARK   10  A    between atoms: C_43  and  C_48
REMARK                            x       y       z     vdW  Elec       q    Type
REMARK                         _______ _______ _______ _____ _____    ______ ____
ROOT
ATOM      1  O   UNL     1     112.201 129.387 138.977  0.00  0.00    +0.000 OA
ATOM      2  O   UNL     1     113.344 127.192 138.937  0.00  0.00    +0.000 OA
ATOM      3  O   UNL     1     113.980 127.467 140.203  0.00  0.00    +0.000 OA
ATOM      4  C   UNL     1     112.465 128.141 138.331  0.00  0.00    +0.000 A 
ATOM      5  C   UNL     1     113.333 129.495 140.902  0.00  0.00    +0.000 A 
ATOM      6  C   UNL     1     112.083 128.872 138.344  0.00  0.00    +0.000 A 
ATOM      7  C   UNL     1     113.081 128.438 139.584  0.00  0.00    +0.000 A 
ATOM      8  C   UNL     1     112.963 127.924 138.950  0.00  0.00    +0.000 A 
ATOM      9  C   UNL     1     112.700 129.170 139.598  0.00  0.00    +0.000 A 
ATOM     10  C   UNL     1     112.814 129.715 140.253  0.00  0.00    +0.000 A 
ATOM     11  C   UNL     1     113.730 128.732 140.888  0.00  0.00    +0.000 A 
ATOM     12  C   UNL     1     113.603 128.201 140.225  0.00  0.00    +0.000 A 
ENDROOT
BRANCH   6  15
ATOM     13  O   UNL     1     111.724 129.762 135.651  0.00  0.00    +0.000 OA
ATOM     14  C   UNL     1     110.587 129.524 136.483  0.00  0.00    +0.000 A 
ATOM     15  C   UNL     1     111.585 129.089 137.724  0.00  0.00    +0.000 A 
ATOM     16  C   UNL     1     111.405 129.534 136.378  0.00  0.00    +0.000 A 
ATOM     17  C   UNL     1     110.268 129.296 137.209  0.00  0.00    +0.000 A 
ATOM     18  C   UNL     1     111.904 129.317 136.998  0.00  0.00    +0.000 A 
ATOM     19  C   UNL     1     110.767 129.079 137.830  0.00  0.00    +0.000 A 
BRANCH  14  20
ATOM     20  O   UNL     1     110.088 129.741 135.863  0.00  0.00    +0.000 OA
BRANCH  20  29
ATOM     21  O   UNL     1     109.690 131.045 136.289  0.00  0.00    +0.000 OA
ATOM     22  O   UNL     1     107.335 130.501 135.754  0.00  0.00    +0.000 OA
ATOM     23  O   UNL     1     107.721 131.987 136.358  0.00  0.00    +0.000 OA
ATOM     24  O   UNL     1     108.518 129.378 135.506  0.00  0.00    +0.000 OA
ATOM     25  C   UNL     1     108.120 130.682 135.932  0.00  0.00    +0.000 C 
ATOM     26  C   UNL     1     108.313 131.425 136.234  0.00  0.00    +0.000 C 
ATOM     27  C   UNL     1     108.712 130.121 135.808  0.00  0.00    +0.000 C 
ATOM     28  C   UNL     1     109.098 131.607 136.412  0.00  0.00    +0.000 C 
ATOM     29  C   UNL     1     109.496 130.302 135.987  0.00  0.00    +0.000 C 
BRANCH  28  31
ATOM     30  O   UNL     1     109.974 132.735 136.459  0.00  0.00    +0.000 OA
ATOM     31  C   UNL     1     109.291 132.350 136.714  0.00  0.00    +0.000 C 
ENDBRANCH  28  31
ENDBRANCH  20  29
ENDBRANCH  14  20
ENDBRANCH   6  15
BRANCH   4  32
ATOM     32  O   UNL     1     112.347 127.626 137.697  0.00  0.00    +0.000 OA
BRANCH  32  41
ATOM     33  O   UNL     1     111.489 126.738 138.416  0.00  0.00    +0.000 OA
ATOM     34  O   UNL     1     112.319 124.839 137.063  0.00  0.00    +0.000 OA
ATOM     35  O   UNL     1     111.184 124.585 138.234  0.00  0.00    +0.000 OA
ATOM     36  O   UNL     1     112.900 126.360 136.795  0.00  0.00    +0.000 OA
ATOM     37  C   UNL     1     112.042 125.472 137.514  0.00  0.00    +0.000 C 
ATOM     38  C   UNL     1     111.475 125.345 138.099  0.00  0.00    +0.000 C 
ATOM     39  C   UNL     1     112.333 126.233 137.380  0.00  0.00    +0.000 C 
ATOM     40  C   UNL     1     111.199 125.978 138.550  0.00  0.00    +0.000 C 
ATOM     41  C   UNL     1     112.057 126.866 137.831  0.00  0.00    +0.000 C 
BRANCH  40  43
ATOM     42  O   UNL     1     109.885 126.196 139.069  0.00  0.00    +0.000 OA
ATOM     43  C   UNL     1     110.631 125.851 139.136  0.00  0.00    +0.000 C 
ENDBRANCH  40  43
ENDBRANCH  32  41
ENDBRANCH   4  32
BRANCH   5  44
ATOM     44  O   UNL     1     113.449 130.012 141.535  0.00  0.00    +0.000 OA
BRANCH  44  53
ATOM     45  O   UNL     1     112.381 129.530 142.353  0.00  0.00    +0.000 OA
ATOM     46  O   UNL     1     111.902 131.843 143.092  0.00  0.00    +0.000 OA
ATOM     47  O   UNL     1     110.994 130.590 143.664  0.00  0.00    +0.000 OA
ATOM     48  O   UNL     1     113.130 131.554 142.027  0.00  0.00    +0.000 OA
ATOM     49  C   UNL     1     112.062 131.072 142.845  0.00  0.00    +0.000 C 
ATOM     50  C   UNL     1     111.608 130.446 143.131  0.00  0.00    +0.000 C 
ATOM     51  C   UNL     1     112.676 130.928 142.313  0.00  0.00    +0.000 C 
ATOM     52  C   UNL     1     111.767 129.675 142.885  0.00  0.00    +0.000 C 
ATOM     53  C   UNL     1     112.835 130.157 142.067  0.00  0.00    +0.000 C 
BRANCH  52  55
ATOM     54  O   UNL     1     111.680 128.411 143.548  0.00  0.00    +0.000 OA
ATOM     55  C   UNL     1     111.313 129.048 143.171  0.00  0.00    +0.000 C 
ENDBRANCH  52  55
ENDBRANCH  44  53
ENDBRANCH   5  44
TORSDOF 10
ENDMDL
MODEL 6
REMARK VINA RESULT:     -10.6      6.061      9.560
REMARK  Name = 74978175
REMARK  10 active torsions:
REMARK  status: ('A' for Active; 'I' for Inactive)
REMARK    1  A    between atoms: O_4  and  C_35
REMARK    2  A    between atoms: O_4  and  C_41
REMARK    3  A    between atoms: O_5  and  C_36
REMARK    4  A    between atoms: O_5  and  C_42
REMARK    5  A    between atoms: O_9  and  C_37
REMARK    6  A    between atoms: O_9  and  C_44
REMARK    7  A    between atoms: C_26  and  C_38
REMARK    8  A    between atoms: C_32  and  C_39
REMARK    9  A    between atoms: C_34  and  C_40
REMARK   10  A    between atoms: C_43  and  C_48
REMARK                            x       y       z     vdW  Elec       q    Type
REMARK                         _______ _______ _______ _____ _____    ______ ____
ROOT
ATOM      1  O   UNL     1     111.249 128.128 138.059  0.00  0.00    +0.000 OA
ATOM      2  O   UNL     1     111.889 126.861 136.031  0.00  0.00    +0.000 OA
ATOM      3  O   UNL     1     112.268 128.078 135.355  0.00  0.00    +0.000 OA
ATOM      4  C   UNL     1     111.385 126.885 137.368  0.00  0.00    +0.000 A 
ATOM      5  C   UNL     1     111.918 129.804 136.739  0.00  0.00    +0.000 A 
ATOM      6  C   UNL     1     111.171 127.307 138.044  0.00  0.00    +0.000 A 
ATOM      7  C   UNL     1     111.753 128.104 136.722  0.00  0.00    +0.000 A 
ATOM      8  C   UNL     1     111.675 127.283 136.707  0.00  0.00    +0.000 A 
ATOM      9  C   UNL     1     111.540 128.527 137.397  0.00  0.00    +0.000 A 
ATOM     10  C   UNL     1     111.616 129.382 137.425  0.00  0.00    +0.000 A 
ATOM     11  C   UNL     1     112.140 129.364 136.035  0.00  0.00    +0.000 A 
ATOM     12  C   UNL     1     112.057 128.509 136.026  0.00  0.00    +0.000 A 
ENDROOT
BRANCH   6  15
ATOM     13  O   UNL     1     111.538 126.329 140.704  0.00  0.00    +0.000 OA
ATOM     14  C   UNL     1     110.299 126.112 140.027  0.00  0.00    +0.000 A 
ATOM     15  C   UNL     1     110.881 126.909 138.705  0.00  0.00    +0.000 A 
ATOM     16  C   UNL     1     111.064 126.420 140.035  0.00  0.00    +0.000 A 
ATOM     17  C   UNL     1     109.824 126.202 139.359  0.00  0.00    +0.000 A 
ATOM     18  C   UNL     1     111.355 126.818 139.374  0.00  0.00    +0.000 A 
ATOM     19  C   UNL     1     110.116 126.601 138.697  0.00  0.00    +0.000 A 
BRANCH  14  20
ATOM     20  O   UNL     1     110.008 125.713 140.689  0.00  0.00    +0.000 OA
BRANCH  20  29
ATOM     21  O   UNL     1     109.099 126.698 141.185  0.00  0.00    +0.000 OA
ATOM     22  O   UNL     1     107.397 124.938 141.555  0.00  0.00    +0.000 OA
ATOM     23  O   UNL     1     107.055 126.509 141.928  0.00  0.00    +0.000 OA
ATOM     24  O   UNL     1     108.873 124.540 140.936  0.00  0.00    +0.000 OA
ATOM     25  C   UNL     1     107.964 125.525 141.432  0.00  0.00    +0.000 C 
ATOM     26  C   UNL     1     107.793 126.310 141.618  0.00  0.00    +0.000 C 
ATOM     27  C   UNL     1     108.703 125.326 141.122  0.00  0.00    +0.000 C 
ATOM     28  C   UNL     1     108.361 126.897 141.495  0.00  0.00    +0.000 C 
ATOM     29  C   UNL     1     109.269 125.912 140.999  0.00  0.00    +0.000 C 
BRANCH  28  31
ATOM     30  O   UNL     1     108.755 128.150 142.056  0.00  0.00    +0.000 OA
ATOM     31  C   UNL     1     108.189 127.681 141.682  0.00  0.00    +0.000 C 
ENDBRANCH  28  31
ENDBRANCH  20  29
ENDBRANCH  14  20
ENDBRANCH   6  15
BRANCH   4  32
ATOM     32  O   UNL     1     111.307 126.064 137.353  0.00  0.00    +0.000 OA
BRANCH  32  41
ATOM     33  O   UNL     1     112.709 125.824 137.497  0.00  0.00    +0.000 OA
ATOM     34  O   UNL     1     112.471 123.695 136.257  0.00  0.00    +0.000 OA
ATOM     35  O   UNL     1     113.952 124.165 136.813  0.00  0.00    +0.000 OA
ATOM     36  O   UNL     1     111.149 124.644 136.527  0.00  0.00    +0.000 OA
ATOM     37  C   UNL     1     112.550 124.405 136.670  0.00  0.00    +0.000 C 
ATOM     38  C   UNL     1     113.290 124.639 136.948  0.00  0.00    +0.000 C 
ATOM     39  C   UNL     1     111.889 124.879 136.805  0.00  0.00    +0.000 C 
ATOM     40  C   UNL     1     113.369 125.349 137.361  0.00  0.00    +0.000 C 
ATOM     41  C   UNL     1     111.968 125.589 137.218  0.00  0.00    +0.000 C 
BRANCH  40  43
ATOM     42  O   UNL     1     114.230 125.695 138.449  0.00  0.00    +0.000 OA
ATOM     43  C   UNL     1     114.110 125.584 137.640  0.00  0.00    +0.000 C 
ENDBRANCH  40  43
ENDBRANCH  32  41
ENDBRANCH   4  32
BRANCH   5  44
ATOM     44  O   UNL     1     111.995 130.625 136.757  0.00  0.00    +0.000 OA
BRANCH  44  53
ATOM     45  O   UNL     1     110.697 130.960 136.261  0.00  0.00    +0.000 OA
ATOM     46  O   UNL     1     110.552 132.814 137.894  0.00  0.00    +0.000 OA
ATOM     47  O   UNL     1     109.302 132.531 136.854  0.00  0.00    +0.000 OA
ATOM     48  O   UNL     1     111.898 131.862 137.845  0.00  0.00    +0.000 OA
ATOM     49  C   UNL     1     110.601 132.196 137.350  0.00  0.00    +0.000 C 
ATOM     50  C   UNL     1     109.976 132.055 136.830  0.00  0.00    +0.000 C 
ATOM     51  C   UNL     1     111.274 131.720 137.326  0.00  0.00    +0.000 C 
ATOM     52  C   UNL     1     110.024 131.437 136.286  0.00  0.00    +0.000 C 
ATOM     53  C   UNL     1     111.322 131.102 136.781  0.00  0.00    +0.000 C 
BRANCH  52  55
ATOM     54  O   UNL     1     109.552 131.148 134.968  0.00  0.00    +0.000 OA
ATOM     55  C   UNL     1     109.399 131.295 135.766  0.00  0.00    +0.000 C 
ENDBRANCH  52  55
ENDBRANCH  44  53
ENDBRANCH   5  44
TORSDOF 10
ENDMDL
MODEL 7
REMARK VINA RESULT:     -10.6      6.215      9.192
REMARK  Name = 74978175
REMARK  10 active torsions:
REMARK  status: ('A' for Active; 'I' for Inactive)
REMARK    1  A    between atoms: O_4  and  C_35
REMARK    2  A    between atoms: O_4  and  C_41
REMARK    3  A    between atoms: O_5  and  C_36
REMARK    4  A    between atoms: O_5  and  C_42
REMARK    5  A    between atoms: O_9  and  C_37
REMARK    6  A    between atoms: O_9  and  C_44
REMARK    7  A    between atoms: C_26  and  C_38
REMARK    8  A    between atoms: C_32  and  C_39
REMARK    9  A    between atoms: C_34  and  C_40
REMARK   10  A    between atoms: C_43  and  C_48
REMARK                            x       y       z     vdW  Elec       q    Type
REMARK                         _______ _______ _______ _____ _____    ______ ____
ROOT
ATOM      1  O   UNL     1     111.706 129.067 139.277  0.00  0.00    +0.000 OA
ATOM      2  O   UNL     1     109.313 129.407 138.745  0.00  0.00    +0.000 OA
ATOM      3  O   UNL     1     109.209 130.447 139.739  0.00  0.00    +0.000 OA
ATOM      4  C   UNL     1     110.547 128.724 138.515  0.00  0.00    +0.000 A 
ATOM      5  C   UNL     1     111.209 130.702 140.718  0.00  0.00    +0.000 A 
ATOM      6  C   UNL     1     111.345 128.611 138.692  0.00  0.00    +0.000 A 
ATOM      7  C   UNL     1     110.472 129.750 139.506  0.00  0.00    +0.000 A 
ATOM      8  C   UNL     1     110.111 129.294 138.922  0.00  0.00    +0.000 A 
ATOM      9  C   UNL     1     111.270 129.638 139.684  0.00  0.00    +0.000 A 
ATOM     10  C   UNL     1     111.658 130.107 140.290  0.00  0.00    +0.000 A 
ATOM     11  C   UNL     1     110.377 130.820 140.533  0.00  0.00    +0.000 A 
ATOM     12  C   UNL     1     110.007 130.341 139.923  0.00  0.00    +0.000 A 
ENDROOT
BRANCH   6  15
ATOM     13  O   UNL     1     113.251 127.926 136.676  0.00  0.00    +0.000 OA
ATOM     14  C   UNL     1     112.654 126.902 137.473  0.00  0.00    +0.000 A 
ATOM     15  C   UNL     1     111.781 128.041 138.286  0.00  0.00    +0.000 A 
ATOM     16  C   UNL     1     112.734 127.699 137.278  0.00  0.00    +0.000 A 
ATOM     17  C   UNL     1     112.138 126.673 138.074  0.00  0.00    +0.000 A 
ATOM     18  C   UNL     1     112.298 128.269 137.684  0.00  0.00    +0.000 A 
ATOM     19  C   UNL     1     111.701 127.244 138.481  0.00  0.00    +0.000 A 
BRANCH  14  20
ATOM     20  O   UNL     1     113.091 126.331 137.066  0.00  0.00    +0.000 OA
BRANCH  20  29
ATOM     21  O   UNL     1     112.021 125.671 136.388  0.00  0.00    +0.000 OA
ATOM     22  O   UNL     1     113.047 123.478 136.906  0.00  0.00    +0.000 OA
ATOM     23  O   UNL     1     111.635 123.548 136.055  0.00  0.00    +0.000 OA
ATOM     24  O   UNL     1     113.775 124.870 137.411  0.00  0.00    +0.000 OA
ATOM     25  C   UNL     1     112.705 124.209 136.733  0.00  0.00    +0.000 C 
ATOM     26  C   UNL     1     111.999 124.244 136.308  0.00  0.00    +0.000 C 
ATOM     27  C   UNL     1     113.069 124.905 136.986  0.00  0.00    +0.000 C 
ATOM     28  C   UNL     1     111.657 124.975 136.135  0.00  0.00    +0.000 C 
ATOM     29  C   UNL     1     112.727 125.635 136.813  0.00  0.00    +0.000 C 
BRANCH  28  31
ATOM     30  O   UNL     1     110.834 125.603 135.150  0.00  0.00    +0.000 OA
ATOM     31  C   UNL     1     110.951 125.009 135.710  0.00  0.00    +0.000 C 
ENDBRANCH  28  31
ENDBRANCH  20  29
ENDBRANCH  14  20
ENDBRANCH   6  15
BRANCH   4  32
ATOM     32  O   UNL     1     110.186 128.268 137.931  0.00  0.00    +0.000 OA
BRANCH  32  41
ATOM     33  O   UNL     1     110.159 129.341 136.988  0.00  0.00    +0.000 OA
ATOM     34  O   UNL     1     108.210 128.307 135.867  0.00  0.00    +0.000 OA
ATOM     35  O   UNL     1     108.832 129.726 135.298  0.00  0.00    +0.000 OA
ATOM     36  O   UNL     1     108.887 127.578 137.183  0.00  0.00    +0.000 OA
ATOM     37  C   UNL     1     108.859 128.652 136.241  0.00  0.00    +0.000 C 
ATOM     38  C   UNL     1     109.170 129.361 135.956  0.00  0.00    +0.000 C 
ATOM     39  C   UNL     1     109.197 128.287 136.899  0.00  0.00    +0.000 C 
ATOM     40  C   UNL     1     109.820 129.705 136.330  0.00  0.00    +0.000 C 
ATOM     41  C   UNL     1     109.847 128.632 137.273  0.00  0.00    +0.000 C 
BRANCH  40  43
ATOM     42  O   UNL     1     110.905 130.440 135.760  0.00  0.00    +0.000 OA
ATOM     43  C   UNL     1     110.131 130.415 136.046  0.00  0.00    +0.000 C 
ENDBRANCH  40  43
ENDBRANCH  32  41
ENDBRANCH   4  32
BRANCH   5  44
ATOM     44  O   UNL     1     111.573 131.157 141.302  0.00  0.00    +0.000 OA
BRANCH  44  53
ATOM     45  O   UNL     1     111.607 130.146 142.311  0.00  0.00    +0.000 OA
ATOM     46  O   UNL     1     111.143 131.854 144.040  0.00  0.00    +0.000 OA
ATOM     47  O   UNL     1     111.332 130.273 144.472  0.00  0.00    +0.000 OA
ATOM     48  O   UNL     1     111.263 132.297 142.455  0.00  0.00    +0.000 OA
ATOM     49  C   UNL     1     111.297 131.285 143.463  0.00  0.00    +0.000 C 
ATOM     50  C   UNL     1     111.392 130.494 143.680  0.00  0.00    +0.000 C 
ATOM     51  C   UNL     1     111.358 131.506 142.671  0.00  0.00    +0.000 C 
ATOM     52  C   UNL     1     111.547 129.925 143.103  0.00  0.00    +0.000 C 
ATOM     53  C   UNL     1     111.513 130.936 142.094  0.00  0.00    +0.000 C 
BRANCH  52  55
ATOM     54  O   UNL     1     111.058 128.582 143.128  0.00  0.00    +0.000 OA
ATOM     55  C   UNL     1     111.641 129.134 143.319  0.00  0.00    +0.000 C 
ENDBRANCH  52  55
ENDBRANCH  44  53
ENDBRANCH   5  44
TORSDOF 10
ENDMDL
MODEL 8
REMARK VINA RESULT:     -10.5      6.601      9.042
REMARK  Name = 74978175
REMARK  10 active torsions:
REMARK  status: ('A' for Active; 'I' for Inactive)
REMARK    1  A    between atoms: O_4  and  C_35
REMARK    2  A    between atoms: O_4  and  C_41
REMARK    3  A    between atoms: O_5  and  C_36
REMARK    4  A    between atoms: O_5  and  C_42
REMARK    5  A    between atoms: O_9  and  C_37
REMARK    6  A    between atoms: O_9  and  C_44
REMARK    7  A    between atoms: C_26  and  C_38
REMARK    8  A    between atoms: C_32  and  C_39
REMARK    9  A    between atoms: C_34  and  C_40
REMARK   10  A    between atoms: C_43  and  C_48
REMARK                            x       y       z     vdW  Elec       q    Type
REMARK                         _______ _______ _______ _____ _____    ______ ____
ROOT
ATOM      1  O   UNL     1     112.010 128.493 137.833  0.00  0.00    +0.000 OA
ATOM      2  O   UNL     1     111.677 129.724 135.712  0.00  0.00    +0.000 OA
ATOM      3  O   UNL     1     112.422 128.727 134.983  0.00  0.00    +0.000 OA
ATOM      4  C   UNL     1     111.472 129.609 137.122  0.00  0.00    +0.000 A 
ATOM      5  C   UNL     1     113.099 127.147 136.420  0.00  0.00    +0.000 A 
ATOM      6  C   UNL     1     111.583 129.199 137.829  0.00  0.00    +0.000 A 
ATOM      7  C   UNL     1     112.214 128.608 136.424  0.00  0.00    +0.000 A 
ATOM      8  C   UNL     1     111.788 129.314 136.420  0.00  0.00    +0.000 A 
ATOM      9  C   UNL     1     112.326 128.197 137.130  0.00  0.00    +0.000 A 
ATOM     10  C   UNL     1     112.768 127.460 137.148  0.00  0.00    +0.000 A 
ATOM     11  C   UNL     1     112.983 127.575 135.683  0.00  0.00    +0.000 A 
ATOM     12  C   UNL     1     112.538 128.310 135.685  0.00  0.00    +0.000 A 
ENDROOT
BRANCH   6  15
ATOM     13  O   UNL     1     109.593 129.112 139.878  0.00  0.00    +0.000 OA
ATOM     14  C   UNL     1     110.638 130.085 139.937  0.00  0.00    +0.000 A 
ATOM     15  C   UNL     1     111.268 129.494 138.531  0.00  0.00    +0.000 A 
ATOM     16  C   UNL     1     110.273 129.450 139.556  0.00  0.00    +0.000 A 
ATOM     17  C   UNL     1     111.317 130.424 139.616  0.00  0.00    +0.000 A 
ATOM     18  C   UNL     1     110.588 129.155 138.854  0.00  0.00    +0.000 A 
ATOM     19  C   UNL     1     111.633 130.128 138.913  0.00  0.00    +0.000 A 
BRANCH  14  20
ATOM     20  O   UNL     1     110.322 130.381 140.640  0.00  0.00    +0.000 OA
BRANCH  20  29
ATOM     21  O   UNL     1     111.219 129.832 141.608  0.00  0.00    +0.000 OA
ATOM     22  O   UNL     1     111.434 132.059 142.669  0.00  0.00    +0.000 OA
ATOM     23  O   UNL     1     112.260 130.769 143.283  0.00  0.00    +0.000 OA
ATOM     24  O   UNL     1     110.465 131.865 141.348  0.00  0.00    +0.000 OA
ATOM     25  C   UNL     1     111.362 131.316 142.315  0.00  0.00    +0.000 C 
ATOM     26  C   UNL     1     111.775 130.672 142.623  0.00  0.00    +0.000 C 
ATOM     27  C   UNL     1     110.878 131.219 141.655  0.00  0.00    +0.000 C 
ATOM     28  C   UNL     1     111.704 129.930 142.269  0.00  0.00    +0.000 C 
ATOM     29  C   UNL     1     110.807 130.478 141.301  0.00  0.00    +0.000 C 
BRANCH  28  31
ATOM     30  O   UNL     1     111.750 128.549 142.633  0.00  0.00    +0.000 OA
ATOM     31  C   UNL     1     112.117 129.285 142.576  0.00  0.00    +0.000 C 
ENDBRANCH  28  31
ENDBRANCH  20  29
ENDBRANCH  14  20
ENDBRANCH   6  15
BRANCH   4  32
ATOM     32  O   UNL     1     111.046 130.315 137.118  0.00  0.00    +0.000 OA
BRANCH  32  41
ATOM     33  O   UNL     1     109.902 129.734 136.489  0.00  0.00    +0.000 OA
ATOM     34  O   UNL     1     109.326 131.931 135.506  0.00  0.00    +0.000 OA
ATOM     35  O   UNL     1     108.374 130.618 135.204  0.00  0.00    +0.000 OA
ATOM     36  O   UNL     1     110.662 131.780 136.462  0.00  0.00    +0.000 OA
ATOM     37  C   UNL     1     109.518 131.199 135.833  0.00  0.00    +0.000 C 
ATOM     38  C   UNL     1     109.042 130.543 135.683  0.00  0.00    +0.000 C 
ATOM     39  C   UNL     1     110.186 131.124 136.312  0.00  0.00    +0.000 C 
ATOM     40  C   UNL     1     109.234 129.810 136.010  0.00  0.00    +0.000 C 
ATOM     41  C   UNL     1     110.378 130.391 136.639  0.00  0.00    +0.000 C 
BRANCH  40  43
ATOM     42  O   UNL     1     108.378 128.768 136.482  0.00  0.00    +0.000 OA
ATOM     43  C   UNL     1     108.758 129.153 135.859  0.00  0.00    +0.000 C 
ENDBRANCH  40  43
ENDBRANCH  32  41
ENDBRANCH   4  32
BRANCH   5  44
ATOM     44  O   UNL     1     113.525 126.440 136.427  0.00  0.00    +0.000 OA
BRANCH  44  53
ATOM     45  O   UNL     1     112.348 125.651 136.247  0.00  0.00    +0.000 OA
ATOM     46  O   UNL     1     113.503 123.702 137.243  0.00  0.00    +0.000 OA
ATOM     47  O   UNL     1     111.941 123.561 136.732  0.00  0.00    +0.000 OA
ATOM     48  O   UNL     1     114.296 125.141 137.091  0.00  0.00    +0.000 OA
ATOM     49  C   UNL     1     113.119 124.351 136.912  0.00  0.00    +0.000 C 
ATOM     50  C   UNL     1     112.338 124.281 136.656  0.00  0.00    +0.000 C 
ATOM     51  C   UNL     1     113.515 125.071 136.835  0.00  0.00    +0.000 C 
ATOM     52  C   UNL     1     111.952 124.931 136.324  0.00  0.00    +0.000 C 
ATOM     53  C   UNL     1     113.130 125.721 136.503  0.00  0.00    +0.000 C 
BRANCH  52  55
ATOM     54  O   UNL     1     110.968 125.079 135.298  0.00  0.00    +0.000 OA
ATOM     55  C   UNL     1     111.171 124.861 136.068  0.00  0.00    +0.000 C 
ENDBRANCH  52  55
ENDBRANCH  44  53
ENDBRANCH   5  44
TORSDOF 10
ENDMDL
MODEL 9
REMARK VINA RESULT:     -10.3      6.067      8.229
REMARK  Name = 74978175
REMARK  10 active torsions:
REMARK  status: ('A' for Active; 'I' for Inactive)
REMARK    1  A    between atoms: O_4  and  C_35
REMARK    2  A    between atoms: O_4  and  C_41
REMARK    3  A    between atoms: O_5  and  C_36
REMARK    4  A    between atoms: O_5  and  C_42
REMARK    5  A    between atoms: O_9  and  C_37
REMARK    6  A    between atoms: O_9  and  C_44
REMARK    7  A    between atoms: C_26  and  C_38
REMARK    8  A    between atoms: C_32  and  C_39
REMARK    9  A    between atoms: C_34  and  C_40
REMARK   10  A    between atoms: C_43  and  C_48
REMARK                            x       y       z     vdW  Elec       q    Type
REMARK                         _______ _______ _______ _____ _____    ______ ____
ROOT
ATOM      1  O   UNL     1     112.303 128.587 137.888  0.00  0.00    +0.000 OA
ATOM      2  O   UNL     1     112.312 129.104 140.309  0.00  0.00    +0.000 OA
ATOM      3  O   UNL     1     113.074 127.912 140.591  0.00  0.00    +0.000 OA
ATOM      4  C   UNL     1     111.930 129.438 138.973  0.00  0.00    +0.000 A 
ATOM      5  C   UNL     1     113.467 126.842 138.661  0.00  0.00    +0.000 A 
ATOM      6  C   UNL     1     111.927 129.266 138.166  0.00  0.00    +0.000 A 
ATOM      7  C   UNL     1     112.685 128.252 139.224  0.00  0.00    +0.000 A 
ATOM      8  C   UNL     1     112.308 128.932 139.502  0.00  0.00    +0.000 A 
ATOM      9  C   UNL     1     112.682 128.079 138.418  0.00  0.00    +0.000 A 
ATOM     10  C   UNL     1     113.070 127.375 138.116  0.00  0.00    +0.000 A 
ATOM     11  C   UNL     1     113.470 127.022 139.503  0.00  0.00    +0.000 A 
ATOM     12  C   UNL     1     113.076 127.731 139.785  0.00  0.00    +0.000 A 
ENDROOT
BRANCH   6  15
ATOM     13  O   UNL     1     111.796 131.776 136.804  0.00  0.00    +0.000 OA
ATOM     14  C   UNL     1     110.790 130.786 136.579  0.00  0.00    +0.000 A 
ATOM     15  C   UNL     1     111.548 129.773 137.637  0.00  0.00    +0.000 A 
ATOM     16  C   UNL     1     111.482 131.027 136.956  0.00  0.00    +0.000 A 
ATOM     17  C   UNL     1     110.476 130.039 136.730  0.00  0.00    +0.000 A 
ATOM     18  C   UNL     1     111.861 130.521 137.485  0.00  0.00    +0.000 A 
ATOM     19  C   UNL     1     110.855 129.532 137.259  0.00  0.00    +0.000 A 
BRANCH  14  20
ATOM     20  O   UNL     1     110.410 131.293 136.049  0.00  0.00    +0.000 OA
BRANCH  20  29
ATOM     21  O   UNL     1     109.270 131.595 136.856  0.00  0.00    +0.000 OA
ATOM     22  O   UNL     1     107.827 131.511 134.846  0.00  0.00    +0.000 OA
ATOM     23  O   UNL     1     107.167 131.840 136.323  0.00  0.00    +0.000 OA
ATOM     24  O   UNL     1     109.448 131.237 134.709  0.00  0.00    +0.000 OA
ATOM     25  C   UNL     1     108.308 131.539 135.517  0.00  0.00    +0.000 C 
ATOM     26  C   UNL     1     107.978 131.704 136.254  0.00  0.00    +0.000 C 
ATOM     27  C   UNL     1     109.119 131.402 135.448  0.00  0.00    +0.000 C 
ATOM     28  C   UNL     1     108.460 131.731 136.924  0.00  0.00    +0.000 C 
ATOM     29  C   UNL     1     109.599 131.430 136.117  0.00  0.00    +0.000 C 
BRANCH  28  31
ATOM     30  O   UNL     1     108.542 132.360 138.205  0.00  0.00    +0.000 OA
ATOM     31  C   UNL     1     108.130 131.896 137.662  0.00  0.00    +0.000 C 
ENDBRANCH  28  31
ENDBRANCH  20  29
ENDBRANCH  14  20
ENDBRANCH   6  15
BRANCH   4  32
ATOM     32  O   UNL     1     111.554 130.118 139.251  0.00  0.00    +0.000 OA
BRANCH  32  41
ATOM     33  O   UNL     1     110.431 129.407 139.775  0.00  0.00    +0.000 OA
ATOM     34  O   UNL     1     110.116 131.165 141.488  0.00  0.00    +0.000 OA
ATOM     35  O   UNL     1     109.098 129.868 141.441  0.00  0.00    +0.000 OA
ATOM     36  O   UNL     1     111.344 131.291 140.392  0.00  0.00    +0.000 OA
ATOM     37  C   UNL     1     110.221 130.579 140.917  0.00  0.00    +0.000 C 
ATOM     38  C   UNL     1     109.712 129.931 140.893  0.00  0.00    +0.000 C 
ATOM     39  C   UNL     1     110.835 130.642 140.369  0.00  0.00    +0.000 C 
ATOM     40  C   UNL     1     109.817 129.345 140.322  0.00  0.00    +0.000 C 
ATOM     41  C   UNL     1     110.940 130.056 139.798  0.00  0.00    +0.000 C 
BRANCH  40  43
ATOM     42  O   UNL     1     108.849 128.556 139.628  0.00  0.00    +0.000 OA
ATOM     43  C   UNL     1     109.308 128.695 140.299  0.00  0.00    +0.000 C 
ENDBRANCH  40  43
ENDBRANCH  32  41
ENDBRANCH   4  32
BRANCH   5  44
ATOM     44  O   UNL     1     113.842 126.163 138.381  0.00  0.00    +0.000 OA
BRANCH  44  53
ATOM     45  O   UNL     1     112.626 125.475 138.085  0.00  0.00    +0.000 OA
ATOM     46  O   UNL     1     113.755 124.267 136.244  0.00  0.00    +0.000 OA
ATOM     47  O   UNL     1     112.162 123.981 136.563  0.00  0.00    +0.000 OA
ATOM     48  O   UNL     1     114.596 125.358 137.154  0.00  0.00    +0.000 OA
ATOM     49  C   UNL     1     113.379 124.670 136.858  0.00  0.00    +0.000 C 
ATOM     50  C   UNL     1     112.582 124.527 137.017  0.00  0.00    +0.000 C 
ATOM     51  C   UNL     1     113.799 125.215 137.313  0.00  0.00    +0.000 C 
ATOM     52  C   UNL     1     112.206 124.929 137.631  0.00  0.00    +0.000 C 
ATOM     53  C   UNL     1     113.422 125.618 137.926  0.00  0.00    +0.000 C 
BRANCH  52  55
ATOM     54  O   UNL     1     111.159 124.661 138.567  0.00  0.00    +0.000 OA
ATOM     55  C   UNL     1     111.409 124.786 137.790  0.00  0.00    +0.000 C 
ENDBRANCH  52  55
ENDBRANCH  44  53
ENDBRANCH   5  44
TORSDOF 10
ENDMDL
MODEL 10
REMARK VINA RESULT:     -10.3      5.164      8.370
REMARK  Name = 74978175
REMARK  10 active torsions:
REMARK  status: ('A' for Active; 'I' for Inactive)
REMARK    1  A    between atoms: O_4  and  C_35
REMARK    2  A    between atoms: O_4  and  C_41
REMARK    3  A    between atoms: O_5  and  C_36
REMARK    4  A    between atoms: O_5  and  C_42
REMARK    5  A    between atoms: O_9  and  C_37
REMARK    6  A    between atoms: O_9  and  C_44
REMARK    7  A    between atoms: C_26  and  C_38
REMARK    8  A    between atoms: C_32  and  C_39
REMARK    9  A    between atoms: C_34  and  C_40
REMARK   10  A    between atoms: C_43  and  C_48
REMARK                            x       y       z     vdW  Elec       q    Type
REMARK                         _______ _______ _______ _____ _____    ______ ____
ROOT
ATOM      1  O   UNL     1     111.980 130.469 142.756  0.00  0.00    +0.000 OA
ATOM      2  O   UNL     1     111.614 128.112 143.418  0.00  0.00    +0.000 OA
ATOM      3  O   UNL     1     111.471 128.492 144.802  0.00  0.00    +0.000 OA
ATOM      4  C   UNL     1     111.865 129.089 142.406  0.00  0.00    +0.000 A 
ATOM      5  C   UNL     1     111.710 130.714 144.962  0.00  0.00    +0.000 A 
ATOM      6  C   UNL     1     111.987 129.874 142.185  0.00  0.00    +0.000 A 
ATOM      7  C   UNL     1     111.728 129.492 143.769  0.00  0.00    +0.000 A 
ATOM      8  C   UNL     1     111.736 128.897 143.197  0.00  0.00    +0.000 A 
ATOM      9  C   UNL     1     111.850 130.278 143.549  0.00  0.00    +0.000 A 
ATOM     10  C   UNL     1     111.844 130.906 144.135  0.00  0.00    +0.000 A 
ATOM     11  C   UNL     1     111.583 129.895 145.192  0.00  0.00    +0.000 A 
ATOM     12  C   UNL     1     111.592 129.281 144.591  0.00  0.00    +0.000 A 
ENDROOT
BRANCH   6  15
ATOM     13  O   UNL     1     111.073 131.029 139.735  0.00  0.00    +0.000 OA
ATOM     14  C   UNL     1     112.376 130.448 139.809  0.00  0.00    +0.000 A 
ATOM     15  C   UNL     1     112.117 130.065 141.393  0.00  0.00    +0.000 A 
ATOM     16  C   UNL     1     111.660 130.643 140.169  0.00  0.00    +0.000 A 
ATOM     17  C   UNL     1     112.963 130.061 140.241  0.00  0.00    +0.000 A 
ATOM     18  C   UNL     1     111.530 130.452 140.960  0.00  0.00    +0.000 A 
ATOM     19  C   UNL     1     112.833 129.870 141.034  0.00  0.00    +0.000 A 
BRANCH  14  20
ATOM     20  O   UNL     1     112.506 130.639 139.016  0.00  0.00    +0.000 OA
BRANCH  20  29
ATOM     21  O   UNL     1     112.315 129.324 138.492  0.00  0.00    +0.000 OA
ATOM     22  O   UNL     1     114.107 129.726 136.832  0.00  0.00    +0.000 OA
ATOM     23  O   UNL     1     113.319 128.277 136.860  0.00  0.00    +0.000 OA
ATOM     24  O   UNL     1     113.700 130.907 137.910  0.00  0.00    +0.000 OA
ATOM     25  C   UNL     1     113.509 129.592 137.386  0.00  0.00    +0.000 C 
ATOM     26  C   UNL     1     113.116 128.867 137.399  0.00  0.00    +0.000 C 
ATOM     27  C   UNL     1     113.306 130.183 137.925  0.00  0.00    +0.000 C 
ATOM     28  C   UNL     1     112.518 128.733 137.953  0.00  0.00    +0.000 C 
ATOM     29  C   UNL     1     112.709 130.048 138.477  0.00  0.00    +0.000 C 
BRANCH  28  31
ATOM     30  O   UNL     1     111.305 127.985 138.056  0.00  0.00    +0.000 OA
ATOM     31  C   UNL     1     112.125 128.008 137.967  0.00  0.00    +0.000 C 
ENDBRANCH  28  31
ENDBRANCH  20  29
ENDBRANCH  14  20
ENDBRANCH   6  15
BRANCH   4  32
ATOM     32  O   UNL     1     111.873 128.494 141.834  0.00  0.00    +0.000 OA
BRANCH  32  41
ATOM     33  O   UNL     1     110.454 128.329 141.828  0.00  0.00    +0.000 OA
ATOM     34  O   UNL     1     110.732 125.950 141.208  0.00  0.00    +0.000 OA
ATOM     35  O   UNL     1     109.219 126.579 141.409  0.00  0.00    +0.000 OA
ATOM     36  O   UNL     1     112.058 126.907 141.420  0.00  0.00    +0.000 OA
ATOM     37  C   UNL     1     110.639 126.743 141.414  0.00  0.00    +0.000 C 
ATOM     38  C   UNL     1     109.883 127.057 141.515  0.00  0.00    +0.000 C 
ATOM     39  C   UNL     1     111.303 127.221 141.520  0.00  0.00    +0.000 C 
ATOM     40  C   UNL     1     109.791 127.850 141.722  0.00  0.00    +0.000 C 
ATOM     41  C   UNL     1     111.210 128.015 141.727  0.00  0.00    +0.000 C 
BRANCH  40  43
ATOM     42  O   UNL     1     108.768 128.766 141.323  0.00  0.00    +0.000 OA
ATOM     43  C   UNL     1     109.034 128.165 141.822  0.00  0.00    +0.000 C 
ENDBRANCH  40  43
ENDBRANCH  32  41
ENDBRANCH   4  32
BRANCH   5  44
ATOM     44  O   UNL     1     111.703 131.311 145.531  0.00  0.00    +0.000 OA
BRANCH  44  53
ATOM     45  O   UNL     1     110.320 131.652 145.423  0.00  0.00    +0.000 OA
ATOM     46  O   UNL     1     110.885 134.043 145.712  0.00  0.00    +0.000 OA
ATOM     47  O   UNL     1     109.313 133.587 145.506  0.00  0.00    +0.000 OA
ATOM     48  O   UNL     1     112.080 132.906 145.724  0.00  0.00    +0.000 OA
ATOM     49  C   UNL     1     110.697 133.246 145.615  0.00  0.00    +0.000 C 
ATOM     50  C   UNL     1     109.911 133.018 145.513  0.00  0.00    +0.000 C 
ATOM     51  C   UNL     1     111.294 132.677 145.622  0.00  0.00    +0.000 C 
ATOM     52  C   UNL     1     109.722 132.221 145.416  0.00  0.00    +0.000 C 
ATOM     53  C   UNL     1     111.106 131.880 145.525  0.00  0.00    +0.000 C 
BRANCH  52  55
ATOM     54  O   UNL     1     108.616 131.393 145.783  0.00  0.00    +0.000 OA
ATOM     55  C   UNL     1     108.936 131.992 145.314  0.00  0.00    +0.000 C 
ENDBRANCH  52  55
ENDBRANCH  44  53
ENDBRANCH   5  44
TORSDOF 10
ENDMDL
