MODEL 1
REMARK VINA RESULT:      -9.6      0.000      0.000
REMARK  Name = 44257033
REMARK  9 active torsions:
REMARK  status: ('A' for Active; 'I' for Inactive)
REMARK    1  A    between atoms: O_2  and  C_21
REMARK    2  A    between atoms: O_2  and  C_23
REMARK    3  A    between atoms: O_6  and  C_22
REMARK    4  A    between atoms: O_6  and  C_31
REMARK    5  A    between atoms: C_19  and  C_22
REMARK    6  A    between atoms: C_25  and  C_30
REMARK    7  A    between atoms: C_31  and  C_38
REMARK    8  A    between atoms: C_33  and  C_40
REMARK    9  A    between atoms: C_38  and  C_43
REMARK                            x       y       z     vdW  Elec       q    Type
REMARK                         _______ _______ _______ _____ _____    ______ ____
ROOT
ATOM      1  O   UNL     1     113.461 127.950 135.785  0.00  0.00    +0.000 OA
ATOM      2  O   UNL     1     113.756 130.482 137.109  0.00  0.00    +0.000 OA
ATOM      3  O   UNL     1     115.252 129.948 134.654  0.00  0.00    +0.000 OA
ATOM      4  C   UNL     1     112.736 128.225 136.986  0.00  0.00    +0.000 A 
ATOM      5  C   UNL     1     113.079 128.975 137.021  0.00  0.00    +0.000 A 
ATOM      6  C   UNL     1     112.927 127.713 136.368  0.00  0.00    +0.000 A 
ATOM      7  C   UNL     1     113.614 129.212 136.437  0.00  0.00    +0.000 A 
ATOM      8  C   UNL     1     113.804 128.700 135.820  0.00  0.00    +0.000 A 
ATOM      9  C   UNL     1     113.964 129.995 136.485  0.00  0.00    +0.000 A 
ATOM     10  C   UNL     1     112.890 129.483 137.633  0.00  0.00    +0.000 A 
ATOM     11  C   UNL     1     114.358 128.935 135.207  0.00  0.00    +0.000 A 
ATOM     12  C   UNL     1     113.224 130.229 137.677  0.00  0.00    +0.000 A 
ATOM     13  C   UNL     1     114.520 130.248 135.881  0.00  0.00    +0.000 A 
ATOM     14  C   UNL     1     114.719 129.714 135.238  0.00  0.00    +0.000 A 
ENDROOT
BRANCH   6  17
ATOM     15  O   UNL     1     110.959 125.939 135.297  0.00  0.00    +0.000 OA
ATOM     16  O   UNL     1     111.555 124.716 136.230  0.00  0.00    +0.000 OA
ATOM     17  C   UNL     1     112.584 126.964 136.333  0.00  0.00    +0.000 A 
ATOM     18  C   UNL     1     111.943 126.826 135.832  0.00  0.00    +0.000 A 
ATOM     19  C   UNL     1     112.882 126.352 136.800  0.00  0.00    +0.000 A 
ATOM     20  C   UNL     1     111.600 126.077 135.798  0.00  0.00    +0.000 A 
ATOM     21  C   UNL     1     112.539 125.603 136.765  0.00  0.00    +0.000 A 
ATOM     22  C   UNL     1     111.898 125.465 136.265  0.00  0.00    +0.000 A 
ENDBRANCH   6  17
BRANCH  12  25
ATOM     23  O   UNL     1     112.413 131.276 138.211  0.00  0.00    +0.000 OA
ATOM     24  O   UNL     1     113.435 130.685 139.015  0.00  0.00    +0.000 OA
ATOM     25  C   UNL     1     113.024 130.730 138.301  0.00  0.00    +0.000 C 
ENDBRANCH  12  25
BRANCH   4  26
ATOM     26  O   UNL     1     112.203 127.989 137.569  0.00  0.00    +0.000 OA
BRANCH  26  35
ATOM     27  O   UNL     1     110.901 128.533 137.343  0.00  0.00    +0.000 OA
ATOM     28  O   UNL     1     109.176 128.707 138.669  0.00  0.00    +0.000 OA
ATOM     29  O   UNL     1     110.265 127.978 139.670  0.00  0.00    +0.000 OA
ATOM     30  O   UNL     1     111.779 127.619 139.120  0.00  0.00    +0.000 OA
ATOM     31  C   UNL     1     109.932 128.528 138.393  0.00  0.00    +0.000 C 
ATOM     32  C   UNL     1     110.477 128.163 138.894  0.00  0.00    +0.000 C 
ATOM     33  C   UNL     1     110.144 128.713 137.618  0.00  0.00    +0.000 C 
ATOM     34  C   UNL     1     111.234 127.984 138.619  0.00  0.00    +0.000 C 
ATOM     35  C   UNL     1     111.446 128.169 137.843  0.00  0.00    +0.000 C 
BRANCH  33  36
ATOM     36  C   UNL     1     109.441 129.054 137.355  0.00  0.00    +0.000 C 
BRANCH  36  37
ATOM     37  O   UNL     1     109.419 129.449 136.630  0.00  0.00    +0.000 OA
BRANCH  37  39
ATOM     38  O   UNL     1     108.177 129.124 136.004  0.00  0.00    +0.000 OA
ATOM     39  C   UNL     1     108.697 129.686 136.311  0.00  0.00    +0.000 C 
BRANCH  39  40
ATOM     40  C   UNL     1     108.493 130.486 136.299  0.00  0.00    +0.000 C 
BRANCH  40  43
ATOM     41  O   UNL     1     108.386 130.980 134.964  0.00  0.00    +0.000 OA
ATOM     42  O   UNL     1     107.221 130.890 135.787  0.00  0.00    +0.000 OA
ATOM     43  C   UNL     1     108.034 130.785 135.683  0.00  0.00    +0.000 C 
ENDBRANCH  40  43
ENDBRANCH  39  40
ENDBRANCH  37  39
ENDBRANCH  36  37
ENDBRANCH  33  36
ENDBRANCH  26  35
ENDBRANCH   4  26
TORSDOF 9
ENDMDL
MODEL 2
REMARK VINA RESULT:      -9.6      1.217      3.425
REMARK  Name = 44257033
REMARK  9 active torsions:
REMARK  status: ('A' for Active; 'I' for Inactive)
REMARK    1  A    between atoms: O_2  and  C_21
REMARK    2  A    between atoms: O_2  and  C_23
REMARK    3  A    between atoms: O_6  and  C_22
REMARK    4  A    between atoms: O_6  and  C_31
REMARK    5  A    between atoms: C_19  and  C_22
REMARK    6  A    between atoms: C_25  and  C_30
REMARK    7  A    between atoms: C_31  and  C_38
REMARK    8  A    between atoms: C_33  and  C_40
REMARK    9  A    between atoms: C_38  and  C_43
REMARK                            x       y       z     vdW  Elec       q    Type
REMARK                         _______ _______ _______ _____ _____    ______ ____
ROOT
ATOM      1  O   UNL     1     112.603 126.542 136.200  0.00  0.00    +0.000 OA
ATOM      2  O   UNL     1     111.587 125.589 138.712  0.00  0.00    +0.000 OA
ATOM      3  O   UNL     1     111.684 123.787 136.410  0.00  0.00    +0.000 OA
ATOM      4  C   UNL     1     112.549 127.411 137.333  0.00  0.00    +0.000 A 
ATOM      5  C   UNL     1     112.229 126.800 137.787  0.00  0.00    +0.000 A 
ATOM      6  C   UNL     1     112.736 127.282 136.540  0.00  0.00    +0.000 A 
ATOM      7  C   UNL     1     112.096 126.060 137.445  0.00  0.00    +0.000 A 
ATOM      8  C   UNL     1     112.283 125.931 136.653  0.00  0.00    +0.000 A 
ATOM      9  C   UNL     1     111.762 125.432 137.928  0.00  0.00    +0.000 A 
ATOM     10  C   UNL     1     112.044 126.929 138.573  0.00  0.00    +0.000 A 
ATOM     11  C   UNL     1     112.149 125.165 136.287  0.00  0.00    +0.000 A 
ATOM     12  C   UNL     1     111.726 126.329 139.031  0.00  0.00    +0.000 A 
ATOM     13  C   UNL     1     111.621 124.659 137.579  0.00  0.00    +0.000 A 
ATOM     14  C   UNL     1     111.816 124.526 136.753  0.00  0.00    +0.000 A 
ENDROOT
BRANCH   6  17
ATOM     15  O   UNL     1     112.411 129.366 134.612  0.00  0.00    +0.000 OA
ATOM     16  O   UNL     1     114.017 129.725 134.730  0.00  0.00    +0.000 OA
ATOM     17  C   UNL     1     113.056 127.892 136.088  0.00  0.00    +0.000 A 
ATOM     18  C   UNL     1     112.573 128.324 135.576  0.00  0.00    +0.000 A 
ATOM     19  C   UNL     1     113.860 128.072 136.147  0.00  0.00    +0.000 A 
ATOM     20  C   UNL     1     112.893 128.935 135.123  0.00  0.00    +0.000 A 
ATOM     21  C   UNL     1     114.180 128.683 135.694  0.00  0.00    +0.000 A 
ATOM     22  C   UNL     1     113.697 129.114 135.183  0.00  0.00    +0.000 A 
ENDBRANCH   6  17
BRANCH  12  25
ATOM     23  O   UNL     1     112.126 126.391 140.401  0.00  0.00    +0.000 OA
ATOM     24  O   UNL     1     110.780 126.700 140.035  0.00  0.00    +0.000 OA
ATOM     25  C   UNL     1     111.544 126.473 139.822  0.00  0.00    +0.000 C 
ENDBRANCH  12  25
BRANCH   4  26
ATOM     26  O   UNL     1     112.682 128.150 137.674  0.00  0.00    +0.000 OA
BRANCH  26  35
ATOM     27  O   UNL     1     111.487 128.933 137.714  0.00  0.00    +0.000 OA
ATOM     28  O   UNL     1     111.000 130.738 138.839  0.00  0.00    +0.000 OA
ATOM     29  O   UNL     1     112.547 130.468 139.341  0.00  0.00    +0.000 OA
ATOM     30  O   UNL     1     113.389 129.174 138.759  0.00  0.00    +0.000 OA
ATOM     31  C   UNL     1     111.420 130.091 138.547  0.00  0.00    +0.000 C 
ATOM     32  C   UNL     1     112.194 129.956 138.799  0.00  0.00    +0.000 C 
ATOM     33  C   UNL     1     111.067 129.580 138.005  0.00  0.00    +0.000 C 
ATOM     34  C   UNL     1     112.615 129.309 138.507  0.00  0.00    +0.000 C 
ATOM     35  C   UNL     1     112.262 128.797 137.965  0.00  0.00    +0.000 C 
BRANCH  33  36
ATOM     36  C   UNL     1     110.326 129.936 137.933  0.00  0.00    +0.000 C 
BRANCH  36  37
ATOM     37  O   UNL     1     109.754 129.604 137.440  0.00  0.00    +0.000 OA
BRANCH  37  39
ATOM     38  O   UNL     1     108.539 130.243 137.832  0.00  0.00    +0.000 OA
ATOM     39  C   UNL     1     109.078 130.034 137.245  0.00  0.00    +0.000 C 
BRANCH  39  40
ATOM     40  C   UNL     1     108.941 130.255 136.461  0.00  0.00    +0.000 C 
BRANCH  40  43
ATOM     41  O   UNL     1     107.611 130.579 136.052  0.00  0.00    +0.000 OA
ATOM     42  O   UNL     1     108.156 129.292 135.756  0.00  0.00    +0.000 OA
ATOM     43  C   UNL     1     108.236 130.043 136.090  0.00  0.00    +0.000 C 
ENDBRANCH  40  43
ENDBRANCH  39  40
ENDBRANCH  37  39
ENDBRANCH  36  37
ENDBRANCH  33  36
ENDBRANCH  26  35
ENDBRANCH   4  26
TORSDOF 9
ENDMDL
MODEL 3
REMARK VINA RESULT:      -9.2      1.445      3.683
REMARK  Name = 44257033
REMARK  9 active torsions:
REMARK  status: ('A' for Active; 'I' for Inactive)
REMARK    1  A    between atoms: O_2  and  C_21
REMARK    2  A    between atoms: O_2  and  C_23
REMARK    3  A    between atoms: O_6  and  C_22
REMARK    4  A    between atoms: O_6  and  C_31
REMARK    5  A    between atoms: C_19  and  C_22
REMARK    6  A    between atoms: C_25  and  C_30
REMARK    7  A    between atoms: C_31  and  C_38
REMARK    8  A    between atoms: C_33  and  C_40
REMARK    9  A    between atoms: C_38  and  C_43
REMARK                            x       y       z     vdW  Elec       q    Type
REMARK                         _______ _______ _______ _____ _____    ______ ____
ROOT
ATOM      1  O   UNL     1     111.696 125.648 138.734  0.00  0.00    +0.000 OA
ATOM      2  O   UNL     1     112.847 126.462 136.231  0.00  0.00    +0.000 OA
ATOM      3  O   UNL     1     111.893 123.718 136.563  0.00  0.00    +0.000 OA
ATOM      4  C   UNL     1     112.166 126.986 138.558  0.00  0.00    +0.000 A 
ATOM      5  C   UNL     1     112.391 126.805 137.784  0.00  0.00    +0.000 A 
ATOM      6  C   UNL     1     111.819 126.407 139.032  0.00  0.00    +0.000 A 
ATOM      7  C   UNL     1     112.267 126.045 137.486  0.00  0.00    +0.000 A 
ATOM      8  C   UNL     1     111.920 125.467 137.961  0.00  0.00    +0.000 A 
ATOM      9  C   UNL     1     112.505 125.869 136.679  0.00  0.00    +0.000 A 
ATOM     10  C   UNL     1     112.735 127.379 137.314  0.00  0.00    +0.000 A 
ATOM     11  C   UNL     1     111.787 124.672 137.662  0.00  0.00    +0.000 A 
ATOM     12  C   UNL     1     112.961 127.210 136.545  0.00  0.00    +0.000 A 
ATOM     13  C   UNL     1     112.379 125.080 136.363  0.00  0.00    +0.000 A 
ATOM     14  C   UNL     1     112.018 124.478 136.858  0.00  0.00    +0.000 A 
ENDROOT
BRANCH   6  17
ATOM     15  O   UNL     1     109.785 127.051 140.934  0.00  0.00    +0.000 OA
ATOM     16  O   UNL     1     110.925 127.132 142.124  0.00  0.00    +0.000 OA
ATOM     17  C   UNL     1     111.596 126.588 139.805  0.00  0.00    +0.000 A 
ATOM     18  C   UNL     1     110.802 126.729 139.983  0.00  0.00    +0.000 A 
ATOM     19  C   UNL     1     112.165 126.629 140.401  0.00  0.00    +0.000 A 
ATOM     20  C   UNL     1     110.578 126.910 140.756  0.00  0.00    +0.000 A 
ATOM     21  C   UNL     1     111.941 126.810 141.174  0.00  0.00    +0.000 A 
ATOM     22  C   UNL     1     111.148 126.951 141.352  0.00  0.00    +0.000 A 
ENDBRANCH   6  17
BRANCH  12  25
ATOM     23  O   UNL     1     114.118 127.939 136.132  0.00  0.00    +0.000 OA
ATOM     24  O   UNL     1     112.841 128.247 135.570  0.00  0.00    +0.000 OA
ATOM     25  C   UNL     1     113.307 127.798 136.083  0.00  0.00    +0.000 C 
ENDBRANCH  12  25
BRANCH   4  26
ATOM     26  O   UNL     1     112.290 127.745 138.855  0.00  0.00    +0.000 OA
BRANCH  26  35
ATOM     27  O   UNL     1     111.298 128.660 138.384  0.00  0.00    +0.000 OA
ATOM     28  O   UNL     1     111.244 130.841 138.400  0.00  0.00    +0.000 OA
ATOM     29  O   UNL     1     112.704 130.561 139.115  0.00  0.00    +0.000 OA
ATOM     30  O   UNL     1     113.227 129.013 139.342  0.00  0.00    +0.000 OA
ATOM     31  C   UNL     1     111.505 130.067 138.514  0.00  0.00    +0.000 C 
ATOM     32  C   UNL     1     112.235 129.927 138.871  0.00  0.00    +0.000 C 
ATOM     33  C   UNL     1     111.037 129.433 138.270  0.00  0.00    +0.000 C 
ATOM     34  C   UNL     1     112.497 129.152 138.985  0.00  0.00    +0.000 C 
ATOM     35  C   UNL     1     112.029 128.519 138.741  0.00  0.00    +0.000 C 
BRANCH  33  36
ATOM     36  C   UNL     1     110.392 129.843 137.960  0.00  0.00    +0.000 C 
BRANCH  36  37
ATOM     37  O   UNL     1     109.825 129.444 137.512  0.00  0.00    +0.000 OA
BRANCH  37  39
ATOM     38  O   UNL     1     108.618 130.167 137.755  0.00  0.00    +0.000 OA
ATOM     39  C   UNL     1     109.165 129.847 137.227  0.00  0.00    +0.000 C 
BRANCH  39  40
ATOM     40  C   UNL     1     109.051 129.931 136.414  0.00  0.00    +0.000 C 
BRANCH  40  43
ATOM     41  O   UNL     1     108.169 128.943 135.880  0.00  0.00    +0.000 OA
ATOM     42  O   UNL     1     107.760 130.311 135.932  0.00  0.00    +0.000 OA
ATOM     43  C   UNL     1     108.327 129.727 136.076  0.00  0.00    +0.000 C 
ENDBRANCH  40  43
ENDBRANCH  39  40
ENDBRANCH  37  39
ENDBRANCH  36  37
ENDBRANCH  33  36
ENDBRANCH  26  35
ENDBRANCH   4  26
TORSDOF 9
ENDMDL
MODEL 4
REMARK VINA RESULT:      -9.2      2.353      4.058
REMARK  Name = 44257033
REMARK  9 active torsions:
REMARK  status: ('A' for Active; 'I' for Inactive)
REMARK    1  A    between atoms: O_2  and  C_21
REMARK    2  A    between atoms: O_2  and  C_23
REMARK    3  A    between atoms: O_6  and  C_22
REMARK    4  A    between atoms: O_6  and  C_31
REMARK    5  A    between atoms: C_19  and  C_22
REMARK    6  A    between atoms: C_25  and  C_30
REMARK    7  A    between atoms: C_31  and  C_38
REMARK    8  A    between atoms: C_33  and  C_40
REMARK    9  A    between atoms: C_38  and  C_43
REMARK                            x       y       z     vdW  Elec       q    Type
REMARK                         _______ _______ _______ _____ _____    ______ ____
ROOT
ATOM      1  O   UNL     1     113.632 126.297 138.904  0.00  0.00    +0.000 OA
ATOM      2  O   UNL     1     110.990 126.626 139.981  0.00  0.00    +0.000 OA
ATOM      3  O   UNL     1     113.313 127.406 141.578  0.00  0.00    +0.000 OA
ATOM      4  C   UNL     1     112.488 125.921 138.136  0.00  0.00    +0.000 A 
ATOM      5  C   UNL     1     111.995 126.158 138.754  0.00  0.00    +0.000 A 
ATOM      6  C   UNL     1     113.306 125.991 138.211  0.00  0.00    +0.000 A 
ATOM      7  C   UNL     1     112.322 126.464 139.448  0.00  0.00    +0.000 A 
ATOM      8  C   UNL     1     113.140 126.534 139.522  0.00  0.00    +0.000 A 
ATOM      9  C   UNL     1     111.798 126.707 140.084  0.00  0.00    +0.000 A 
ATOM     10  C   UNL     1     111.184 126.088 138.679  0.00  0.00    +0.000 A 
ATOM     11  C   UNL     1     113.491 126.852 140.239  0.00  0.00    +0.000 A 
ATOM     12  C   UNL     1     110.686 126.320 139.286  0.00  0.00    +0.000 A 
ATOM     13  C   UNL     1     112.132 127.027 140.808  0.00  0.00    +0.000 A 
ATOM     14  C   UNL     1     112.984 127.100 140.886  0.00  0.00    +0.000 A 
ENDROOT
BRANCH   6  17
ATOM     15  O   UNL     1     114.894 126.638 135.925  0.00  0.00    +0.000 OA
ATOM     16  O   UNL     1     115.275 125.043 135.739  0.00  0.00    +0.000 OA
ATOM     17  C   UNL     1     113.798 125.754 137.593  0.00  0.00    +0.000 A 
ATOM     18  C   UNL     1     114.100 126.314 137.068  0.00  0.00    +0.000 A 
ATOM     19  C   UNL     1     113.989 124.956 137.500  0.00  0.00    +0.000 A 
ATOM     20  C   UNL     1     114.593 126.078 136.450  0.00  0.00    +0.000 A 
ATOM     21  C   UNL     1     114.481 124.720 136.882  0.00  0.00    +0.000 A 
ATOM     22  C   UNL     1     114.783 125.280 136.357  0.00  0.00    +0.000 A 
ENDBRANCH   6  17
BRANCH  12  25
ATOM     23  O   UNL     1     109.499 125.529 139.373  0.00  0.00    +0.000 OA
ATOM     24  O   UNL     1     109.423 126.885 138.930  0.00  0.00    +0.000 OA
ATOM     25  C   UNL     1     109.870 126.244 139.196  0.00  0.00    +0.000 C 
ENDBRANCH  12  25
BRANCH   4  26
ATOM     26  O   UNL     1     112.161 125.614 137.443  0.00  0.00    +0.000 OA
BRANCH  26  35
ATOM     27  O   UNL     1     111.662 126.654 136.599  0.00  0.00    +0.000 OA
ATOM     28  O   UNL     1     110.337 126.574 134.867  0.00  0.00    +0.000 OA
ATOM     29  O   UNL     1     110.422 124.976 135.266  0.00  0.00    +0.000 OA
ATOM     30  O   UNL     1     111.335 124.496 136.555  0.00  0.00    +0.000 OA
ATOM     31  C   UNL     1     110.793 126.334 135.511  0.00  0.00    +0.000 C 
ATOM     32  C   UNL     1     110.836 125.535 135.711  0.00  0.00    +0.000 C 
ATOM     33  C   UNL     1     111.206 126.893 135.955  0.00  0.00    +0.000 C 
ATOM     34  C   UNL     1     111.292 125.295 136.355  0.00  0.00    +0.000 C 
ATOM     35  C   UNL     1     111.705 125.854 136.799  0.00  0.00    +0.000 C 
BRANCH  33  36
ATOM     36  C   UNL     1     110.994 127.581 135.552  0.00  0.00    +0.000 C 
BRANCH  36  37
ATOM     37  O   UNL     1     111.199 128.319 135.859  0.00  0.00    +0.000 OA
BRANCH  37  39
ATOM     38  O   UNL     1     111.232 129.193 134.729  0.00  0.00    +0.000 OA
ATOM     39  C   UNL     1     110.947 129.008 135.481  0.00  0.00    +0.000 C 
BRANCH  39  40
ATOM     40  C   UNL     1     110.411 129.512 135.853  0.00  0.00    +0.000 C 
BRANCH  40  43
ATOM     41  O   UNL     1     111.102 130.679 136.299  0.00  0.00    +0.000 OA
ATOM     42  O   UNL     1     110.059 130.794 135.330  0.00  0.00    +0.000 OA
ATOM     43  C   UNL     1     110.524 130.328 135.828  0.00  0.00    +0.000 C 
ENDBRANCH  40  43
ENDBRANCH  39  40
ENDBRANCH  37  39
ENDBRANCH  36  37
ENDBRANCH  33  36
ENDBRANCH  26  35
ENDBRANCH   4  26
TORSDOF 9
ENDMDL
MODEL 5
REMARK VINA RESULT:      -9.2      1.948      4.492
REMARK  Name = 44257033
REMARK  9 active torsions:
REMARK  status: ('A' for Active; 'I' for Inactive)
REMARK    1  A    between atoms: O_2  and  C_21
REMARK    2  A    between atoms: O_2  and  C_23
REMARK    3  A    between atoms: O_6  and  C_22
REMARK    4  A    between atoms: O_6  and  C_31
REMARK    5  A    between atoms: C_19  and  C_22
REMARK    6  A    between atoms: C_25  and  C_30
REMARK    7  A    between atoms: C_31  and  C_38
REMARK    8  A    between atoms: C_33  and  C_40
REMARK    9  A    between atoms: C_38  and  C_43
REMARK                            x       y       z     vdW  Elec       q    Type
REMARK                         _______ _______ _______ _____ _____    ______ ____
ROOT
ATOM      1  O   UNL     1     112.826 125.794 138.417  0.00  0.00    +0.000 OA
ATOM      2  O   UNL     1     113.851 127.173 136.116  0.00  0.00    +0.000 OA
ATOM      3  O   UNL     1     115.016 124.610 136.908  0.00  0.00    +0.000 OA
ATOM      4  C   UNL     1     112.266 127.047 138.019  0.00  0.00    +0.000 A 
ATOM      5  C   UNL     1     112.797 127.082 137.387  0.00  0.00    +0.000 A 
ATOM      6  C   UNL     1     112.281 126.402 138.533  0.00  0.00    +0.000 A 
ATOM      7  C   UNL     1     113.342 126.473 137.271  0.00  0.00    +0.000 A 
ATOM      8  C   UNL     1     113.356 125.829 137.786  0.00  0.00    +0.000 A 
ATOM      9  C   UNL     1     113.888 126.522 136.610  0.00  0.00    +0.000 A 
ATOM     10  C   UNL     1     112.782 127.721 136.877  0.00  0.00    +0.000 A 
ATOM     11  C   UNL     1     113.918 125.189 137.676  0.00  0.00    +0.000 A 
ATOM     12  C   UNL     1     113.303 127.766 136.247  0.00  0.00    +0.000 A 
ATOM     13  C   UNL     1     114.458 125.890 136.484  0.00  0.00    +0.000 A 
ATOM     14  C   UNL     1     114.473 125.220 137.021  0.00  0.00    +0.000 A 
ENDROOT
BRANCH   6  17
ATOM     15  O   UNL     1     111.730 126.693 141.323  0.00  0.00    +0.000 OA
ATOM     16  O   UNL     1     110.160 126.262 141.057  0.00  0.00    +0.000 OA
ATOM     17  C   UNL     1     111.751 126.367 139.164  0.00  0.00    +0.000 A 
ATOM     18  C   UNL     1     112.006 126.548 139.929  0.00  0.00    +0.000 A 
ATOM     19  C   UNL     1     110.966 126.152 139.032  0.00  0.00    +0.000 A 
ATOM     20  C   UNL     1     111.476 126.513 140.560  0.00  0.00    +0.000 A 
ATOM     21  C   UNL     1     110.435 126.117 139.663  0.00  0.00    +0.000 A 
ATOM     22  C   UNL     1     110.690 126.297 140.426  0.00  0.00    +0.000 A 
ENDBRANCH   6  17
BRANCH  12  25
ATOM     23  O   UNL     1     113.825 129.028 135.825  0.00  0.00    +0.000 OA
ATOM     24  O   UNL     1     112.702 128.456 135.150  0.00  0.00    +0.000 OA
ATOM     25  C   UNL     1     113.277 128.416 135.741  0.00  0.00    +0.000 C 
ENDBRANCH  12  25
BRANCH   4  26
ATOM     26  O   UNL     1     111.722 127.656 138.134  0.00  0.00    +0.000 OA
BRANCH  26  35
ATOM     27  O   UNL     1     112.330 128.795 138.746  0.00  0.00    +0.000 OA
ATOM     28  O   UNL     1     111.639 130.857 138.930  0.00  0.00    +0.000 OA
ATOM     29  O   UNL     1     110.382 130.180 138.104  0.00  0.00    +0.000 OA
ATOM     30  O   UNL     1     110.423 128.579 137.706  0.00  0.00    +0.000 OA
ATOM     31  C   UNL     1     111.660 130.056 138.731  0.00  0.00    +0.000 C 
ATOM     32  C   UNL     1     111.031 129.718 138.318  0.00  0.00    +0.000 C 
ATOM     33  C   UNL     1     112.310 129.595 138.945  0.00  0.00    +0.000 C 
ATOM     34  C   UNL     1     111.052 128.917 138.119  0.00  0.00    +0.000 C 
ATOM     35  C   UNL     1     111.702 128.456 138.333  0.00  0.00    +0.000 C 
BRANCH  33  36
ATOM     36  C   UNL     1     112.768 130.162 139.330  0.00  0.00    +0.000 C 
BRANCH  36  37
ATOM     37  O   UNL     1     113.459 129.939 139.721  0.00  0.00    +0.000 OA
BRANCH  37  39
ATOM     38  O   UNL     1     114.348 130.971 139.293  0.00  0.00    +0.000 OA
ATOM     39  C   UNL     1     114.036 130.502 139.895  0.00  0.00    +0.000 C 
BRANCH  39  40
ATOM     40  C   UNL     1     114.301 130.597 140.671  0.00  0.00    +0.000 C 
BRANCH  40  43
ATOM     41  O   UNL     1     115.710 130.370 140.717  0.00  0.00    +0.000 OA
ATOM     42  O   UNL     1     115.182 131.653 141.060  0.00  0.00    +0.000 OA
ATOM     43  C   UNL     1     115.064 130.873 140.816  0.00  0.00    +0.000 C 
ENDBRANCH  40  43
ENDBRANCH  39  40
ENDBRANCH  37  39
ENDBRANCH  36  37
ENDBRANCH  33  36
ENDBRANCH  26  35
ENDBRANCH   4  26
TORSDOF 9
ENDMDL
MODEL 6
REMARK VINA RESULT:      -9.1      1.915      4.664
REMARK  Name = 44257033
REMARK  9 active torsions:
REMARK  status: ('A' for Active; 'I' for Inactive)
REMARK    1  A    between atoms: O_2  and  C_21
REMARK    2  A    between atoms: O_2  and  C_23
REMARK    3  A    between atoms: O_6  and  C_22
REMARK    4  A    between atoms: O_6  and  C_31
REMARK    5  A    between atoms: C_19  and  C_22
REMARK    6  A    between atoms: C_25  and  C_30
REMARK    7  A    between atoms: C_31  and  C_38
REMARK    8  A    between atoms: C_33  and  C_40
REMARK    9  A    between atoms: C_38  and  C_43
REMARK                            x       y       z     vdW  Elec       q    Type
REMARK                         _______ _______ _______ _____ _____    ______ ____
ROOT
ATOM      1  O   UNL     1     114.028 126.962 136.349  0.00  0.00    +0.000 OA
ATOM      2  O   UNL     1     112.594 125.469 138.340  0.00  0.00    +0.000 OA
ATOM      3  O   UNL     1     114.938 124.287 137.052  0.00  0.00    +0.000 OA
ATOM      4  C   UNL     1     112.881 127.527 136.987  0.00  0.00    +0.000 A 
ATOM      5  C   UNL     1     112.791 126.839 137.434  0.00  0.00    +0.000 A 
ATOM      6  C   UNL     1     113.499 127.588 136.445  0.00  0.00    +0.000 A 
ATOM      7  C   UNL     1     113.321 126.213 137.338  0.00  0.00    +0.000 A 
ATOM      8  C   UNL     1     113.939 126.275 136.796  0.00  0.00    +0.000 A 
ATOM      9  C   UNL     1     113.216 125.502 137.810  0.00  0.00    +0.000 A 
ATOM     10  C   UNL     1     112.178 126.779 137.972  0.00  0.00    +0.000 A 
ATOM     11  C   UNL     1     114.496 125.630 136.687  0.00  0.00    +0.000 A 
ATOM     12  C   UNL     1     112.080 126.101 138.420  0.00  0.00    +0.000 A 
ATOM     13  C   UNL     1     113.764 124.847 137.714  0.00  0.00    +0.000 A 
ATOM     14  C   UNL     1     114.408 124.911 137.149  0.00  0.00    +0.000 A 
ENDROOT
BRANCH   6  17
ATOM     15  O   UNL     1     114.840 130.064 135.954  0.00  0.00    +0.000 OA
ATOM     16  O   UNL     1     113.856 130.339 134.658  0.00  0.00    +0.000 OA
ATOM     17  C   UNL     1     113.589 128.276 135.998  0.00  0.00    +0.000 A 
ATOM     18  C   UNL     1     114.170 128.827 136.199  0.00  0.00    +0.000 A 
ATOM     19  C   UNL     1     113.097 128.414 135.350  0.00  0.00    +0.000 A 
ATOM     20  C   UNL     1     114.259 129.514 135.753  0.00  0.00    +0.000 A 
ATOM     21  C   UNL     1     113.186 129.101 134.903  0.00  0.00    +0.000 A 
ATOM     22  C   UNL     1     113.767 129.651 135.104  0.00  0.00    +0.000 A 
ENDBRANCH   6  17
BRANCH  12  25
ATOM     23  O   UNL     1     111.587 126.219 139.756  0.00  0.00    +0.000 OA
ATOM     24  O   UNL     1     110.703 125.842 138.699  0.00  0.00    +0.000 OA
ATOM     25  C   UNL     1     111.457 126.054 138.959  0.00  0.00    +0.000 C 
ENDBRANCH  12  25
BRANCH   4  26
ATOM     26  O   UNL     1     112.352 128.153 137.083  0.00  0.00    +0.000 OA
BRANCH  26  35
ATOM     27  O   UNL     1     112.673 128.942 138.231  0.00  0.00    +0.000 OA
ATOM     28  O   UNL     1     111.497 130.421 139.321  0.00  0.00    +0.000 OA
ATOM     29  O   UNL     1     110.427 129.979 138.146  0.00  0.00    +0.000 OA
ATOM     30  O   UNL     1     110.855 128.844 137.027  0.00  0.00    +0.000 OA
ATOM     31  C   UNL     1     111.711 129.854 138.762  0.00  0.00    +0.000 C 
ATOM     32  C   UNL     1     111.176 129.633 138.174  0.00  0.00    +0.000 C 
ATOM     33  C   UNL     1     112.460 129.508 138.790  0.00  0.00    +0.000 C 
ATOM     34  C   UNL     1     111.390 129.065 137.614  0.00  0.00    +0.000 C 
ATOM     35  C   UNL     1     112.138 128.719 137.643  0.00  0.00    +0.000 C 
BRANCH  33  36
ATOM     36  C   UNL     1     112.772 129.897 139.447  0.00  0.00    +0.000 C 
BRANCH  36  37
ATOM     37  O   UNL     1     113.565 129.792 139.650  0.00  0.00    +0.000 OA
BRANCH  37  39
ATOM     38  O   UNL     1     113.703 129.826 141.071  0.00  0.00    +0.000 OA
ATOM     39  C   UNL     1     113.867 130.148 140.330  0.00  0.00    +0.000 C 
BRANCH  39  40
ATOM     40  C   UNL     1     114.333 130.826 140.269  0.00  0.00    +0.000 C 
BRANCH  40  43
ATOM     41  O   UNL     1     115.034 131.481 141.328  0.00  0.00    +0.000 OA
ATOM     42  O   UNL     1     115.657 130.412 140.613  0.00  0.00    +0.000 OA
ATOM     43  C   UNL     1     115.008 130.907 140.737  0.00  0.00    +0.000 C 
ENDBRANCH  40  43
ENDBRANCH  39  40
ENDBRANCH  37  39
ENDBRANCH  36  37
ENDBRANCH  33  36
ENDBRANCH  26  35
ENDBRANCH   4  26
TORSDOF 9
ENDMDL
MODEL 7
REMARK VINA RESULT:      -9.1      2.062      4.229
REMARK  Name = 44257033
REMARK  9 active torsions:
REMARK  status: ('A' for Active; 'I' for Inactive)
REMARK    1  A    between atoms: O_2  and  C_21
REMARK    2  A    between atoms: O_2  and  C_23
REMARK    3  A    between atoms: O_6  and  C_22
REMARK    4  A    between atoms: O_6  and  C_31
REMARK    5  A    between atoms: C_19  and  C_22
REMARK    6  A    between atoms: C_25  and  C_30
REMARK    7  A    between atoms: C_31  and  C_38
REMARK    8  A    between atoms: C_33  and  C_40
REMARK    9  A    between atoms: C_38  and  C_43
REMARK                            x       y       z     vdW  Elec       q    Type
REMARK                         _______ _______ _______ _____ _____    ______ ____
ROOT
ATOM      1  O   UNL     1     111.769 125.586 136.127  0.00  0.00    +0.000 OA
ATOM      2  O   UNL     1     109.461 126.800 137.332  0.00  0.00    +0.000 OA
ATOM      3  O   UNL     1     109.287 125.738 134.613  0.00  0.00    +0.000 OA
ATOM      4  C   UNL     1     111.840 126.109 137.455  0.00  0.00    +0.000 A 
ATOM      5  C   UNL     1     111.048 126.336 137.408  0.00  0.00    +0.000 A 
ATOM      6  C   UNL     1     112.200 125.734 136.815  0.00  0.00    +0.000 A 
ATOM      7  C   UNL     1     110.617 126.188 136.719  0.00  0.00    +0.000 A 
ATOM      8  C   UNL     1     110.978 125.813 136.079  0.00  0.00    +0.000 A 
ATOM      9  C   UNL     1     109.793 126.429 136.682  0.00  0.00    +0.000 A 
ATOM     10  C   UNL     1     110.691 126.708 138.042  0.00  0.00    +0.000 A 
ATOM     11  C   UNL     1     110.539 125.653 135.357  0.00  0.00    +0.000 A 
ATOM     12  C   UNL     1     109.906 126.938 138.005  0.00  0.00    +0.000 A 
ATOM     13  C   UNL     1     109.339 126.278 135.968  0.00  0.00    +0.000 A 
ATOM     14  C   UNL     1     109.715 125.887 135.302  0.00  0.00    +0.000 A 
ENDROOT
BRANCH   6  17
ATOM     15  O   UNL     1     114.950 126.194 136.187  0.00  0.00    +0.000 OA
ATOM     16  O   UNL     1     115.366 124.825 137.008  0.00  0.00    +0.000 OA
ATOM     17  C   UNL     1     112.991 125.506 136.863  0.00  0.00    +0.000 A 
ATOM     18  C   UNL     1     113.575 125.964 136.501  0.00  0.00    +0.000 A 
ATOM     19  C   UNL     1     113.200 124.821 137.273  0.00  0.00    +0.000 A 
ATOM     20  C   UNL     1     114.367 125.737 136.549  0.00  0.00    +0.000 A 
ATOM     21  C   UNL     1     113.991 124.594 137.322  0.00  0.00    +0.000 A 
ATOM     22  C   UNL     1     114.575 125.052 136.960  0.00  0.00    +0.000 A 
ENDBRANCH   6  17
BRANCH  12  25
ATOM     23  O   UNL     1     109.266 126.863 139.281  0.00  0.00    +0.000 OA
ATOM     24  O   UNL     1     109.504 128.135 138.674  0.00  0.00    +0.000 OA
ATOM     25  C   UNL     1     109.559 127.312 138.653  0.00  0.00    +0.000 C 
ENDBRANCH  12  25
BRANCH   4  26
ATOM     26  O   UNL     1     112.270 126.257 138.143  0.00  0.00    +0.000 OA
BRANCH  26  35
ATOM     27  O   UNL     1     112.708 127.615 138.211  0.00  0.00    +0.000 OA
ATOM     28  O   UNL     1     113.452 128.794 139.890  0.00  0.00    +0.000 OA
ATOM     29  O   UNL     1     113.166 127.347 140.628  0.00  0.00    +0.000 OA
ATOM     30  O   UNL     1     112.575 126.078 139.755  0.00  0.00    +0.000 OA
ATOM     31  C   UNL     1     113.156 128.160 139.453  0.00  0.00    +0.000 C 
ATOM     32  C   UNL     1     113.014 127.437 139.823  0.00  0.00    +0.000 C 
ATOM     33  C   UNL     1     113.004 128.249 138.647  0.00  0.00    +0.000 C 
ATOM     34  C   UNL     1     112.718 126.802 139.385  0.00  0.00    +0.000 C 
ATOM     35  C   UNL     1     112.565 126.891 138.580  0.00  0.00    +0.000 C 
BRANCH  33  36
ATOM     36  C   UNL     1     113.226 129.037 138.546  0.00  0.00    +0.000 C 
BRANCH  36  37
ATOM     37  O   UNL     1     113.192 129.383 137.797  0.00  0.00    +0.000 OA
BRANCH  37  39
ATOM     38  O   UNL     1     112.911 130.761 138.046  0.00  0.00    +0.000 OA
ATOM     39  C   UNL     1     113.383 130.179 137.702  0.00  0.00    +0.000 C 
BRANCH  39  40
ATOM     40  C   UNL     1     114.048 130.395 137.261  0.00  0.00    +0.000 C 
BRANCH  40  43
ATOM     41  O   UNL     1     113.713 131.631 136.631  0.00  0.00    +0.000 OA
ATOM     42  O   UNL     1     114.122 130.514 135.840  0.00  0.00    +0.000 OA
ATOM     43  C   UNL     1     113.961 130.847 136.578  0.00  0.00    +0.000 C 
ENDBRANCH  40  43
ENDBRANCH  39  40
ENDBRANCH  37  39
ENDBRANCH  36  37
ENDBRANCH  33  36
ENDBRANCH  26  35
ENDBRANCH   4  26
TORSDOF 9
ENDMDL
MODEL 8
REMARK VINA RESULT:      -9.1      1.965      3.802
REMARK  Name = 44257033
REMARK  9 active torsions:
REMARK  status: ('A' for Active; 'I' for Inactive)
REMARK    1  A    between atoms: O_2  and  C_21
REMARK    2  A    between atoms: O_2  and  C_23
REMARK    3  A    between atoms: O_6  and  C_22
REMARK    4  A    between atoms: O_6  and  C_31
REMARK    5  A    between atoms: C_19  and  C_22
REMARK    6  A    between atoms: C_25  and  C_30
REMARK    7  A    between atoms: C_31  and  C_38
REMARK    8  A    between atoms: C_33  and  C_40
REMARK    9  A    between atoms: C_38  and  C_43
REMARK                            x       y       z     vdW  Elec       q    Type
REMARK                         _______ _______ _______ _____ _____    ______ ____
ROOT
ATOM      1  O   UNL     1     112.072 126.090 137.920  0.00  0.00    +0.000 OA
ATOM      2  O   UNL     1     111.507 127.428 135.442  0.00  0.00    +0.000 OA
ATOM      3  O   UNL     1     110.924 124.575 135.714  0.00  0.00    +0.000 OA
ATOM      4  C   UNL     1     112.351 127.484 137.773  0.00  0.00    +0.000 A 
ATOM      5  C   UNL     1     112.069 127.459 136.998  0.00  0.00    +0.000 A 
ATOM      6  C   UNL     1     112.352 126.800 138.233  0.00  0.00    +0.000 A 
ATOM      7  C   UNL     1     111.788 126.748 136.684  0.00  0.00    +0.000 A 
ATOM      8  C   UNL     1     111.789 126.064 137.146  0.00  0.00    +0.000 A 
ATOM      9  C   UNL     1     111.496 126.735 135.876  0.00  0.00    +0.000 A 
ATOM     10  C   UNL     1     112.068 128.137 136.541  0.00  0.00    +0.000 A 
ATOM     11  C   UNL     1     111.499 125.319 136.830  0.00  0.00    +0.000 A 
ATOM     12  C   UNL     1     111.790 128.122 135.771  0.00  0.00    +0.000 A 
ATOM     13  C   UNL     1     111.203 125.998 135.544  0.00  0.00    +0.000 A 
ATOM     14  C   UNL     1     111.204 125.286 136.025  0.00  0.00    +0.000 A 
ENDROOT
BRANCH   6  17
ATOM     15  O   UNL     1     111.857 126.864 141.048  0.00  0.00    +0.000 OA
ATOM     16  O   UNL     1     113.482 126.904 141.332  0.00  0.00    +0.000 OA
ATOM     17  C   UNL     1     112.635 126.826 139.008  0.00  0.00    +0.000 A 
ATOM     18  C   UNL     1     112.105 126.832 139.641  0.00  0.00    +0.000 A 
ATOM     19  C   UNL     1     113.447 126.845 139.151  0.00  0.00    +0.000 A 
ATOM     20  C   UNL     1     112.387 126.858 140.416  0.00  0.00    +0.000 A 
ATOM     21  C   UNL     1     113.730 126.871 139.925  0.00  0.00    +0.000 A 
ATOM     22  C   UNL     1     113.200 126.878 140.558  0.00  0.00    +0.000 A 
ENDBRANCH   6  17
BRANCH  12  25
ATOM     23  O   UNL     1     111.116 129.280 135.275  0.00  0.00    +0.000 OA
ATOM     24  O   UNL     1     112.479 129.040 134.920  0.00  0.00    +0.000 OA
ATOM     25  C   UNL     1     111.794 128.814 135.322  0.00  0.00    +0.000 C 
ENDBRANCH  12  25
BRANCH   4  26
ATOM     26  O   UNL     1     112.632 128.194 138.085  0.00  0.00    +0.000 OA
BRANCH  26  35
ATOM     27  O   UNL     1     111.569 129.039 138.531  0.00  0.00    +0.000 OA
ATOM     28  O   UNL     1     111.534 131.174 138.977  0.00  0.00    +0.000 OA
ATOM     29  O   UNL     1     113.110 130.976 138.534  0.00  0.00    +0.000 OA
ATOM     30  O   UNL     1     113.659 129.485 138.088  0.00  0.00    +0.000 OA
ATOM     31  C   UNL     1     111.808 130.429 138.755  0.00  0.00    +0.000 C 
ATOM     32  C   UNL     1     112.596 130.330 138.533  0.00  0.00    +0.000 C 
ATOM     33  C   UNL     1     111.294 129.783 138.753  0.00  0.00    +0.000 C 
ATOM     34  C   UNL     1     112.871 129.584 138.309  0.00  0.00    +0.000 C 
ATOM     35  C   UNL     1     112.357 128.938 138.308  0.00  0.00    +0.000 C 
BRANCH  33  36
ATOM     36  C   UNL     1     110.601 130.152 139.006  0.00  0.00    +0.000 C 
BRANCH  36  37
ATOM     37  O   UNL     1     109.974 129.699 139.295  0.00  0.00    +0.000 OA
BRANCH  37  39
ATOM     38  O   UNL     1     108.735 130.203 138.796  0.00  0.00    +0.000 OA
ATOM     39  C   UNL     1     109.240 130.049 139.429  0.00  0.00    +0.000 C 
BRANCH  39  40
ATOM     40  C   UNL     1     109.010 130.245 140.197  0.00  0.00    +0.000 C 
BRANCH  40  43
ATOM     41  O   UNL     1     107.827 129.560 140.612  0.00  0.00    +0.000 OA
ATOM     42  O   UNL     1     107.794 130.971 140.387  0.00  0.00    +0.000 OA
ATOM     43  C   UNL     1     108.210 130.258 140.399  0.00  0.00    +0.000 C 
ENDBRANCH  40  43
ENDBRANCH  39  40
ENDBRANCH  37  39
ENDBRANCH  36  37
ENDBRANCH  33  36
ENDBRANCH  26  35
ENDBRANCH   4  26
TORSDOF 9
ENDMDL
MODEL 9
REMARK VINA RESULT:      -9.0      1.501      3.309
REMARK  Name = 44257033
REMARK  9 active torsions:
REMARK  status: ('A' for Active; 'I' for Inactive)
REMARK    1  A    between atoms: O_2  and  C_21
REMARK    2  A    between atoms: O_2  and  C_23
REMARK    3  A    between atoms: O_6  and  C_22
REMARK    4  A    between atoms: O_6  and  C_31
REMARK    5  A    between atoms: C_19  and  C_22
REMARK    6  A    between atoms: C_25  and  C_30
REMARK    7  A    between atoms: C_31  and  C_38
REMARK    8  A    between atoms: C_33  and  C_40
REMARK    9  A    between atoms: C_38  and  C_43
REMARK                            x       y       z     vdW  Elec       q    Type
REMARK                         _______ _______ _______ _____ _____    ______ ____
ROOT
ATOM      1  O   UNL     1     112.768 126.454 139.072  0.00  0.00    +0.000 OA
ATOM      2  O   UNL     1     112.812 129.250 139.728  0.00  0.00    +0.000 OA
ATOM      3  O   UNL     1     112.001 127.299 141.751  0.00  0.00    +0.000 OA
ATOM      4  C   UNL     1     113.161 127.418 138.094  0.00  0.00    +0.000 A 
ATOM      5  C   UNL     1     113.043 128.023 138.643  0.00  0.00    +0.000 A 
ATOM      6  C   UNL     1     113.024 126.634 138.309  0.00  0.00    +0.000 A 
ATOM      7  C   UNL     1     112.787 127.842 139.407  0.00  0.00    +0.000 A 
ATOM      8  C   UNL     1     112.649 127.058 139.621  0.00  0.00    +0.000 A 
ATOM      9  C   UNL     1     112.667 128.481 139.969  0.00  0.00    +0.000 A 
ATOM     10  C   UNL     1     113.180 128.801 138.429  0.00  0.00    +0.000 A 
ATOM     11  C   UNL     1     112.382 126.858 140.413  0.00  0.00    +0.000 A 
ATOM     12  C   UNL     1     113.066 129.408 138.967  0.00  0.00    +0.000 A 
ATOM     13  C   UNL     1     112.401 128.299 140.766  0.00  0.00    +0.000 A 
ATOM     14  C   UNL     1     112.257 127.482 140.989  0.00  0.00    +0.000 A 
ENDROOT
BRANCH   6  17
ATOM     15  O   UNL     1     111.969 124.746 136.440  0.00  0.00    +0.000 OA
ATOM     16  O   UNL     1     113.498 124.217 136.112  0.00  0.00    +0.000 OA
ATOM     17  C   UNL     1     113.142 126.030 137.760  0.00  0.00    +0.000 A 
ATOM     18  C   UNL     1     112.496 125.690 137.374  0.00  0.00    +0.000 A 
ATOM     19  C   UNL     1     113.906 125.765 137.595  0.00  0.00    +0.000 A 
ATOM     20  C   UNL     1     112.615 125.085 136.825  0.00  0.00    +0.000 A 
ATOM     21  C   UNL     1     114.025 125.161 137.046  0.00  0.00    +0.000 A 
ATOM     22  C   UNL     1     113.380 124.821 136.661  0.00  0.00    +0.000 A 
ENDBRANCH   6  17
BRANCH  12  25
ATOM     23  O   UNL     1     112.580 130.671 138.508  0.00  0.00    +0.000 OA
ATOM     24  O   UNL     1     113.978 130.484 138.738  0.00  0.00    +0.000 OA
ATOM     25  C   UNL     1     113.207 130.187 138.738  0.00  0.00    +0.000 C 
ENDBRANCH  12  25
BRANCH   4  26
ATOM     26  O   UNL     1     113.418 127.599 137.331  0.00  0.00    +0.000 OA
BRANCH  26  35
ATOM     27  O   UNL     1     112.347 128.066 136.507  0.00  0.00    +0.000 OA
ATOM     28  O   UNL     1     112.371 129.148 134.612  0.00  0.00    +0.000 OA
ATOM     29  O   UNL     1     113.987 128.991 134.900  0.00  0.00    +0.000 OA
ATOM     30  O   UNL     1     114.511 128.216 136.260  0.00  0.00    +0.000 OA
ATOM     31  C   UNL     1     112.632 128.761 135.292  0.00  0.00    +0.000 C 
ATOM     32  C   UNL     1     113.441 128.682 135.436  0.00  0.00    +0.000 C 
ATOM     33  C   UNL     1     112.086 128.452 135.827  0.00  0.00    +0.000 C 
ATOM     34  C   UNL     1     113.702 128.295 136.116  0.00  0.00    +0.000 C 
ATOM     35  C   UNL     1     113.156 127.986 136.652  0.00  0.00    +0.000 C 
BRANCH  33  36
ATOM     36  C   UNL     1     111.383 128.664 135.452  0.00  0.00    +0.000 C 
BRANCH  36  37
ATOM     37  O   UNL     1     110.658 128.418 135.762  0.00  0.00    +0.000 OA
BRANCH  37  39
ATOM     38  O   UNL     1     109.779 128.705 134.673  0.00  0.00    +0.000 OA
ATOM     39  C   UNL     1     109.956 128.743 135.478  0.00  0.00    +0.000 C 
BRANCH  39  40
ATOM     40  C   UNL     1     109.429 129.108 135.999  0.00  0.00    +0.000 C 
BRANCH  40  43
ATOM     41  O   UNL     1     108.176 129.704 135.663  0.00  0.00    +0.000 OA
ATOM     42  O   UNL     1     108.243 128.311 135.969  0.00  0.00    +0.000 OA
ATOM     43  C   UNL     1     108.616 129.042 135.877  0.00  0.00    +0.000 C 
ENDBRANCH  40  43
ENDBRANCH  39  40
ENDBRANCH  37  39
ENDBRANCH  36  37
ENDBRANCH  33  36
ENDBRANCH  26  35
ENDBRANCH   4  26
TORSDOF 9
ENDMDL
MODEL 10
REMARK VINA RESULT:      -9.0      1.314      4.530
REMARK  Name = 44257033
REMARK  9 active torsions:
REMARK  status: ('A' for Active; 'I' for Inactive)
REMARK    1  A    between atoms: O_2  and  C_21
REMARK    2  A    between atoms: O_2  and  C_23
REMARK    3  A    between atoms: O_6  and  C_22
REMARK    4  A    between atoms: O_6  and  C_31
REMARK    5  A    between atoms: C_19  and  C_22
REMARK    6  A    between atoms: C_25  and  C_30
REMARK    7  A    between atoms: C_31  and  C_38
REMARK    8  A    between atoms: C_33  and  C_40
REMARK    9  A    between atoms: C_38  and  C_43
REMARK                            x       y       z     vdW  Elec       q    Type
REMARK                         _______ _______ _______ _____ _____    ______ ____
ROOT
ATOM      1  O   UNL     1     111.266 129.713 135.726  0.00  0.00    +0.000 OA
ATOM      2  O   UNL     1     109.256 129.396 137.752  0.00  0.00    +0.000 OA
ATOM      3  O   UNL     1     108.477 130.209 135.053  0.00  0.00    +0.000 OA
ATOM      4  C   UNL     1     111.632 129.317 137.049  0.00  0.00    +0.000 A 
ATOM      5  C   UNL     1     110.839 129.345 137.276  0.00  0.00    +0.000 A 
ATOM      6  C   UNL     1     111.845 129.501 136.273  0.00  0.00    +0.000 A 
ATOM      7  C   UNL     1     110.260 129.558 136.727  0.00  0.00    +0.000 A 
ATOM      8  C   UNL     1     110.474 129.742 135.953  0.00  0.00    +0.000 A 
ATOM      9  C   UNL     1     109.438 129.584 136.977  0.00  0.00    +0.000 A 
ATOM     10  C   UNL     1     110.629 129.162 138.045  0.00  0.00    +0.000 A 
ATOM     11  C   UNL     1     109.880 129.965 135.373  0.00  0.00    +0.000 A 
ATOM     12  C   UNL     1     109.845 129.187 138.281  0.00  0.00    +0.000 A 
ATOM     13  C   UNL     1     108.831 129.804 136.410  0.00  0.00    +0.000 A 
ATOM     14  C   UNL     1     109.053 129.996 135.603  0.00  0.00    +0.000 A 
ENDROOT
BRANCH   6  17
ATOM     15  O   UNL     1     114.433 130.709 136.162  0.00  0.00    +0.000 OA
ATOM     16  O   UNL     1     115.015 129.386 135.365  0.00  0.00    +0.000 OA
ATOM     17  C   UNL     1     112.638 129.472 136.046  0.00  0.00    +0.000 A 
ATOM     18  C   UNL     1     113.140 130.105 136.218  0.00  0.00    +0.000 A 
ATOM     19  C   UNL     1     112.929 128.811 135.648  0.00  0.00    +0.000 A 
ATOM     20  C   UNL     1     113.932 130.077 135.991  0.00  0.00    +0.000 A 
ATOM     21  C   UNL     1     113.722 128.783 135.421  0.00  0.00    +0.000 A 
ATOM     22  C   UNL     1     114.223 129.415 135.592  0.00  0.00    +0.000 A 
ENDBRANCH   6  17
BRANCH  12  25
ATOM     23  O   UNL     1     109.730 129.566 139.654  0.00  0.00    +0.000 OA
ATOM     24  O   UNL     1     109.365 128.247 139.244  0.00  0.00    +0.000 OA
ATOM     25  C   UNL     1     109.647 129.001 139.059  0.00  0.00    +0.000 C 
ENDBRANCH  12  25
BRANCH   4  26
ATOM     26  O   UNL     1     112.211 129.104 137.597  0.00  0.00    +0.000 OA
BRANCH  26  35
ATOM     27  O   UNL     1     112.249 127.690 137.798  0.00  0.00    +0.000 OA
ATOM     28  O   UNL     1     113.178 126.495 139.370  0.00  0.00    +0.000 OA
ATOM     29  O   UNL     1     113.586 128.018 139.855  0.00  0.00    +0.000 OA
ATOM     30  O   UNL     1     113.102 129.323 138.968  0.00  0.00    +0.000 OA
ATOM     31  C   UNL     1     112.936 127.147 138.927  0.00  0.00    +0.000 C 
ATOM     32  C   UNL     1     113.140 127.909 139.169  0.00  0.00    +0.000 C 
ATOM     33  C   UNL     1     112.490 127.038 138.241  0.00  0.00    +0.000 C 
ATOM     34  C   UNL     1     112.898 128.561 138.726  0.00  0.00    +0.000 C 
ATOM     35  C   UNL     1     112.452 128.452 138.040  0.00  0.00    +0.000 C 
BRANCH  33  36
ATOM     36  C   UNL     1     112.434 126.215 138.237  0.00  0.00    +0.000 C 
BRANCH  36  37
ATOM     37  O   UNL     1     112.114 125.826 137.583  0.00  0.00    +0.000 OA
BRANCH  37  39
ATOM     38  O   UNL     1     111.401 124.724 138.146  0.00  0.00    +0.000 OA
ATOM     39  C   UNL     1     111.962 125.016 137.618  0.00  0.00    +0.000 C 
BRANCH  39  40
ATOM     40  C   UNL     1     112.373 124.498 137.124  0.00  0.00    +0.000 C 
BRANCH  40  43
ATOM     41  O   UNL     1     112.026 123.113 137.135  0.00  0.00    +0.000 OA
ATOM     42  O   UNL     1     111.548 123.960 136.089  0.00  0.00    +0.000 OA
ATOM     43  C   UNL     1     111.983 123.856 136.783  0.00  0.00    +0.000 C 
ENDBRANCH  40  43
ENDBRANCH  39  40
ENDBRANCH  37  39
ENDBRANCH  36  37
ENDBRANCH  33  36
ENDBRANCH  26  35
ENDBRANCH   4  26
TORSDOF 9
ENDMDL
