MODEL 1
REMARK VINA RESULT:     -11.4      0.000      0.000
REMARK  Name = 20055968
REMARK  9 active torsions:
REMARK  status: ('A' for Active; 'I' for Inactive)
REMARK    1  A    between atoms: O_1  and  C_21
REMARK    2  A    between atoms: O_1  and  C_26
REMARK    3  A    between atoms: O_4  and  C_24
REMARK    4  A    between atoms: O_4  and  C_34
REMARK    5  A    between atoms: O_13  and  C_36
REMARK    6  A    between atoms: O_13  and  C_39
REMARK    7  A    between atoms: C_30  and  C_34
REMARK    8  A    between atoms: C_31  and  C_38
REMARK    9  A    between atoms: C_40  and  C_43
REMARK                            x       y       z     vdW  Elec       q    Type
REMARK                         _______ _______ _______ _____ _____    ______ ____
ROOT
ATOM      1  O   UNL     1     111.782 126.543 136.318  0.00  0.00    +0.000 OA
ATOM      2  O   UNL     1     110.345 126.986 134.734  0.00  0.00    +0.000 OA
ATOM      3  O   UNL     1     110.167 125.351 134.868  0.00  0.00    +0.000 OA
ATOM      4  O   UNL     1     111.065 124.511 135.968  0.00  0.00    +0.000 OA
ATOM      5  C   UNL     1     111.333 126.963 135.768  0.00  0.00    +0.000 C 
ATOM      6  C   UNL     1     110.794 126.566 135.284  0.00  0.00    +0.000 C 
ATOM      7  C   UNL     1     110.706 125.748 135.352  0.00  0.00    +0.000 C 
ATOM      8  C   UNL     1     111.155 125.328 135.902  0.00  0.00    +0.000 C 
ATOM      9  C   UNL     1     111.692 125.725 136.384  0.00  0.00    +0.000 C 
ENDROOT
BRANCH   9  10
ATOM     10  O   UNL     1     112.141 125.305 136.934  0.00  0.00    +0.000 OA
BRANCH  10  15
ATOM     11  O   UNL     1     113.281 126.118 138.609  0.00  0.00    +0.000 OA
ATOM     12  O   UNL     1     110.925 125.703 137.976  0.00  0.00    +0.000 OA
ATOM     13  O   UNL     1     110.463 126.240 139.233  0.00  0.00    +0.000 OA
ATOM     14  O   UNL     1     112.422 127.214 141.167  0.00  0.00    +0.000 OA
ATOM     15  C   UNL     1     112.319 125.643 137.667  0.00  0.00    +0.000 A 
ATOM     16  C   UNL     1     113.104 125.781 137.878  0.00  0.00    +0.000 A 
ATOM     17  C   UNL     1     111.710 125.841 138.187  0.00  0.00    +0.000 A 
ATOM     18  C   UNL     1     111.888 126.179 138.919  0.00  0.00    +0.000 A 
ATOM     19  C   UNL     1     112.673 126.317 139.130  0.00  0.00    +0.000 A 
ATOM     20  C   UNL     1     111.246 126.382 139.452  0.00  0.00    +0.000 A 
ATOM     21  C   UNL     1     112.871 126.668 139.889  0.00  0.00    +0.000 A 
ATOM     22  C   UNL     1     111.424 126.733 140.216  0.00  0.00    +0.000 A 
ATOM     23  C   UNL     1     112.242 126.877 140.436  0.00  0.00    +0.000 A 
BRANCH  16  25
ATOM     24  O   UNL     1     115.535 124.981 135.794  0.00  0.00    +0.000 OA
ATOM     25  C   UNL     1     113.712 125.582 137.356  0.00  0.00    +0.000 A 
ATOM     26  C   UNL     1     114.094 126.170 136.924  0.00  0.00    +0.000 A 
ATOM     27  C   UNL     1     113.937 124.793 137.269  0.00  0.00    +0.000 A 
ATOM     28  C   UNL     1     114.702 125.970 136.402  0.00  0.00    +0.000 A 
ATOM     29  C   UNL     1     114.545 124.592 136.748  0.00  0.00    +0.000 A 
ATOM     30  C   UNL     1     114.927 125.182 136.314  0.00  0.00    +0.000 A 
ENDBRANCH  16  25
ENDBRANCH  10  15
ENDBRANCH   9  10
BRANCH   5  31
ATOM     31  C   UNL     1     111.421 127.781 135.701  0.00  0.00    +0.000 C 
BRANCH  31  32
ATOM     32  O   UNL     1     111.168 128.275 136.310  0.00  0.00    +0.000 OA
BRANCH  32  39
ATOM     33  O   UNL     1     112.354 129.065 136.414  0.00  0.00    +0.000 OA
ATOM     34  O   UNL     1     110.249 129.622 136.568  0.00  0.00    +0.000 OA
ATOM     35  O   UNL     1     112.623 131.200 136.774  0.00  0.00    +0.000 OA
ATOM     36  C   UNL     1     111.436 130.411 136.671  0.00  0.00    +0.000 C 
ATOM     37  C   UNL     1     111.073 129.680 136.555  0.00  0.00    +0.000 C 
ATOM     38  C   UNL     1     112.260 130.469 136.658  0.00  0.00    +0.000 C 
ATOM     39  C   UNL     1     111.532 129.006 136.426  0.00  0.00    +0.000 C 
ATOM     40  C   UNL     1     112.719 129.796 136.530  0.00  0.00    +0.000 C 
ATOM     41  C   UNL     1     113.541 129.854 136.517  0.00  0.00    +0.000 C 
BRANCH  36  42
ATOM     42  O   UNL     1     110.977 131.084 136.800  0.00  0.00    +0.000 OA
BRANCH  42  47
ATOM     43  O   UNL     1     110.886 130.777 138.193  0.00  0.00    +0.000 OA
ATOM     44  O   UNL     1     110.358 132.586 137.091  0.00  0.00    +0.000 OA
ATOM     45  O   UNL     1     109.957 133.029 138.629  0.00  0.00    +0.000 OA
ATOM     46  O   UNL     1     110.176 131.971 139.876  0.00  0.00    +0.000 OA
ATOM     47  C   UNL     1     110.777 131.306 137.569  0.00  0.00    +0.000 C 
ATOM     48  C   UNL     1     110.467 132.056 137.715  0.00  0.00    +0.000 C 
ATOM     49  C   UNL     1     110.267 132.279 138.483  0.00  0.00    +0.000 C 
ATOM     50  C   UNL     1     110.376 131.749 139.107  0.00  0.00    +0.000 C 
ATOM     51  C   UNL     1     110.686 130.999 138.961  0.00  0.00    +0.000 C 
BRANCH  51  53
ATOM     52  O   UNL     1     111.555 130.321 139.871  0.00  0.00    +0.000 OA
ATOM     53  C   UNL     1     110.795 130.470 139.585  0.00  0.00    +0.000 C 
ENDBRANCH  51  53
ENDBRANCH  42  47
ENDBRANCH  36  42
ENDBRANCH  32  39
ENDBRANCH  31  32
ENDBRANCH   5  31
TORSDOF 9
ENDMDL
MODEL 2
REMARK VINA RESULT:     -11.3      1.941      3.914
REMARK  Name = 20055968
REMARK  9 active torsions:
REMARK  status: ('A' for Active; 'I' for Inactive)
REMARK    1  A    between atoms: O_1  and  C_21
REMARK    2  A    between atoms: O_1  and  C_26
REMARK    3  A    between atoms: O_4  and  C_24
REMARK    4  A    between atoms: O_4  and  C_34
REMARK    5  A    between atoms: O_13  and  C_36
REMARK    6  A    between atoms: O_13  and  C_39
REMARK    7  A    between atoms: C_30  and  C_34
REMARK    8  A    between atoms: C_31  and  C_38
REMARK    9  A    between atoms: C_40  and  C_43
REMARK                            x       y       z     vdW  Elec       q    Type
REMARK                         _______ _______ _______ _____ _____    ______ ____
ROOT
ATOM      1  O   UNL     1     111.329 128.063 137.173  0.00  0.00    +0.000 OA
ATOM      2  O   UNL     1     109.255 128.511 137.690  0.00  0.00    +0.000 OA
ATOM      3  O   UNL     1     109.182 128.553 136.042  0.00  0.00    +0.000 OA
ATOM      4  O   UNL     1     110.539 128.269 135.148  0.00  0.00    +0.000 OA
ATOM      5  C   UNL     1     110.650 128.206 137.620  0.00  0.00    +0.000 C 
ATOM      6  C   UNL     1     109.934 128.369 137.243  0.00  0.00    +0.000 C 
ATOM      7  C   UNL     1     109.898 128.390 136.419  0.00  0.00    +0.000 C 
ATOM      8  C   UNL     1     110.577 128.248 135.972  0.00  0.00    +0.000 C 
ATOM      9  C   UNL     1     111.291 128.085 136.349  0.00  0.00    +0.000 C 
ENDROOT
BRANCH   9  10
ATOM     10  O   UNL     1     111.970 127.942 135.902  0.00  0.00    +0.000 OA
BRANCH  10  15
ATOM     11  O   UNL     1     113.873 127.102 136.565  0.00  0.00    +0.000 OA
ATOM     12  O   UNL     1     111.541 126.372 136.171  0.00  0.00    +0.000 OA
ATOM     13  O   UNL     1     111.866 125.024 136.570  0.00  0.00    +0.000 OA
ATOM     14  O   UNL     1     114.601 124.402 137.382  0.00  0.00    +0.000 OA
ATOM     15  C   UNL     1     112.533 127.400 136.168  0.00  0.00    +0.000 A 
ATOM     16  C   UNL     1     113.311 127.643 136.299  0.00  0.00    +0.000 A 
ATOM     17  C   UNL     1     112.318 126.615 136.302  0.00  0.00    +0.000 A 
ATOM     18  C   UNL     1     112.881 126.073 136.568  0.00  0.00    +0.000 A 
ATOM     19  C   UNL     1     113.659 126.316 136.699  0.00  0.00    +0.000 A 
ATOM     20  C   UNL     1     112.645 125.258 136.704  0.00  0.00    +0.000 A 
ATOM     21  C   UNL     1     114.253 125.762 136.975  0.00  0.00    +0.000 A 
ATOM     22  C   UNL     1     113.227 124.689 136.980  0.00  0.00    +0.000 A 
ATOM     23  C   UNL     1     114.036 124.942 137.117  0.00  0.00    +0.000 A 
BRANCH  16  25
ATOM     24  O   UNL     1     114.167 130.784 135.759  0.00  0.00    +0.000 OA
ATOM     25  C   UNL     1     113.525 128.429 136.165  0.00  0.00    +0.000 A 
ATOM     26  C   UNL     1     113.651 128.937 136.802  0.00  0.00    +0.000 A 
ATOM     27  C   UNL     1     113.612 128.706 135.393  0.00  0.00    +0.000 A 
ATOM     28  C   UNL     1     113.865 129.723 136.667  0.00  0.00    +0.000 A 
ATOM     29  C   UNL     1     113.826 129.491 135.257  0.00  0.00    +0.000 A 
ATOM     30  C   UNL     1     113.953 130.000 135.895  0.00  0.00    +0.000 A 
ENDBRANCH  16  25
ENDBRANCH  10  15
ENDBRANCH   9  10
BRANCH   5  31
ATOM     31  C   UNL     1     110.686 128.185 138.444  0.00  0.00    +0.000 C 
BRANCH  31  32
ATOM     32  O   UNL     1     111.167 128.718 138.850  0.00  0.00    +0.000 OA
BRANCH  32  39
ATOM     33  O   UNL     1     111.793 127.722 139.662  0.00  0.00    +0.000 OA
ATOM     34  O   UNL     1     111.333 129.816 140.070  0.00  0.00    +0.000 OA
ATOM     35  O   UNL     1     112.583 127.824 141.694  0.00  0.00    +0.000 OA
ATOM     36  C   UNL     1     111.958 128.820 140.882  0.00  0.00    +0.000 C 
ATOM     37  C   UNL     1     111.604 129.043 140.171  0.00  0.00    +0.000 C 
ATOM     38  C   UNL     1     112.229 128.047 140.983  0.00  0.00    +0.000 C 
ATOM     39  C   UNL     1     111.521 128.494 139.561  0.00  0.00    +0.000 C 
ATOM     40  C   UNL     1     112.147 127.498 140.373  0.00  0.00    +0.000 C 
ATOM     41  C   UNL     1     112.418 126.726 140.474  0.00  0.00    +0.000 C 
BRANCH  36  42
ATOM     42  O   UNL     1     112.041 129.369 141.492  0.00  0.00    +0.000 OA
BRANCH  42  47
ATOM     43  O   UNL     1     113.317 129.766 140.987  0.00  0.00    +0.000 OA
ATOM     44  O   UNL     1     112.028 130.682 142.492  0.00  0.00    +0.000 OA
ATOM     45  O   UNL     1     113.299 131.735 142.487  0.00  0.00    +0.000 OA
ATOM     46  O   UNL     1     114.582 131.475 141.483  0.00  0.00    +0.000 OA
ATOM     47  C   UNL     1     112.676 129.896 141.489  0.00  0.00    +0.000 C 
ATOM     48  C   UNL     1     112.670 130.552 141.989  0.00  0.00    +0.000 C 
ATOM     49  C   UNL     1     113.305 131.079 141.987  0.00  0.00    +0.000 C 
ATOM     50  C   UNL     1     113.946 130.948 141.485  0.00  0.00    +0.000 C 
ATOM     51  C   UNL     1     113.952 130.292 140.985  0.00  0.00    +0.000 C 
BRANCH  51  53
ATOM     52  O   UNL     1     115.105 129.530 140.622  0.00  0.00    +0.000 OA
ATOM     53  C   UNL     1     114.594 130.163 140.483  0.00  0.00    +0.000 C 
ENDBRANCH  51  53
ENDBRANCH  42  47
ENDBRANCH  36  42
ENDBRANCH  32  39
ENDBRANCH  31  32
ENDBRANCH   5  31
TORSDOF 9
ENDMDL
MODEL 3
REMARK VINA RESULT:     -11.3      1.552      5.810
REMARK  Name = 20055968
REMARK  9 active torsions:
REMARK  status: ('A' for Active; 'I' for Inactive)
REMARK    1  A    between atoms: O_1  and  C_21
REMARK    2  A    between atoms: O_1  and  C_26
REMARK    3  A    between atoms: O_4  and  C_24
REMARK    4  A    between atoms: O_4  and  C_34
REMARK    5  A    between atoms: O_13  and  C_36
REMARK    6  A    between atoms: O_13  and  C_39
REMARK    7  A    between atoms: C_30  and  C_34
REMARK    8  A    between atoms: C_31  and  C_38
REMARK    9  A    between atoms: C_40  and  C_43
REMARK                            x       y       z     vdW  Elec       q    Type
REMARK                         _______ _______ _______ _____ _____    ______ ____
ROOT
ATOM      1  O   UNL     1     113.130 129.392 139.075  0.00  0.00    +0.000 OA
ATOM      2  O   UNL     1     114.001 128.739 140.968  0.00  0.00    +0.000 OA
ATOM      3  O   UNL     1     114.845 130.132 140.701  0.00  0.00    +0.000 OA
ATOM      4  O   UNL     1     114.546 131.031 139.350  0.00  0.00    +0.000 OA
ATOM      5  C   UNL     1     113.280 128.942 139.750  0.00  0.00    +0.000 C 
ATOM      6  C   UNL     1     113.851 129.189 140.293  0.00  0.00    +0.000 C 
ATOM      7  C   UNL     1     114.273 129.885 140.158  0.00  0.00    +0.000 C 
ATOM      8  C   UNL     1     114.123 130.335 139.483  0.00  0.00    +0.000 C 
ATOM      9  C   UNL     1     113.553 130.088 138.942  0.00  0.00    +0.000 C 
ENDROOT
BRANCH   9  10
ATOM     10  O   UNL     1     113.403 130.538 138.266  0.00  0.00    +0.000 OA
BRANCH  10  15
ATOM     11  O   UNL     1     111.731 130.400 136.870  0.00  0.00    +0.000 OA
ATOM     12  O   UNL     1     112.160 131.062 139.216  0.00  0.00    +0.000 OA
ATOM     13  O   UNL     1     110.765 131.377 139.412  0.00  0.00    +0.000 OA
ATOM     14  O   UNL     1     108.902 131.014 137.193  0.00  0.00    +0.000 OA
ATOM     15  C   UNL     1     112.638 130.579 137.959  0.00  0.00    +0.000 A 
ATOM     16  C   UNL     1     112.495 130.358 137.177  0.00  0.00    +0.000 A 
ATOM     17  C   UNL     1     112.017 130.842 138.434  0.00  0.00    +0.000 A 
ATOM     18  C   UNL     1     111.252 130.883 138.127  0.00  0.00    +0.000 A 
ATOM     19  C   UNL     1     111.109 130.662 137.345  0.00  0.00    +0.000 A 
ATOM     20  C   UNL     1     110.613 131.158 138.631  0.00  0.00    +0.000 A 
ATOM     21  C   UNL     1     110.318 130.701 137.013  0.00  0.00    +0.000 A 
ATOM     22  C   UNL     1     109.814 131.204 138.317  0.00  0.00    +0.000 A 
ATOM     23  C   UNL     1     109.665 130.974 137.503  0.00  0.00    +0.000 A 
BRANCH  16  25
ATOM     24  O   UNL     1     114.982 129.306 135.280  0.00  0.00    +0.000 OA
ATOM     25  C   UNL     1     113.117 130.096 136.703  0.00  0.00    +0.000 A 
ATOM     26  C   UNL     1     113.680 130.631 136.426  0.00  0.00    +0.000 A 
ATOM     27  C   UNL     1     113.176 129.297 136.505  0.00  0.00    +0.000 A 
ATOM     28  C   UNL     1     114.302 130.369 135.952  0.00  0.00    +0.000 A 
ATOM     29  C   UNL     1     113.797 129.034 136.031  0.00  0.00    +0.000 A 
ATOM     30  C   UNL     1     114.361 129.570 135.754  0.00  0.00    +0.000 A 
ENDBRANCH  16  25
ENDBRANCH  10  15
ENDBRANCH   9  10
BRANCH   5  31
ATOM     31  C   UNL     1     112.858 128.246 139.885  0.00  0.00    +0.000 C 
BRANCH  31  32
ATOM     32  O   UNL     1     112.786 127.685 139.284  0.00  0.00    +0.000 OA
BRANCH  32  39
ATOM     33  O   UNL     1     111.527 127.250 139.803  0.00  0.00    +0.000 OA
ATOM     34  O   UNL     1     112.877 126.319 138.362  0.00  0.00    +0.000 OA
ATOM     35  O   UNL     1     110.360 125.450 139.400  0.00  0.00    +0.000 OA
ATOM     36  C   UNL     1     111.618 125.885 138.881  0.00  0.00    +0.000 C 
ATOM     37  C   UNL     1     112.224 126.444 138.853  0.00  0.00    +0.000 C 
ATOM     38  C   UNL     1     110.966 126.009 139.371  0.00  0.00    +0.000 C 
ATOM     39  C   UNL     1     112.179 127.126 139.314  0.00  0.00    +0.000 C 
ATOM     40  C   UNL     1     110.920 126.692 139.832  0.00  0.00    +0.000 C 
ATOM     41  C   UNL     1     110.268 126.815 140.322  0.00  0.00    +0.000 C 
BRANCH  36  42
ATOM     42  O   UNL     1     111.664 125.202 138.420  0.00  0.00    +0.000 OA
BRANCH  42  47
ATOM     43  O   UNL     1     110.908 125.825 137.380  0.00  0.00    +0.000 OA
ATOM     44  O   UNL     1     112.101 123.997 137.381  0.00  0.00    +0.000 OA
ATOM     45  O   UNL     1     111.564 124.018 135.821  0.00  0.00    +0.000 OA
ATOM     46  O   UNL     1     110.589 125.243 135.300  0.00  0.00    +0.000 OA
ATOM     47  C   UNL     1     111.395 125.213 137.640  0.00  0.00    +0.000 C 
ATOM     48  C   UNL     1     111.614 124.610 137.121  0.00  0.00    +0.000 C 
ATOM     49  C   UNL     1     111.345 124.620 136.341  0.00  0.00    +0.000 C 
ATOM     50  C   UNL     1     110.858 125.233 136.081  0.00  0.00    +0.000 C 
ATOM     51  C   UNL     1     110.640 125.835 136.600  0.00  0.00    +0.000 C 
BRANCH  51  53
ATOM     52  O   UNL     1     110.466 127.201 136.219  0.00  0.00    +0.000 OA
ATOM     53  C   UNL     1     110.152 126.448 136.339  0.00  0.00    +0.000 C 
ENDBRANCH  51  53
ENDBRANCH  42  47
ENDBRANCH  36  42
ENDBRANCH  32  39
ENDBRANCH  31  32
ENDBRANCH   5  31
TORSDOF 9
ENDMDL
MODEL 4
REMARK VINA RESULT:     -11.3      1.493      3.113
REMARK  Name = 20055968
REMARK  9 active torsions:
REMARK  status: ('A' for Active; 'I' for Inactive)
REMARK    1  A    between atoms: O_1  and  C_21
REMARK    2  A    between atoms: O_1  and  C_26
REMARK    3  A    between atoms: O_4  and  C_24
REMARK    4  A    between atoms: O_4  and  C_34
REMARK    5  A    between atoms: O_13  and  C_36
REMARK    6  A    between atoms: O_13  and  C_39
REMARK    7  A    between atoms: C_30  and  C_34
REMARK    8  A    between atoms: C_31  and  C_38
REMARK    9  A    between atoms: C_40  and  C_43
REMARK                            x       y       z     vdW  Elec       q    Type
REMARK                         _______ _______ _______ _____ _____    ______ ____
ROOT
ATOM      1  O   UNL     1     111.065 126.754 138.249  0.00  0.00    +0.000 OA
ATOM      2  O   UNL     1     108.908 126.933 137.962  0.00  0.00    +0.000 OA
ATOM      3  O   UNL     1     108.966 125.913 139.258  0.00  0.00    +0.000 OA
ATOM      4  O   UNL     1     110.423 125.454 139.881  0.00  0.00    +0.000 OA
ATOM      5  C   UNL     1     110.336 126.984 137.937  0.00  0.00    +0.000 C 
ATOM      6  C   UNL     1     109.636 126.703 138.274  0.00  0.00    +0.000 C 
ATOM      7  C   UNL     1     109.666 126.194 138.921  0.00  0.00    +0.000 C 
ATOM      8  C   UNL     1     110.394 125.964 139.233  0.00  0.00    +0.000 C 
ATOM      9  C   UNL     1     111.093 126.244 138.897  0.00  0.00    +0.000 C 
ENDROOT
BRANCH   9  10
ATOM     10  O   UNL     1     111.822 126.014 139.208  0.00  0.00    +0.000 OA
BRANCH  10  15
ATOM     11  O   UNL     1     113.809 126.223 138.331  0.00  0.00    +0.000 OA
ATOM     12  O   UNL     1     111.727 124.939 137.960  0.00  0.00    +0.000 OA
ATOM     13  O   UNL     1     112.308 124.271 136.820  0.00  0.00    +0.000 OA
ATOM     14  O   UNL     1     115.048 124.915 136.042  0.00  0.00    +0.000 OA
ATOM     15  C   UNL     1     112.469 125.905 138.708  0.00  0.00    +0.000 A 
ATOM     16  C   UNL     1     113.163 126.333 138.831  0.00  0.00    +0.000 A 
ATOM     17  C   UNL     1     112.421 125.367 138.084  0.00  0.00    +0.000 A 
ATOM     18  C   UNL     1     113.068 125.258 137.583  0.00  0.00    +0.000 A 
ATOM     19  C   UNL     1     113.762 125.686 137.707  0.00  0.00    +0.000 A 
ATOM     20  C   UNL     1     113.006 124.695 136.937  0.00  0.00    +0.000 A 
ATOM     21  C   UNL     1     114.443 125.581 137.193  0.00  0.00    +0.000 A 
ATOM     22  C   UNL     1     113.677 124.577 136.412  0.00  0.00    +0.000 A 
ATOM     23  C   UNL     1     114.399 125.023 136.541  0.00  0.00    +0.000 A 
BRANCH  16  25
ATOM     24  O   UNL     1     113.351 128.484 141.327  0.00  0.00    +0.000 OA
ATOM     25  C   UNL     1     113.210 126.870 139.456  0.00  0.00    +0.000 A 
ATOM     26  C   UNL     1     113.264 126.598 140.232  0.00  0.00    +0.000 A 
ATOM     27  C   UNL     1     113.203 127.681 139.303  0.00  0.00    +0.000 A 
ATOM     28  C   UNL     1     113.311 127.135 140.856  0.00  0.00    +0.000 A 
ATOM     29  C   UNL     1     113.250 128.219 139.926  0.00  0.00    +0.000 A 
ATOM     30  C   UNL     1     113.304 127.946 140.703  0.00  0.00    +0.000 A 
ENDBRANCH  16  25
ENDBRANCH  10  15
ENDBRANCH   9  10
BRANCH   5  31
ATOM     31  C   UNL     1     110.306 127.493 137.289  0.00  0.00    +0.000 C 
BRANCH  31  32
ATOM     32  O   UNL     1     110.759 128.183 137.285  0.00  0.00    +0.000 OA
BRANCH  32  39
ATOM     33  O   UNL     1     110.349 128.513 135.957  0.00  0.00    +0.000 OA
ATOM     34  O   UNL     1     111.150 129.763 137.557  0.00  0.00    +0.000 OA
ATOM     35  O   UNL     1     110.331 130.423 134.900  0.00  0.00    +0.000 OA
ATOM     36  C   UNL     1     110.740 130.093 136.228  0.00  0.00    +0.000 C 
ATOM     37  C   UNL     1     110.847 129.533 136.824  0.00  0.00    +0.000 C 
ATOM     38  C   UNL     1     110.438 129.863 135.496  0.00  0.00    +0.000 C 
ATOM     39  C   UNL     1     110.652 128.743 136.688  0.00  0.00    +0.000 C 
ATOM     40  C   UNL     1     110.242 129.073 135.360  0.00  0.00    +0.000 C 
ATOM     41  C   UNL     1     109.940 128.843 134.628  0.00  0.00    +0.000 C 
BRANCH  36  42
ATOM     42  O   UNL     1     110.936 130.883 136.364  0.00  0.00    +0.000 OA
BRANCH  42  47
ATOM     43  O   UNL     1     109.626 131.164 136.861  0.00  0.00    +0.000 OA
ATOM     44  O   UNL     1     111.503 132.257 137.080  0.00  0.00    +0.000 OA
ATOM     45  O   UNL     1     110.476 133.226 137.934  0.00  0.00    +0.000 OA
ATOM     46  O   UNL     1     108.883 132.820 138.073  0.00  0.00    +0.000 OA
ATOM     47  C   UNL     1     110.422 131.367 136.792  0.00  0.00    +0.000 C 
ATOM     48  C   UNL     1     110.705 132.054 137.149  0.00  0.00    +0.000 C 
ATOM     49  C   UNL     1     110.193 132.539 137.577  0.00  0.00    +0.000 C 
ATOM     50  C   UNL     1     109.396 132.335 137.646  0.00  0.00    +0.000 C 
ATOM     51  C   UNL     1     109.113 131.648 137.288  0.00  0.00    +0.000 C 
BRANCH  51  53
ATOM     52  O   UNL     1     107.821 131.487 136.699  0.00  0.00    +0.000 OA
ATOM     53  C   UNL     1     108.316 131.445 137.358  0.00  0.00    +0.000 C 
ENDBRANCH  51  53
ENDBRANCH  42  47
ENDBRANCH  36  42
ENDBRANCH  32  39
ENDBRANCH  31  32
ENDBRANCH   5  31
TORSDOF 9
ENDMDL
MODEL 5
REMARK VINA RESULT:     -11.2      1.831      4.557
REMARK  Name = 20055968
REMARK  9 active torsions:
REMARK  status: ('A' for Active; 'I' for Inactive)
REMARK    1  A    between atoms: O_1  and  C_21
REMARK    2  A    between atoms: O_1  and  C_26
REMARK    3  A    between atoms: O_4  and  C_24
REMARK    4  A    between atoms: O_4  and  C_34
REMARK    5  A    between atoms: O_13  and  C_36
REMARK    6  A    between atoms: O_13  and  C_39
REMARK    7  A    between atoms: C_30  and  C_34
REMARK    8  A    between atoms: C_31  and  C_38
REMARK    9  A    between atoms: C_40  and  C_43
REMARK                            x       y       z     vdW  Elec       q    Type
REMARK                         _______ _______ _______ _____ _____    ______ ____
ROOT
ATOM      1  O   UNL     1     111.299 126.601 137.049  0.00  0.00    +0.000 OA
ATOM      2  O   UNL     1     111.374 124.514 137.685  0.00  0.00    +0.000 OA
ATOM      3  O   UNL     1     111.240 124.337 136.050  0.00  0.00    +0.000 OA
ATOM      4  O   UNL     1     111.145 125.668 135.081  0.00  0.00    +0.000 OA
ATOM      5  C   UNL     1     111.346 125.935 137.533  0.00  0.00    +0.000 C 
ATOM      6  C   UNL     1     111.327 125.180 137.200  0.00  0.00    +0.000 C 
ATOM      7  C   UNL     1     111.260 125.092 136.383  0.00  0.00    +0.000 C 
ATOM      8  C   UNL     1     111.212 125.758 135.898  0.00  0.00    +0.000 C 
ATOM      9  C   UNL     1     111.232 126.512 136.231  0.00  0.00    +0.000 C 
ENDROOT
BRANCH   9  10
ATOM     10  O   UNL     1     111.184 127.178 135.746  0.00  0.00    +0.000 OA
BRANCH  10  15
ATOM     11  O   UNL     1     111.707 129.242 136.224  0.00  0.00    +0.000 OA
ATOM     12  O   UNL     1     112.828 127.070 135.839  0.00  0.00    +0.000 OA
ATOM     13  O   UNL     1     114.123 127.668 136.059  0.00  0.00    +0.000 OA
ATOM     14  O   UNL     1     114.286 130.517 136.679  0.00  0.00    +0.000 OA
ATOM     15  C   UNL     1     111.633 127.849 135.921  0.00  0.00    +0.000 A 
ATOM     16  C   UNL     1     111.259 128.573 136.050  0.00  0.00    +0.000 A 
ATOM     17  C   UNL     1     112.454 127.794 135.968  0.00  0.00    +0.000 A 
ATOM     18  C   UNL     1     112.903 128.465 136.143  0.00  0.00    +0.000 A 
ATOM     19  C   UNL     1     112.529 129.189 136.271  0.00  0.00    +0.000 A 
ATOM     20  C   UNL     1     113.757 128.396 136.188  0.00  0.00    +0.000 A 
ATOM     21  C   UNL     1     112.984 129.894 136.454  0.00  0.00    +0.000 A 
ATOM     22  C   UNL     1     114.230 129.091 136.370  0.00  0.00    +0.000 A 
ATOM     23  C   UNL     1     113.841 129.845 136.504  0.00  0.00    +0.000 A 
BRANCH  16  25
ATOM     24  O   UNL     1     107.971 128.785 135.860  0.00  0.00    +0.000 OA
ATOM     25  C   UNL     1     110.437 128.626 136.003  0.00  0.00    +0.000 A 
ATOM     26  C   UNL     1     109.988 128.705 136.690  0.00  0.00    +0.000 A 
ATOM     27  C   UNL     1     110.063 128.600 135.268  0.00  0.00    +0.000 A 
ATOM     28  C   UNL     1     109.166 128.758 136.644  0.00  0.00    +0.000 A 
ATOM     29  C   UNL     1     109.241 128.653 135.220  0.00  0.00    +0.000 A 
ATOM     30  C   UNL     1     108.793 128.732 135.908  0.00  0.00    +0.000 A 
ENDBRANCH  16  25
ENDBRANCH  10  15
ENDBRANCH   9  10
BRANCH   5  31
ATOM     31  C   UNL     1     111.413 126.023 138.351  0.00  0.00    +0.000 C 
BRANCH  31  32
ATOM     32  O   UNL     1     112.120 126.291 138.681  0.00  0.00    +0.000 OA
BRANCH  32  39
ATOM     33  O   UNL     1     111.473 126.498 139.938  0.00  0.00    +0.000 OA
ATOM     34  O   UNL     1     113.445 127.109 139.228  0.00  0.00    +0.000 OA
ATOM     35  O   UNL     1     112.150 127.522 141.742  0.00  0.00    +0.000 OA
ATOM     36  C   UNL     1     112.797 127.316 140.485  0.00  0.00    +0.000 C 
ATOM     37  C   UNL     1     112.789 127.008 139.720  0.00  0.00    +0.000 C 
ATOM     38  C   UNL     1     112.142 127.214 140.977  0.00  0.00    +0.000 C 
ATOM     39  C   UNL     1     112.127 126.599 139.446  0.00  0.00    +0.000 C 
ATOM     40  C   UNL     1     111.479 126.806 140.703  0.00  0.00    +0.000 C 
ATOM     41  C   UNL     1     110.825 126.705 141.195  0.00  0.00    +0.000 C 
BRANCH  36  42
ATOM     42  O   UNL     1     113.459 127.724 140.759  0.00  0.00    +0.000 OA
BRANCH  42  47
ATOM     43  O   UNL     1     112.908 128.971 140.330  0.00  0.00    +0.000 OA
ATOM     44  O   UNL     1     114.948 128.426 140.885  0.00  0.00    +0.000 OA
ATOM     45  O   UNL     1     115.141 130.023 140.519  0.00  0.00    +0.000 OA
ATOM     46  O   UNL     1     113.846 130.919 140.027  0.00  0.00    +0.000 OA
ATOM     47  C   UNL     1     113.555 128.523 140.576  0.00  0.00    +0.000 C 
ATOM     48  C   UNL     1     114.299 128.874 140.639  0.00  0.00    +0.000 C 
ATOM     49  C   UNL     1     114.397 129.672 140.456  0.00  0.00    +0.000 C 
ATOM     50  C   UNL     1     113.749 130.120 140.210  0.00  0.00    +0.000 C 
ATOM     51  C   UNL     1     113.005 129.769 140.147  0.00  0.00    +0.000 C 
BRANCH  51  53
ATOM     52  O   UNL     1     111.815 130.497 140.456  0.00  0.00    +0.000 OA
ATOM     53  C   UNL     1     112.357 130.218 139.901  0.00  0.00    +0.000 C 
ENDBRANCH  51  53
ENDBRANCH  42  47
ENDBRANCH  36  42
ENDBRANCH  32  39
ENDBRANCH  31  32
ENDBRANCH   5  31
TORSDOF 9
ENDMDL
MODEL 6
REMARK VINA RESULT:     -11.1      1.191      2.915
REMARK  Name = 20055968
REMARK  9 active torsions:
REMARK  status: ('A' for Active; 'I' for Inactive)
REMARK    1  A    between atoms: O_1  and  C_21
REMARK    2  A    between atoms: O_1  and  C_26
REMARK    3  A    between atoms: O_4  and  C_24
REMARK    4  A    between atoms: O_4  and  C_34
REMARK    5  A    between atoms: O_13  and  C_36
REMARK    6  A    between atoms: O_13  and  C_39
REMARK    7  A    between atoms: C_30  and  C_34
REMARK    8  A    between atoms: C_31  and  C_38
REMARK    9  A    between atoms: C_40  and  C_43
REMARK                            x       y       z     vdW  Elec       q    Type
REMARK                         _______ _______ _______ _____ _____    ______ ____
ROOT
ATOM      1  O   UNL     1     112.347 127.241 138.377  0.00  0.00    +0.000 OA
ATOM      2  O   UNL     1     112.329 128.570 140.109  0.00  0.00    +0.000 OA
ATOM      3  O   UNL     1     112.093 127.108 140.836  0.00  0.00    +0.000 OA
ATOM      4  O   UNL     1     112.026 125.734 139.924  0.00  0.00    +0.000 OA
ATOM      5  C   UNL     1     112.380 127.928 138.833  0.00  0.00    +0.000 C 
ATOM      6  C   UNL     1     112.296 127.883 139.653  0.00  0.00    +0.000 C 
ATOM      7  C   UNL     1     112.178 127.152 140.016  0.00  0.00    +0.000 C 
ATOM      8  C   UNL     1     112.144 126.465 139.560  0.00  0.00    +0.000 C 
ATOM      9  C   UNL     1     112.229 126.510 138.741  0.00  0.00    +0.000 C 
ENDROOT
BRANCH   9  10
ATOM     10  O   UNL     1     112.195 125.823 138.285  0.00  0.00    +0.000 OA
BRANCH  10  15
ATOM     11  O   UNL     1     111.787 125.623 136.150  0.00  0.00    +0.000 OA
ATOM     12  O   UNL     1     110.599 126.237 138.233  0.00  0.00    +0.000 OA
ATOM     13  O   UNL     1     109.373 126.454 137.503  0.00  0.00    +0.000 OA
ATOM     14  O   UNL     1     109.349 126.044 134.612  0.00  0.00    +0.000 OA
ATOM     15  C   UNL     1     111.793 125.825 137.564  0.00  0.00    +0.000 A 
ATOM     16  C   UNL     1     112.189 125.621 136.870  0.00  0.00    +0.000 A 
ATOM     17  C   UNL     1     110.995 126.032 137.539  0.00  0.00    +0.000 A 
ATOM     18  C   UNL     1     110.592 126.034 136.818  0.00  0.00    +0.000 A 
ATOM     19  C   UNL     1     110.988 125.830 136.123  0.00  0.00    +0.000 A 
ATOM     20  C   UNL     1     109.761 126.251 136.804  0.00  0.00    +0.000 A 
ATOM     21  C   UNL     1     110.581 125.828 135.367  0.00  0.00    +0.000 A 
ATOM     22  C   UNL     1     109.337 126.256 136.057  0.00  0.00    +0.000 A 
ATOM     23  C   UNL     1     109.749 126.043 135.334  0.00  0.00    +0.000 A 
BRANCH  16  25
ATOM     24  O   UNL     1     115.383 124.797 136.975  0.00  0.00    +0.000 OA
ATOM     25  C   UNL     1     112.987 125.414 136.896  0.00  0.00    +0.000 A 
ATOM     26  C   UNL     1     113.216 124.689 137.214  0.00  0.00    +0.000 A 
ATOM     27  C   UNL     1     113.558 125.935 136.605  0.00  0.00    +0.000 A 
ATOM     28  C   UNL     1     114.014 124.482 137.240  0.00  0.00    +0.000 A 
ATOM     29  C   UNL     1     114.356 125.730 136.632  0.00  0.00    +0.000 A 
ATOM     30  C   UNL     1     114.584 125.003 136.949  0.00  0.00    +0.000 A 
ENDBRANCH  16  25
ENDBRANCH  10  15
ENDBRANCH   9  10
BRANCH   5  31
ATOM     31  C   UNL     1     112.498 128.659 138.470  0.00  0.00    +0.000 C 
BRANCH  31  32
ATOM     32  O   UNL     1     112.089 128.849 137.780  0.00  0.00    +0.000 OA
BRANCH  32  39
ATOM     33  O   UNL     1     112.822 130.057 137.570  0.00  0.00    +0.000 OA
ATOM     34  O   UNL     1     110.807 129.483 136.956  0.00  0.00    +0.000 OA
ATOM     35  O   UNL     1     112.273 131.900 136.536  0.00  0.00    +0.000 OA
ATOM     36  C   UNL     1     111.540 130.691 136.746  0.00  0.00    +0.000 C 
ATOM     37  C   UNL     1     111.495 129.929 137.057  0.00  0.00    +0.000 C 
ATOM     38  C   UNL     1     112.228 131.137 136.847  0.00  0.00    +0.000 C 
ATOM     39  C   UNL     1     112.135 129.612 137.469  0.00  0.00    +0.000 C 
ATOM     40  C   UNL     1     112.868 130.820 137.259  0.00  0.00    +0.000 C 
ATOM     41  C   UNL     1     113.555 131.266 137.360  0.00  0.00    +0.000 C 
BRANCH  36  42
ATOM     42  O   UNL     1     110.900 131.008 136.334  0.00  0.00    +0.000 OA
BRANCH  42  47
ATOM     43  O   UNL     1     110.362 131.534 137.549  0.00  0.00    +0.000 OA
ATOM     44  O   UNL     1     109.495 131.379 135.552  0.00  0.00    +0.000 OA
ATOM     45  O   UNL     1     108.255 132.090 136.376  0.00  0.00    +0.000 OA
ATOM     46  O   UNL     1     108.419 132.430 137.982  0.00  0.00    +0.000 OA
ATOM     47  C   UNL     1     110.280 131.364 136.747  0.00  0.00    +0.000 C 
ATOM     48  C   UNL     1     109.577 131.549 136.355  0.00  0.00    +0.000 C 
ATOM     49  C   UNL     1     108.957 131.904 136.767  0.00  0.00    +0.000 C 
ATOM     50  C   UNL     1     109.040 132.074 137.570  0.00  0.00    +0.000 C 
ATOM     51  C   UNL     1     109.742 131.889 137.961  0.00  0.00    +0.000 C 
BRANCH  51  53
ATOM     52  O   UNL     1     110.257 132.719 139.003  0.00  0.00    +0.000 OA
ATOM     53  C   UNL     1     109.824 132.059 138.764  0.00  0.00    +0.000 C 
ENDBRANCH  51  53
ENDBRANCH  42  47
ENDBRANCH  36  42
ENDBRANCH  32  39
ENDBRANCH  31  32
ENDBRANCH   5  31
TORSDOF 9
ENDMDL
MODEL 7
REMARK VINA RESULT:     -11.1      2.160      4.436
REMARK  Name = 20055968
REMARK  9 active torsions:
REMARK  status: ('A' for Active; 'I' for Inactive)
REMARK    1  A    between atoms: O_1  and  C_21
REMARK    2  A    between atoms: O_1  and  C_26
REMARK    3  A    between atoms: O_4  and  C_24
REMARK    4  A    between atoms: O_4  and  C_34
REMARK    5  A    between atoms: O_13  and  C_36
REMARK    6  A    between atoms: O_13  and  C_39
REMARK    7  A    between atoms: C_30  and  C_34
REMARK    8  A    between atoms: C_31  and  C_38
REMARK    9  A    between atoms: C_40  and  C_43
REMARK                            x       y       z     vdW  Elec       q    Type
REMARK                         _______ _______ _______ _____ _____    ______ ____
ROOT
ATOM      1  O   UNL     1     112.298 127.675 136.891  0.00  0.00    +0.000 OA
ATOM      2  O   UNL     1     113.448 129.513 137.148  0.00  0.00    +0.000 OA
ATOM      3  O   UNL     1     113.085 129.594 135.540  0.00  0.00    +0.000 OA
ATOM      4  O   UNL     1     112.198 128.396 134.833  0.00  0.00    +0.000 OA
ATOM      5  C   UNL     1     112.741 128.274 137.245  0.00  0.00    +0.000 C 
ATOM      6  C   UNL     1     113.004 128.914 136.794  0.00  0.00    +0.000 C 
ATOM      7  C   UNL     1     112.823 128.954 135.991  0.00  0.00    +0.000 C 
ATOM      8  C   UNL     1     112.379 128.355 135.637  0.00  0.00    +0.000 C 
ATOM      9  C   UNL     1     112.117 127.716 136.087  0.00  0.00    +0.000 C 
ENDROOT
BRANCH   9  10
ATOM     10  O   UNL     1     111.673 127.117 135.733  0.00  0.00    +0.000 OA
BRANCH  10  15
ATOM     11  O   UNL     1     111.005 125.226 136.594  0.00  0.00    +0.000 OA
ATOM     12  O   UNL     1     113.108 126.316 135.879  0.00  0.00    +0.000 OA
ATOM     13  O   UNL     1     113.873 125.152 136.258  0.00  0.00    +0.000 OA
ATOM     14  O   UNL     1     112.484 122.843 137.381  0.00  0.00    +0.000 OA
ATOM     15  C   UNL     1     111.689 126.352 136.045  0.00  0.00    +0.000 A 
ATOM     16  C   UNL     1     110.988 125.989 136.283  0.00  0.00    +0.000 A 
ATOM     17  C   UNL     1     112.407 125.952 136.117  0.00  0.00    +0.000 A 
ATOM     18  C   UNL     1     112.423 125.188 136.428  0.00  0.00    +0.000 A 
ATOM     19  C   UNL     1     111.722 124.824 136.667  0.00  0.00    +0.000 A 
ATOM     20  C   UNL     1     113.177 124.781 136.499  0.00  0.00    +0.000 A 
ATOM     21  C   UNL     1     111.726 124.029 136.992  0.00  0.00    +0.000 A 
ATOM     22  C   UNL     1     113.201 123.985 136.822  0.00  0.00    +0.000 A 
ATOM     23  C   UNL     1     112.470 123.607 137.070  0.00  0.00    +0.000 A 
BRANCH  16  25
ATOM     24  O   UNL     1     108.119 127.594 135.994  0.00  0.00    +0.000 OA
ATOM     25  C   UNL     1     110.271 126.390 136.210  0.00  0.00    +0.000 A 
ATOM     26  C   UNL     1     109.915 126.469 135.471  0.00  0.00    +0.000 A 
ATOM     27  C   UNL     1     109.909 126.712 136.878  0.00  0.00    +0.000 A 
ATOM     28  C   UNL     1     109.198 126.871 135.398  0.00  0.00    +0.000 A 
ATOM     29  C   UNL     1     109.192 127.113 136.807  0.00  0.00    +0.000 A 
ATOM     30  C   UNL     1     108.836 127.192 136.066  0.00  0.00    +0.000 A 
ENDBRANCH  16  25
ENDBRANCH  10  15
ENDBRANCH   9  10
BRANCH   5  31
ATOM     31  C   UNL     1     112.923 128.234 138.048  0.00  0.00    +0.000 C 
BRANCH  31  32
ATOM     32  O   UNL     1     112.340 128.025 138.594  0.00  0.00    +0.000 OA
BRANCH  32  39
ATOM     33  O   UNL     1     113.275 127.397 139.473  0.00  0.00    +0.000 OA
ATOM     34  O   UNL     1     111.323 128.292 139.866  0.00  0.00    +0.000 OA
ATOM     35  O   UNL     1     113.193 127.035 141.624  0.00  0.00    +0.000 OA
ATOM     36  C   UNL     1     112.258 127.664 140.745  0.00  0.00    +0.000 C 
ATOM     37  C   UNL     1     112.045 127.911 139.987  0.00  0.00    +0.000 C 
ATOM     38  C   UNL     1     112.980 127.282 140.866  0.00  0.00    +0.000 C 
ATOM     39  C   UNL     1     112.554 127.778 139.351  0.00  0.00    +0.000 C 
ATOM     40  C   UNL     1     113.488 127.149 140.230  0.00  0.00    +0.000 C 
ATOM     41  C   UNL     1     114.209 126.768 140.352  0.00  0.00    +0.000 C 
BRANCH  36  42
ATOM     42  O   UNL     1     111.750 127.797 141.381  0.00  0.00    +0.000 OA
BRANCH  42  47
ATOM     43  O   UNL     1     112.343 129.078 141.603  0.00  0.00    +0.000 OA
ATOM     44  O   UNL     1     110.934 127.928 142.809  0.00  0.00    +0.000 OA
ATOM     45  O   UNL     1     111.120 129.275 143.745  0.00  0.00    +0.000 OA
ATOM     46  O   UNL     1     112.121 130.490 143.252  0.00  0.00    +0.000 OA
ATOM     47  C   UNL     1     111.843 128.471 141.848  0.00  0.00    +0.000 C 
ATOM     48  C   UNL     1     111.435 128.536 142.562  0.00  0.00    +0.000 C 
ATOM     49  C   UNL     1     111.528 129.209 143.031  0.00  0.00    +0.000 C 
ATOM     50  C   UNL     1     112.028 129.816 142.784  0.00  0.00    +0.000 C 
ATOM     51  C   UNL     1     112.436 129.751 142.070  0.00  0.00    +0.000 C 
BRANCH  51  53
ATOM     52  O   UNL     1     112.723 130.837 141.186  0.00  0.00    +0.000 OA
ATOM     53  C   UNL     1     112.937 130.359 141.824  0.00  0.00    +0.000 C 
ENDBRANCH  51  53
ENDBRANCH  42  47
ENDBRANCH  36  42
ENDBRANCH  32  39
ENDBRANCH  31  32
ENDBRANCH   5  31
TORSDOF 9
ENDMDL
MODEL 8
REMARK VINA RESULT:     -11.1      1.703      2.981
REMARK  Name = 20055968
REMARK  9 active torsions:
REMARK  status: ('A' for Active; 'I' for Inactive)
REMARK    1  A    between atoms: O_1  and  C_21
REMARK    2  A    between atoms: O_1  and  C_26
REMARK    3  A    between atoms: O_4  and  C_24
REMARK    4  A    between atoms: O_4  and  C_34
REMARK    5  A    between atoms: O_13  and  C_36
REMARK    6  A    between atoms: O_13  and  C_39
REMARK    7  A    between atoms: C_30  and  C_34
REMARK    8  A    between atoms: C_31  and  C_38
REMARK    9  A    between atoms: C_40  and  C_43
REMARK                            x       y       z     vdW  Elec       q    Type
REMARK                         _______ _______ _______ _____ _____    ______ ____
ROOT
ATOM      1  O   UNL     1     112.524 127.786 137.121  0.00  0.00    +0.000 OA
ATOM      2  O   UNL     1     113.019 129.394 135.729  0.00  0.00    +0.000 OA
ATOM      3  O   UNL     1     114.297 128.376 135.497  0.00  0.00    +0.000 OA
ATOM      4  O   UNL     1     114.393 126.965 136.347  0.00  0.00    +0.000 OA
ATOM      5  C   UNL     1     112.476 128.492 136.696  0.00  0.00    +0.000 C 
ATOM      6  C   UNL     1     113.067 128.689 136.154  0.00  0.00    +0.000 C 
ATOM      7  C   UNL     1     113.706 128.179 136.039  0.00  0.00    +0.000 C 
ATOM      8  C   UNL     1     113.754 127.474 136.464  0.00  0.00    +0.000 C 
ATOM      9  C   UNL     1     113.163 127.278 137.004  0.00  0.00    +0.000 C 
ENDROOT
BRANCH   9  10
ATOM     10  O   UNL     1     113.211 126.572 137.429  0.00  0.00    +0.000 OA
BRANCH  10  15
ATOM     11  O   UNL     1     111.934 125.877 139.058  0.00  0.00    +0.000 OA
ATOM     12  O   UNL     1     113.649 127.611 138.634  0.00  0.00    +0.000 OA
ATOM     13  O   UNL     1     113.534 128.096 139.988  0.00  0.00    +0.000 OA
ATOM     14  O   UNL     1     111.649 126.803 141.805  0.00  0.00    +0.000 OA
ATOM     15  C   UNL     1     112.858 126.513 138.173  0.00  0.00    +0.000 A 
ATOM     16  C   UNL     1     112.286 125.936 138.315  0.00  0.00    +0.000 A 
ATOM     17  C   UNL     1     113.078 127.033 138.775  0.00  0.00    +0.000 A 
ATOM     18  C   UNL     1     112.725 126.974 139.519  0.00  0.00    +0.000 A 
ATOM     19  C   UNL     1     112.153 126.397 139.661  0.00  0.00    +0.000 A 
ATOM     20  C   UNL     1     112.962 127.521 140.138  0.00  0.00    +0.000 A 
ATOM     21  C   UNL     1     111.779 126.326 140.431  0.00  0.00    +0.000 A 
ATOM     22  C   UNL     1     112.598 127.465 140.915  0.00  0.00    +0.000 A 
ATOM     23  C   UNL     1     112.003 126.864 141.062  0.00  0.00    +0.000 A 
BRANCH  16  25
ATOM     24  O   UNL     1     111.413 123.858 135.904  0.00  0.00    +0.000 OA
ATOM     25  C   UNL     1     112.067 125.416 137.712  0.00  0.00    +0.000 A 
ATOM     26  C   UNL     1     111.341 125.506 137.333  0.00  0.00    +0.000 A 
ATOM     27  C   UNL     1     112.576 124.806 137.489  0.00  0.00    +0.000 A 
ATOM     28  C   UNL     1     111.122 124.987 136.730  0.00  0.00    +0.000 A 
ATOM     29  C   UNL     1     112.359 124.287 136.886  0.00  0.00    +0.000 A 
ATOM     30  C   UNL     1     111.631 124.377 136.507  0.00  0.00    +0.000 A 
ENDBRANCH  16  25
ENDBRANCH  10  15
ENDBRANCH   9  10
BRANCH   5  31
ATOM     31  C   UNL     1     111.837 129.001 136.811  0.00  0.00    +0.000 C 
BRANCH  31  32
ATOM     32  O   UNL     1     111.067 128.705 136.812  0.00  0.00    +0.000 OA
BRANCH  32  39
ATOM     33  O   UNL     1     110.545 129.258 138.022  0.00  0.00    +0.000 OA
ATOM     34  O   UNL     1     109.725 129.215 135.999  0.00  0.00    +0.000 OA
ATOM     35  O   UNL     1     108.680 130.321 138.419  0.00  0.00    +0.000 OA
ATOM     36  C   UNL     1     109.203 129.768 137.209  0.00  0.00    +0.000 C 
ATOM     37  C   UNL     1     109.800 129.364 136.808  0.00  0.00    +0.000 C 
ATOM     38  C   UNL     1     109.277 129.917 138.018  0.00  0.00    +0.000 C 
ATOM     39  C   UNL     1     110.471 129.109 137.215  0.00  0.00    +0.000 C 
ATOM     40  C   UNL     1     109.949 129.662 138.424  0.00  0.00    +0.000 C 
ATOM     41  C   UNL     1     110.023 129.811 139.232  0.00  0.00    +0.000 C 
BRANCH  36  42
ATOM     42  O   UNL     1     108.532 130.023 136.803  0.00  0.00    +0.000 OA
BRANCH  42  47
ATOM     43  O   UNL     1     109.192 131.242 136.458  0.00  0.00    +0.000 OA
ATOM     44  O   UNL     1     107.288 130.410 135.790  0.00  0.00    +0.000 OA
ATOM     45  O   UNL     1     107.326 131.823 134.939  0.00  0.00    +0.000 OA
ATOM     46  O   UNL     1     108.608 132.849 135.101  0.00  0.00    +0.000 OA
ATOM     47  C   UNL     1     108.551 130.730 136.377  0.00  0.00    +0.000 C 
ATOM     48  C   UNL     1     107.929 130.923 135.871  0.00  0.00    +0.000 C 
ATOM     49  C   UNL     1     107.948 131.629 135.446  0.00  0.00    +0.000 C 
ATOM     50  C   UNL     1     108.589 132.142 135.527  0.00  0.00    +0.000 C 
ATOM     51  C   UNL     1     109.211 131.949 136.033  0.00  0.00    +0.000 C 
BRANCH  51  53
ATOM     52  O   UNL     1     109.959 132.880 136.817  0.00  0.00    +0.000 OA
ATOM     53  C   UNL     1     109.852 132.462 136.114  0.00  0.00    +0.000 C 
ENDBRANCH  51  53
ENDBRANCH  42  47
ENDBRANCH  36  42
ENDBRANCH  32  39
ENDBRANCH  31  32
ENDBRANCH   5  31
TORSDOF 9
ENDMDL
MODEL 9
REMARK VINA RESULT:     -11.1      1.929      5.261
REMARK  Name = 20055968
REMARK  9 active torsions:
REMARK  status: ('A' for Active; 'I' for Inactive)
REMARK    1  A    between atoms: O_1  and  C_21
REMARK    2  A    between atoms: O_1  and  C_26
REMARK    3  A    between atoms: O_4  and  C_24
REMARK    4  A    between atoms: O_4  and  C_34
REMARK    5  A    between atoms: O_13  and  C_36
REMARK    6  A    between atoms: O_13  and  C_39
REMARK    7  A    between atoms: C_30  and  C_34
REMARK    8  A    between atoms: C_31  and  C_38
REMARK    9  A    between atoms: C_40  and  C_43
REMARK                            x       y       z     vdW  Elec       q    Type
REMARK                         _______ _______ _______ _____ _____    ______ ____
ROOT
ATOM      1  O   UNL     1     110.215 129.030 136.824  0.00  0.00    +0.000 OA
ATOM      2  O   UNL     1     108.699 127.460 136.771  0.00  0.00    +0.000 OA
ATOM      3  O   UNL     1     108.092 128.517 135.659  0.00  0.00    +0.000 OA
ATOM      4  O   UNL     1     108.900 129.916 135.324  0.00  0.00    +0.000 OA
ATOM      5  C   UNL     1     109.811 128.331 136.992  0.00  0.00    +0.000 C 
ATOM      6  C   UNL     1     109.103 128.159 136.603  0.00  0.00    +0.000 C 
ATOM      7  C   UNL     1     108.800 128.688 136.048  0.00  0.00    +0.000 C 
ATOM      8  C   UNL     1     109.204 129.388 135.880  0.00  0.00    +0.000 C 
ATOM      9  C   UNL     1     109.911 129.559 136.268  0.00  0.00    +0.000 C 
ENDROOT
BRANCH   9  10
ATOM     10  O   UNL     1     110.315 130.258 136.101  0.00  0.00    +0.000 OA
BRANCH  10  15
ATOM     11  O   UNL     1     112.329 130.847 136.702  0.00  0.00    +0.000 OA
ATOM     12  O   UNL     1     111.226 129.220 135.199  0.00  0.00    +0.000 OA
ATOM     13  O   UNL     1     112.505 128.701 134.777  0.00  0.00    +0.000 OA
ATOM     14  O   UNL     1     114.945 129.850 135.898  0.00  0.00    +0.000 OA
ATOM     15  C   UNL     1     111.139 130.282 136.151  0.00  0.00    +0.000 A 
ATOM     16  C   UNL     1     111.506 130.824 136.652  0.00  0.00    +0.000 A 
ATOM     17  C   UNL     1     111.594 129.762 135.700  0.00  0.00    +0.000 A 
ATOM     18  C   UNL     1     112.418 129.786 135.750  0.00  0.00    +0.000 A 
ATOM     19  C   UNL     1     112.785 130.329 136.252  0.00  0.00    +0.000 A 
ATOM     20  C   UNL     1     112.881 129.240 135.276  0.00  0.00    +0.000 A 
ATOM     21  C   UNL     1     113.641 130.363 136.313  0.00  0.00    +0.000 A 
ATOM     22  C   UNL     1     113.739 129.260 135.323  0.00  0.00    +0.000 A 
ATOM     23  C   UNL     1     114.122 129.825 135.845  0.00  0.00    +0.000 A 
BRANCH  16  25
ATOM     24  O   UNL     1     109.680 132.901 138.453  0.00  0.00    +0.000 OA
ATOM     25  C   UNL     1     111.050 131.343 137.103  0.00  0.00    +0.000 A 
ATOM     26  C   UNL     1     110.947 131.209 137.910  0.00  0.00    +0.000 A 
ATOM     27  C   UNL     1     110.696 131.997 136.746  0.00  0.00    +0.000 A 
ATOM     28  C   UNL     1     110.490 131.728 138.361  0.00  0.00    +0.000 A 
ATOM     29  C   UNL     1     110.239 132.517 137.196  0.00  0.00    +0.000 A 
ATOM     30  C   UNL     1     110.137 132.382 138.004  0.00  0.00    +0.000 A 
ENDBRANCH  16  25
ENDBRANCH  10  15
ENDBRANCH   9  10
BRANCH   5  31
ATOM     31  C   UNL     1     110.114 127.802 137.548  0.00  0.00    +0.000 C 
BRANCH  31  32
ATOM     32  O   UNL     1     110.346 128.072 138.292  0.00  0.00    +0.000 OA
BRANCH  32  39
ATOM     33  O   UNL     1     111.490 127.221 138.391  0.00  0.00    +0.000 OA
ATOM     34  O   UNL     1     110.139 127.983 139.926  0.00  0.00    +0.000 OA
ATOM     35  O   UNL     1     112.425 126.280 140.124  0.00  0.00    +0.000 OA
ATOM     36  C   UNL     1     111.282 127.132 140.025  0.00  0.00    +0.000 C 
ATOM     37  C   UNL     1     110.763 127.580 139.567  0.00  0.00    +0.000 C 
ATOM     38  C   UNL     1     111.906 126.728 139.666  0.00  0.00    +0.000 C 
ATOM     39  C   UNL     1     110.867 127.624 138.749  0.00  0.00    +0.000 C 
ATOM     40  C   UNL     1     112.010 126.773 138.848  0.00  0.00    +0.000 C 
ATOM     41  C   UNL     1     112.633 126.369 138.490  0.00  0.00    +0.000 C 
BRANCH  36  42
ATOM     42  O   UNL     1     111.178 127.087 140.842  0.00  0.00    +0.000 OA
BRANCH  42  47
ATOM     43  O   UNL     1     112.042 128.207 141.045  0.00  0.00    +0.000 OA
ATOM     44  O   UNL     1     110.607 127.250 142.382  0.00  0.00    +0.000 OA
ATOM     45  O   UNL     1     111.186 128.452 143.354  0.00  0.00    +0.000 OA
ATOM     46  O   UNL     1     112.336 129.490 142.786  0.00  0.00    +0.000 OA
ATOM     47  C   UNL     1     111.468 127.688 141.328  0.00  0.00    +0.000 C 
ATOM     48  C   UNL     1     111.182 127.770 142.098  0.00  0.00    +0.000 C 
ATOM     49  C   UNL     1     111.471 128.370 142.584  0.00  0.00    +0.000 C 
ATOM     50  C   UNL     1     112.046 128.889 142.300  0.00  0.00    +0.000 C 
ATOM     51  C   UNL     1     112.332 128.807 141.530  0.00  0.00    +0.000 C 
BRANCH  51  53
ATOM     52  O   UNL     1     113.675 129.057 141.112  0.00  0.00    +0.000 OA
ATOM     53  C   UNL     1     112.907 129.327 141.247  0.00  0.00    +0.000 C 
ENDBRANCH  51  53
ENDBRANCH  42  47
ENDBRANCH  36  42
ENDBRANCH  32  39
ENDBRANCH  31  32
ENDBRANCH   5  31
TORSDOF 9
ENDMDL
MODEL 10
REMARK VINA RESULT:     -11.1      2.161      4.702
REMARK  Name = 20055968
REMARK  9 active torsions:
REMARK  status: ('A' for Active; 'I' for Inactive)
REMARK    1  A    between atoms: O_1  and  C_21
REMARK    2  A    between atoms: O_1  and  C_26
REMARK    3  A    between atoms: O_4  and  C_24
REMARK    4  A    between atoms: O_4  and  C_34
REMARK    5  A    between atoms: O_13  and  C_36
REMARK    6  A    between atoms: O_13  and  C_39
REMARK    7  A    between atoms: C_30  and  C_34
REMARK    8  A    between atoms: C_31  and  C_38
REMARK    9  A    between atoms: C_40  and  C_43
REMARK                            x       y       z     vdW  Elec       q    Type
REMARK                         _______ _______ _______ _____ _____    ______ ____
ROOT
ATOM      1  O   UNL     1     112.123 127.693 137.178  0.00  0.00    +0.000 OA
ATOM      2  O   UNL     1     113.348 129.425 137.694  0.00  0.00    +0.000 OA
ATOM      3  O   UNL     1     113.350 129.522 136.047  0.00  0.00    +0.000 OA
ATOM      4  O   UNL     1     112.534 128.400 135.153  0.00  0.00    +0.000 OA
ATOM      5  C   UNL     1     112.531 128.254 137.624  0.00  0.00    +0.000 C 
ATOM      6  C   UNL     1     112.940 128.864 137.247  0.00  0.00    +0.000 C 
ATOM      7  C   UNL     1     112.940 128.912 136.424  0.00  0.00    +0.000 C 
ATOM      8  C   UNL     1     112.532 128.351 135.977  0.00  0.00    +0.000 C 
ATOM      9  C   UNL     1     112.124 127.742 136.354  0.00  0.00    +0.000 C 
ENDROOT
BRANCH   9  10
ATOM     10  O   UNL     1     111.716 127.181 135.907  0.00  0.00    +0.000 OA
BRANCH  10  15
ATOM     11  O   UNL     1     110.970 125.224 136.519  0.00  0.00    +0.000 OA
ATOM     12  O   UNL     1     113.132 126.363 136.126  0.00  0.00    +0.000 OA
ATOM     13  O   UNL     1     113.858 125.166 136.475  0.00  0.00    +0.000 OA
ATOM     14  O   UNL     1     112.370 122.771 137.236  0.00  0.00    +0.000 OA
ATOM     15  C   UNL     1     111.703 126.392 136.148  0.00  0.00    +0.000 A 
ATOM     16  C   UNL     1     110.983 126.012 136.279  0.00  0.00    +0.000 A 
ATOM     17  C   UNL     1     112.411 125.983 136.257  0.00  0.00    +0.000 A 
ATOM     18  C   UNL     1     112.398 125.193 136.498  0.00  0.00    +0.000 A 
ATOM     19  C   UNL     1     111.678 124.814 136.629  0.00  0.00    +0.000 A 
ATOM     20  C   UNL     1     113.142 124.778 136.608  0.00  0.00    +0.000 A 
ATOM     21  C   UNL     1     111.651 123.993 136.880  0.00  0.00    +0.000 A 
ATOM     22  C   UNL     1     113.136 123.956 136.859  0.00  0.00    +0.000 A 
ATOM     23  C   UNL     1     112.386 123.560 136.996  0.00  0.00    +0.000 A 
BRANCH  16  25
ATOM     24  O   UNL     1     108.152 127.652 135.843  0.00  0.00    +0.000 OA
ATOM     25  C   UNL     1     110.275 126.422 136.169  0.00  0.00    +0.000 A 
ATOM     26  C   UNL     1     110.019 126.607 135.408  0.00  0.00    +0.000 A 
ATOM     27  C   UNL     1     109.824 126.647 136.822  0.00  0.00    +0.000 A 
ATOM     28  C   UNL     1     109.311 127.017 135.298  0.00  0.00    +0.000 A 
ATOM     29  C   UNL     1     109.116 127.057 136.714  0.00  0.00    +0.000 A 
ATOM     30  C   UNL     1     108.860 127.242 135.951  0.00  0.00    +0.000 A 
ENDBRANCH  16  25
ENDBRANCH  10  15
ENDBRANCH   9  10
BRANCH   5  31
ATOM     31  C   UNL     1     112.530 128.206 138.448  0.00  0.00    +0.000 C 
BRANCH  31  32
ATOM     32  O   UNL     1     111.818 128.131 138.857  0.00  0.00    +0.000 OA
BRANCH  32  39
ATOM     33  O   UNL     1     112.468 127.546 139.987  0.00  0.00    +0.000 OA
ATOM     34  O   UNL     1     110.529 128.532 139.806  0.00  0.00    +0.000 OA
ATOM     35  O   UNL     1     111.830 127.362 142.066  0.00  0.00    +0.000 OA
ATOM     36  C   UNL     1     111.180 127.947 140.936  0.00  0.00    +0.000 C 
ATOM     37  C   UNL     1     111.177 128.139 140.134  0.00  0.00    +0.000 C 
ATOM     38  C   UNL     1     111.828 127.554 141.264  0.00  0.00    +0.000 C 
ATOM     39  C   UNL     1     111.821 127.939 139.659  0.00  0.00    +0.000 C 
ATOM     40  C   UNL     1     112.472 127.354 140.789  0.00  0.00    +0.000 C 
ATOM     41  C   UNL     1     113.119 126.961 141.116  0.00  0.00    +0.000 C 
BRANCH  36  42
ATOM     42  O   UNL     1     110.536 128.148 141.411  0.00  0.00    +0.000 OA
BRANCH  42  47
ATOM     43  O   UNL     1     109.901 126.912 141.076  0.00  0.00    +0.000 OA
ATOM     44  O   UNL     1     109.201 128.600 142.268  0.00  0.00    +0.000 OA
ATOM     45  O   UNL     1     107.899 127.591 142.362  0.00  0.00    +0.000 OA
ATOM     46  O   UNL     1     107.932 126.128 141.598  0.00  0.00    +0.000 OA
ATOM     47  C   UNL     1     109.885 127.642 141.457  0.00  0.00    +0.000 C 
ATOM     48  C   UNL     1     109.217 127.869 141.886  0.00  0.00    +0.000 C 
ATOM     49  C   UNL     1     108.566 127.364 141.933  0.00  0.00    +0.000 C 
ATOM     50  C   UNL     1     108.584 126.634 141.551  0.00  0.00    +0.000 C 
ATOM     51  C   UNL     1     109.251 126.407 141.122  0.00  0.00    +0.000 C 
BRANCH  51  53
ATOM     52  O   UNL     1     109.708 125.055 141.058  0.00  0.00    +0.000 OA
ATOM     53  C   UNL     1     109.267 125.676 140.741  0.00  0.00    +0.000 C 
ENDBRANCH  51  53
ENDBRANCH  42  47
ENDBRANCH  36  42
ENDBRANCH  32  39
ENDBRANCH  31  32
ENDBRANCH   5  31
TORSDOF 9
ENDMDL
