MODEL 1
REMARK VINA RESULT:     -10.0      0.000      0.000
REMARK  Name = 73107181
REMARK  5 active torsions:
REMARK  status: ('A' for Active; 'I' for Inactive)
REMARK    1  A    between atoms: S_1  and  O_10
REMARK    2  A    between atoms: O_3  and  C_20
REMARK    3  A    between atoms: O_3  and  C_22
REMARK    4  A    between atoms: O_10  and  C_34
REMARK    5  A    between atoms: C_23  and  C_27
REMARK                            x       y       z     vdW  Elec       q    Type
REMARK                         _______ _______ _______ _____ _____    ______ ____
ROOT
ATOM      1  O   UNL     1     105.672 124.398 147.719  0.00  0.00    +0.000 OA
ATOM      2  O   UNL     1     107.069 125.666 146.118  0.00  0.00    +0.000 OA
ATOM      3  O   UNL     1     108.186 125.642 147.031  0.00  0.00    +0.000 OA
ATOM      4  O   UNL     1     107.883 124.310 149.612  0.00  0.00    +0.000 OA
ATOM      5  C   UNL     1     105.825 125.051 146.457  0.00  0.00    +0.000 A 
ATOM      6  C   UNL     1     105.360 124.628 146.991  0.00  0.00    +0.000 A 
ATOM      7  C   UNL     1     106.604 125.243 146.652  0.00  0.00    +0.000 A 
ATOM      8  C   UNL     1     106.916 125.013 147.380  0.00  0.00    +0.000 A 
ATOM      9  C   UNL     1     106.450 124.590 147.913  0.00  0.00    +0.000 A 
ATOM     10  C   UNL     1     107.728 125.219 147.571  0.00  0.00    +0.000 A 
ATOM     11  C   UNL     1     106.763 124.344 148.674  0.00  0.00    +0.000 A 
ATOM     12  C   UNL     1     108.059 124.982 148.327  0.00  0.00    +0.000 A 
ATOM     13  C   UNL     1     107.574 124.542 148.883  0.00  0.00    +0.000 A 
ENDROOT
BRANCH   6  15
ATOM     14  O   UNL     1     102.246 123.859 146.213  0.00  0.00    +0.000 OA
ATOM     15  C   UNL     1     104.581 124.435 146.796  0.00  0.00    +0.000 A 
ATOM     16  C   UNL     1     103.955 124.818 147.174  0.00  0.00    +0.000 A 
ATOM     17  C   UNL     1     104.428 123.861 146.224  0.00  0.00    +0.000 A 
ATOM     18  C   UNL     1     103.176 124.625 146.979  0.00  0.00    +0.000 A 
ATOM     19  C   UNL     1     103.651 123.669 146.029  0.00  0.00    +0.000 A 
ATOM     20  C   UNL     1     103.024 124.051 146.407  0.00  0.00    +0.000 A 
BRANCH  18  21
ATOM     21  O   UNL     1     102.551 125.007 147.357  0.00  0.00    +0.000 OA
BRANCH  21  22
ATOM     22  S   UNL     1     102.592 125.167 148.166  0.00  0.00    +0.000 S 
ATOM     23  O   UNL     1     102.634 125.326 148.974  0.00  0.00    +0.000 OA
ATOM     24  O   UNL     1     102.406 124.380 148.331  0.00  0.00    +0.000 OA
ATOM     25  O   UNL     1     102.779 125.954 148.001  0.00  0.00    +0.000 OA
ENDBRANCH  21  22
ENDBRANCH  18  21
ENDBRANCH   6  15
BRANCH   5  26
ATOM     26  O   UNL     1     105.513 125.281 145.729  0.00  0.00    +0.000 OA
BRANCH  26  35
ATOM     27  O   UNL     1     105.352 126.649 146.110  0.00  0.00    +0.000 OA
ATOM     28  O   UNL     1     105.664 127.342 143.754  0.00  0.00    +0.000 OA
ATOM     29  O   UNL     1     105.399 128.479 144.920  0.00  0.00    +0.000 OA
ATOM     30  O   UNL     1     105.721 125.743 144.159  0.00  0.00    +0.000 OA
ATOM     31  C   UNL     1     105.560 127.111 144.540  0.00  0.00    +0.000 C 
ATOM     32  C   UNL     1     105.428 127.679 145.123  0.00  0.00    +0.000 C 
ATOM     33  C   UNL     1     105.588 126.312 144.742  0.00  0.00    +0.000 C 
ATOM     34  C   UNL     1     105.324 127.448 145.908  0.00  0.00    +0.000 C 
ATOM     35  C   UNL     1     105.484 126.081 145.527  0.00  0.00    +0.000 C 
ATOM     36  C   UNL     1     105.191 128.017 146.491  0.00  0.00    +0.000 C 
ENDBRANCH  26  35
ENDBRANCH   5  26
TORSDOF 5
ENDMDL
MODEL 2
REMARK VINA RESULT:      -9.5      1.278      3.802
REMARK  Name = 73107181
REMARK  5 active torsions:
REMARK  status: ('A' for Active; 'I' for Inactive)
REMARK    1  A    between atoms: S_1  and  O_10
REMARK    2  A    between atoms: O_3  and  C_20
REMARK    3  A    between atoms: O_3  and  C_22
REMARK    4  A    between atoms: O_10  and  C_34
REMARK    5  A    between atoms: C_23  and  C_27
REMARK                            x       y       z     vdW  Elec       q    Type
REMARK                         _______ _______ _______ _____ _____    ______ ____
ROOT
ATOM      1  O   UNL     1     106.650 125.888 147.187  0.00  0.00    +0.000 OA
ATOM      2  O   UNL     1     104.852 125.023 148.651  0.00  0.00    +0.000 OA
ATOM      3  O   UNL     1     105.813 124.310 149.457  0.00  0.00    +0.000 OA
ATOM      4  O   UNL     1     108.647 124.476 148.769  0.00  0.00    +0.000 OA
ATOM      5  C   UNL     1     105.265 125.804 147.528  0.00  0.00    +0.000 A 
ATOM      6  C   UNL     1     105.865 126.092 147.040  0.00  0.00    +0.000 A 
ATOM      7  C   UNL     1     105.452 125.311 148.163  0.00  0.00    +0.000 A 
ATOM      8  C   UNL     1     106.238 125.107 148.310  0.00  0.00    +0.000 A 
ATOM      9  C   UNL     1     106.837 125.396 147.822  0.00  0.00    +0.000 A 
ATOM     10  C   UNL     1     106.419 124.594 148.974  0.00  0.00    +0.000 A 
ATOM     11  C   UNL     1     107.659 125.191 147.964  0.00  0.00    +0.000 A 
ATOM     12  C   UNL     1     107.235 124.378 149.133  0.00  0.00    +0.000 A 
ATOM     13  C   UNL     1     107.860 124.678 148.624  0.00  0.00    +0.000 A 
ENDROOT
BRANCH   6  15
ATOM     14  O   UNL     1     105.118 128.061 144.499  0.00  0.00    +0.000 OA
ATOM     15  C   UNL     1     105.678 126.585 146.404  0.00  0.00    +0.000 A 
ATOM     16  C   UNL     1     105.746 126.304 145.632  0.00  0.00    +0.000 A 
ATOM     17  C   UNL     1     105.423 127.357 146.542  0.00  0.00    +0.000 A 
ATOM     18  C   UNL     1     105.559 126.797 144.996  0.00  0.00    +0.000 A 
ATOM     19  C   UNL     1     105.237 127.849 145.907  0.00  0.00    +0.000 A 
ATOM     20  C   UNL     1     105.304 127.569 145.134  0.00  0.00    +0.000 A 
BRANCH  18  21
ATOM     21  O   UNL     1     105.627 126.516 144.224  0.00  0.00    +0.000 OA
BRANCH  21  22
ATOM     22  S   UNL     1     106.070 125.838 144.068  0.00  0.00    +0.000 S 
ATOM     23  O   UNL     1     106.514 125.160 143.912  0.00  0.00    +0.000 OA
ATOM     24  O   UNL     1     106.762 126.288 144.078  0.00  0.00    +0.000 OA
ATOM     25  O   UNL     1     105.379 125.388 144.058  0.00  0.00    +0.000 OA
ENDBRANCH  21  22
ENDBRANCH  18  21
ENDBRANCH   6  15
BRANCH   5  26
ATOM     26  O   UNL     1     104.479 126.008 147.381  0.00  0.00    +0.000 OA
BRANCH  26  35
ATOM     27  O   UNL     1     104.116 124.740 146.829  0.00  0.00    +0.000 OA
ATOM     28  O   UNL     1     101.829 125.000 147.736  0.00  0.00    +0.000 OA
ATOM     29  O   UNL     1     102.228 123.646 146.882  0.00  0.00    +0.000 OA
ATOM     30  O   UNL     1     102.954 126.181 147.986  0.00  0.00    +0.000 OA
ATOM     31  C   UNL     1     102.591 124.914 147.434  0.00  0.00    +0.000 C 
ATOM     32  C   UNL     1     102.792 124.237 147.007  0.00  0.00    +0.000 C 
ATOM     33  C   UNL     1     103.154 125.503 147.558  0.00  0.00    +0.000 C 
ATOM     34  C   UNL     1     103.554 124.150 146.704  0.00  0.00    +0.000 C 
ATOM     35  C   UNL     1     103.917 125.417 147.256  0.00  0.00    +0.000 C 
ATOM     36  C   UNL     1     103.754 123.473 146.277  0.00  0.00    +0.000 C 
ENDBRANCH  26  35
ENDBRANCH   5  26
TORSDOF 5
ENDMDL
MODEL 3
REMARK VINA RESULT:      -9.4      9.918     12.298
REMARK  Name = 73107181
REMARK  5 active torsions:
REMARK  status: ('A' for Active; 'I' for Inactive)
REMARK    1  A    between atoms: S_1  and  O_10
REMARK    2  A    between atoms: O_3  and  C_20
REMARK    3  A    between atoms: O_3  and  C_22
REMARK    4  A    between atoms: O_10  and  C_34
REMARK    5  A    between atoms: C_23  and  C_27
REMARK                            x       y       z     vdW  Elec       q    Type
REMARK                         _______ _______ _______ _____ _____    ______ ____
ROOT
ATOM      1  O   UNL     1     112.433 127.110 136.439  0.00  0.00    +0.000 OA
ATOM      2  O   UNL     1     111.490 128.151 138.477  0.00  0.00    +0.000 OA
ATOM      3  O   UNL     1     111.709 129.471 137.938  0.00  0.00    +0.000 OA
ATOM      4  O   UNL     1     112.904 129.743 135.288  0.00  0.00    +0.000 OA
ATOM      5  C   UNL     1     111.848 126.982 137.737  0.00  0.00    +0.000 A 
ATOM      6  C   UNL     1     112.162 126.635 137.058  0.00  0.00    +0.000 A 
ATOM      7  C   UNL     1     111.805 127.804 137.798  0.00  0.00    +0.000 A 
ATOM      8  C   UNL     1     112.075 128.279 137.180  0.00  0.00    +0.000 A 
ATOM      9  C   UNL     1     112.390 127.931 136.501  0.00  0.00    +0.000 A 
ATOM     10  C   UNL     1     112.025 129.133 137.255  0.00  0.00    +0.000 A 
ATOM     11  C   UNL     1     112.675 128.414 135.850  0.00  0.00    +0.000 A 
ATOM     12  C   UNL     1     112.305 129.632 136.615  0.00  0.00    +0.000 A 
ATOM     13  C   UNL     1     112.633 129.271 135.907  0.00  0.00    +0.000 A 
ENDROOT
BRANCH   6  15
ATOM     14  O   UNL     1     112.337 123.349 136.814  0.00  0.00    +0.000 OA
ATOM     15  C   UNL     1     112.206 125.813 136.997  0.00  0.00    +0.000 A 
ATOM     16  C   UNL     1     112.938 125.436 137.036  0.00  0.00    +0.000 A 
ATOM     17  C   UNL     1     111.517 125.370 136.897  0.00  0.00    +0.000 A 
ATOM     18  C   UNL     1     112.981 124.613 136.975  0.00  0.00    +0.000 A 
ATOM     19  C   UNL     1     111.561 124.549 136.836  0.00  0.00    +0.000 A 
ATOM     20  C   UNL     1     112.293 124.170 136.875  0.00  0.00    +0.000 A 
BRANCH  18  21
ATOM     21  O   UNL     1     113.714 124.236 137.013  0.00  0.00    +0.000 OA
BRANCH  21  22
ATOM     22  S   UNL     1     114.405 124.658 136.856  0.00  0.00    +0.000 S 
ATOM     23  O   UNL     1     115.096 125.080 136.699  0.00  0.00    +0.000 OA
ATOM     24  O   UNL     1     114.548 124.725 137.666  0.00  0.00    +0.000 OA
ATOM     25  O   UNL     1     114.262 124.591 136.047  0.00  0.00    +0.000 OA
ENDBRANCH  21  22
ENDBRANCH  18  21
ENDBRANCH   6  15
BRANCH   5  26
ATOM     26  O   UNL     1     111.577 126.507 138.355  0.00  0.00    +0.000 OA
BRANCH  26  35
ATOM     27  O   UNL     1     112.702 126.786 139.191  0.00  0.00    +0.000 OA
ATOM     28  O   UNL     1     111.305 126.402 141.198  0.00  0.00    +0.000 OA
ATOM     29  O   UNL     1     112.895 126.809 141.365  0.00  0.00    +0.000 OA
ATOM     30  O   UNL     1     110.646 126.252 139.693  0.00  0.00    +0.000 OA
ATOM     31  C   UNL     1     111.771 126.530 140.529  0.00  0.00    +0.000 C 
ATOM     32  C   UNL     1     112.566 126.733 140.612  0.00  0.00    +0.000 C 
ATOM     33  C   UNL     1     111.442 126.455 139.776  0.00  0.00    +0.000 C 
ATOM     34  C   UNL     1     113.031 126.861 139.943  0.00  0.00    +0.000 C 
ATOM     35  C   UNL     1     111.907 126.583 139.108  0.00  0.00    +0.000 C 
ATOM     36  C   UNL     1     113.827 127.065 140.028  0.00  0.00    +0.000 C 
ENDBRANCH  26  35
ENDBRANCH   5  26
TORSDOF 5
ENDMDL
MODEL 4
REMARK VINA RESULT:      -9.4     10.012     12.357
REMARK  Name = 73107181
REMARK  5 active torsions:
REMARK  status: ('A' for Active; 'I' for Inactive)
REMARK    1  A    between atoms: S_1  and  O_10
REMARK    2  A    between atoms: O_3  and  C_20
REMARK    3  A    between atoms: O_3  and  C_22
REMARK    4  A    between atoms: O_10  and  C_34
REMARK    5  A    between atoms: C_23  and  C_27
REMARK                            x       y       z     vdW  Elec       q    Type
REMARK                         _______ _______ _______ _____ _____    ______ ____
ROOT
ATOM      1  O   UNL     1     112.966 127.106 136.548  0.00  0.00    +0.000 OA
ATOM      2  O   UNL     1     112.950 128.444 138.630  0.00  0.00    +0.000 OA
ATOM      3  O   UNL     1     112.400 129.579 137.930  0.00  0.00    +0.000 OA
ATOM      4  O   UNL     1     111.856 129.356 135.069  0.00  0.00    +0.000 OA
ATOM      5  C   UNL     1     113.231 127.220 137.948  0.00  0.00    +0.000 A 
ATOM      6  C   UNL     1     113.236 126.775 137.254  0.00  0.00    +0.000 A 
ATOM      7  C   UNL     1     112.955 127.999 137.936  0.00  0.00    +0.000 A 
ATOM      8  C   UNL     1     112.686 128.330 137.231  0.00  0.00    +0.000 A 
ATOM      9  C   UNL     1     112.691 127.883 136.537  0.00  0.00    +0.000 A 
ATOM     10  C   UNL     1     112.402 129.140 137.231  0.00  0.00    +0.000 A 
ATOM     11  C   UNL     1     112.413 128.217 135.796  0.00  0.00    +0.000 A 
ATOM     12  C   UNL     1     112.120 129.492 136.500  0.00  0.00    +0.000 A 
ATOM     13  C   UNL     1     112.125 129.027 135.777  0.00  0.00    +0.000 A 
ENDROOT
BRANCH   6  15
ATOM     14  O   UNL     1     114.336 123.664 137.302  0.00  0.00    +0.000 OA
ATOM     15  C   UNL     1     113.511 125.996 137.266  0.00  0.00    +0.000 A 
ATOM     16  C   UNL     1     112.980 125.371 137.186  0.00  0.00    +0.000 A 
ATOM     17  C   UNL     1     114.317 125.845 137.359  0.00  0.00    +0.000 A 
ATOM     18  C   UNL     1     113.256 124.592 137.198  0.00  0.00    +0.000 A 
ATOM     19  C   UNL     1     114.592 125.068 137.371  0.00  0.00    +0.000 A 
ATOM     20  C   UNL     1     114.062 124.441 137.290  0.00  0.00    +0.000 A 
BRANCH  18  21
ATOM     21  O   UNL     1     112.725 123.966 137.117  0.00  0.00    +0.000 OA
BRANCH  21  22
ATOM     22  S   UNL     1     112.025 124.070 136.693  0.00  0.00    +0.000 S 
ATOM     23  O   UNL     1     111.325 124.174 136.269  0.00  0.00    +0.000 OA
ATOM     24  O   UNL     1     111.609 124.155 137.400  0.00  0.00    +0.000 OA
ATOM     25  O   UNL     1     112.441 123.985 135.986  0.00  0.00    +0.000 OA
ENDBRANCH  21  22
ENDBRANCH  18  21
ENDBRANCH   6  15
BRANCH   5  26
ATOM     26  O   UNL     1     113.500 126.889 138.654  0.00  0.00    +0.000 OA
BRANCH  26  35
ATOM     27  O   UNL     1     112.190 126.713 139.196  0.00  0.00    +0.000 OA
ATOM     28  O   UNL     1     113.103 126.958 141.483  0.00  0.00    +0.000 OA
ATOM     29  O   UNL     1     111.488 126.700 141.263  0.00  0.00    +0.000 OA
ATOM     30  O   UNL     1     114.109 127.052 140.179  0.00  0.00    +0.000 OA
ATOM     31  C   UNL     1     112.798 126.876 140.721  0.00  0.00    +0.000 C 
ATOM     32  C   UNL     1     111.991 126.748 140.610  0.00  0.00    +0.000 C 
ATOM     33  C   UNL     1     113.301 126.923 140.068  0.00  0.00    +0.000 C 
ATOM     34  C   UNL     1     111.687 126.666 139.847  0.00  0.00    +0.000 C 
ATOM     35  C   UNL     1     112.996 126.842 139.306  0.00  0.00    +0.000 C 
ATOM     36  C   UNL     1     110.879 126.537 139.738  0.00  0.00    +0.000 C 
ENDBRANCH  26  35
ENDBRANCH   5  26
TORSDOF 5
ENDMDL
MODEL 5
REMARK VINA RESULT:      -9.3     10.313     12.655
REMARK  Name = 73107181
REMARK  5 active torsions:
REMARK  status: ('A' for Active; 'I' for Inactive)
REMARK    1  A    between atoms: S_1  and  O_10
REMARK    2  A    between atoms: O_3  and  C_20
REMARK    3  A    between atoms: O_3  and  C_22
REMARK    4  A    between atoms: O_10  and  C_34
REMARK    5  A    between atoms: C_23  and  C_27
REMARK                            x       y       z     vdW  Elec       q    Type
REMARK                         _______ _______ _______ _____ _____    ______ ____
ROOT
ATOM      1  O   UNL     1     113.513 126.816 136.776  0.00  0.00    +0.000 OA
ATOM      2  O   UNL     1     111.581 125.474 136.009  0.00  0.00    +0.000 OA
ATOM      3  O   UNL     1     112.266 124.247 136.336  0.00  0.00    +0.000 OA
ATOM      4  O   UNL     1     114.958 124.381 137.460  0.00  0.00    +0.000 OA
ATOM      5  C   UNL     1     112.196 126.745 136.226  0.00  0.00    +0.000 A 
ATOM      6  C   UNL     1     112.841 127.192 136.482  0.00  0.00    +0.000 A 
ATOM      7  C   UNL     1     112.225 125.921 136.265  0.00  0.00    +0.000 A 
ATOM      8  C   UNL     1     112.898 125.545 136.559  0.00  0.00    +0.000 A 
ATOM      9  C   UNL     1     113.542 125.993 136.815  0.00  0.00    +0.000 A 
ATOM     10  C   UNL     1     112.915 124.687 136.594  0.00  0.00    +0.000 A 
ATOM     11  C   UNL     1     114.248 125.613 137.123  0.00  0.00    +0.000 A 
ATOM     12  C   UNL     1     113.613 124.289 136.899  0.00  0.00    +0.000 A 
ATOM     13  C   UNL     1     114.284 124.755 137.166  0.00  0.00    +0.000 A 
ENDROOT
BRANCH   6  15
ATOM     14  O   UNL     1     112.726 130.486 136.329  0.00  0.00    +0.000 OA
ATOM     15  C   UNL     1     112.812 128.016 136.444  0.00  0.00    +0.000 A 
ATOM     16  C   UNL     1     112.734 128.458 137.136  0.00  0.00    +0.000 A 
ATOM     17  C   UNL     1     112.862 128.397 135.714  0.00  0.00    +0.000 A 
ATOM     18  C   UNL     1     112.705 129.282 137.097  0.00  0.00    +0.000 A 
ATOM     19  C   UNL     1     112.833 129.220 135.676  0.00  0.00    +0.000 A 
ATOM     20  C   UNL     1     112.754 129.663 136.367  0.00  0.00    +0.000 A 
BRANCH  18  21
ATOM     21  O   UNL     1     112.626 129.724 137.789  0.00  0.00    +0.000 OA
BRANCH  21  22
ATOM     22  S   UNL     1     112.947 129.445 138.496  0.00  0.00    +0.000 S 
ATOM     23  O   UNL     1     113.268 129.166 139.203  0.00  0.00    +0.000 OA
ATOM     24  O   UNL     1     113.695 129.700 138.258  0.00  0.00    +0.000 OA
ATOM     25  O   UNL     1     112.199 129.191 138.735  0.00  0.00    +0.000 OA
ENDBRANCH  21  22
ENDBRANCH  18  21
ENDBRANCH   6  15
BRANCH   5  26
ATOM     26  O   UNL     1     111.523 127.121 135.932  0.00  0.00    +0.000 OA
BRANCH  26  35
ATOM     27  O   UNL     1     110.750 126.866 137.106  0.00  0.00    +0.000 OA
ATOM     28  O   UNL     1     108.680 126.899 135.749  0.00  0.00    +0.000 OA
ATOM     29  O   UNL     1     108.596 126.632 137.375  0.00  0.00    +0.000 OA
ATOM     30  O   UNL     1     110.144 127.144 135.028  0.00  0.00    +0.000 OA
ATOM     31  C   UNL     1     109.370 126.888 136.202  0.00  0.00    +0.000 C 
ATOM     32  C   UNL     1     109.329 126.755 137.014  0.00  0.00    +0.000 C 
ATOM     33  C   UNL     1     110.102 127.010 135.841  0.00  0.00    +0.000 C 
ATOM     34  C   UNL     1     110.019 126.743 137.467  0.00  0.00    +0.000 C 
ATOM     35  C   UNL     1     110.792 126.999 136.294  0.00  0.00    +0.000 C 
ATOM     36  C   UNL     1     109.976 126.610 138.280  0.00  0.00    +0.000 C 
ENDBRANCH  26  35
ENDBRANCH   5  26
TORSDOF 5
ENDMDL
MODEL 6
REMARK VINA RESULT:      -9.1      9.330     11.539
REMARK  Name = 73107181
REMARK  5 active torsions:
REMARK  status: ('A' for Active; 'I' for Inactive)
REMARK    1  A    between atoms: S_1  and  O_10
REMARK    2  A    between atoms: O_3  and  C_20
REMARK    3  A    between atoms: O_3  and  C_22
REMARK    4  A    between atoms: O_10  and  C_34
REMARK    5  A    between atoms: C_23  and  C_27
REMARK                            x       y       z     vdW  Elec       q    Type
REMARK                         _______ _______ _______ _____ _____    ______ ____
ROOT
ATOM      1  O   UNL     1     113.714 126.277 138.349  0.00  0.00    +0.000 OA
ATOM      2  O   UNL     1     111.703 124.911 137.882  0.00  0.00    +0.000 OA
ATOM      3  O   UNL     1     112.366 124.262 136.778  0.00  0.00    +0.000 OA
ATOM      4  O   UNL     1     115.115 125.009 136.133  0.00  0.00    +0.000 OA
ATOM      5  C   UNL     1     112.369 125.909 138.660  0.00  0.00    +0.000 A 
ATOM      6  C   UNL     1     113.039 126.364 138.815  0.00  0.00    +0.000 A 
ATOM      7  C   UNL     1     112.374 125.366 138.037  0.00  0.00    +0.000 A 
ATOM      8  C   UNL     1     113.049 125.280 137.571  0.00  0.00    +0.000 A 
ATOM      9  C   UNL     1     113.718 125.736 137.727  0.00  0.00    +0.000 A 
ATOM     10  C   UNL     1     113.041 124.713 136.926  0.00  0.00    +0.000 A 
ATOM     11  C   UNL     1     114.427 125.656 137.248  0.00  0.00    +0.000 A 
ATOM     12  C   UNL     1     113.741 124.619 136.436  0.00  0.00    +0.000 A 
ATOM     13  C   UNL     1     114.439 125.093 136.598  0.00  0.00    +0.000 A 
ENDROOT
BRANCH   6  15
ATOM     14  O   UNL     1     113.019 128.531 141.304  0.00  0.00    +0.000 OA
ATOM     15  C   UNL     1     113.034 126.906 139.438  0.00  0.00    +0.000 A 
ATOM     16  C   UNL     1     112.981 127.714 139.280  0.00  0.00    +0.000 A 
ATOM     17  C   UNL     1     113.081 126.639 140.217  0.00  0.00    +0.000 A 
ATOM     18  C   UNL     1     112.976 128.256 139.903  0.00  0.00    +0.000 A 
ATOM     19  C   UNL     1     113.076 127.181 140.839  0.00  0.00    +0.000 A 
ATOM     20  C   UNL     1     113.024 127.989 140.682  0.00  0.00    +0.000 A 
BRANCH  18  21
ATOM     21  O   UNL     1     112.924 129.064 139.745  0.00  0.00    +0.000 OA
BRANCH  21  22
ATOM     22  S   UNL     1     113.282 129.377 139.071  0.00  0.00    +0.000 S 
ATOM     23  O   UNL     1     113.639 129.690 138.396  0.00  0.00    +0.000 OA
ATOM     24  O   UNL     1     112.548 129.400 138.693  0.00  0.00    +0.000 OA
ATOM     25  O   UNL     1     114.015 129.353 139.448  0.00  0.00    +0.000 OA
ENDBRANCH  21  22
ENDBRANCH  18  21
ENDBRANCH   6  15
BRANCH   5  26
ATOM     26  O   UNL     1     111.694 125.995 139.127  0.00  0.00    +0.000 OA
BRANCH  26  35
ATOM     27  O   UNL     1     110.979 126.698 138.109  0.00  0.00    +0.000 OA
ATOM     28  O   UNL     1     108.837 125.937 139.088  0.00  0.00    +0.000 OA
ATOM     29  O   UNL     1     108.836 126.895 137.744  0.00  0.00    +0.000 OA
ATOM     30  O   UNL     1     110.266 125.487 139.779  0.00  0.00    +0.000 OA
ATOM     31  C   UNL     1     109.551 126.191 138.761  0.00  0.00    +0.000 C 
ATOM     32  C   UNL     1     109.551 126.670 138.090  0.00  0.00    +0.000 C 
ATOM     33  C   UNL     1     110.265 125.966 139.107  0.00  0.00    +0.000 C 
ATOM     34  C   UNL     1     110.265 126.923 137.763  0.00  0.00    +0.000 C 
ATOM     35  C   UNL     1     110.979 126.220 138.780  0.00  0.00    +0.000 C 
ATOM     36  C   UNL     1     110.264 127.402 137.091  0.00  0.00    +0.000 C 
ENDBRANCH  26  35
ENDBRANCH   5  26
TORSDOF 5
ENDMDL
MODEL 7
REMARK VINA RESULT:      -9.1      9.779     12.096
REMARK  Name = 73107181
REMARK  5 active torsions:
REMARK  status: ('A' for Active; 'I' for Inactive)
REMARK    1  A    between atoms: S_1  and  O_10
REMARK    2  A    between atoms: O_3  and  C_20
REMARK    3  A    between atoms: O_3  and  C_22
REMARK    4  A    between atoms: O_10  and  C_34
REMARK    5  A    between atoms: C_23  and  C_27
REMARK                            x       y       z     vdW  Elec       q    Type
REMARK                         _______ _______ _______ _____ _____    ______ ____
ROOT
ATOM      1  O   UNL     1     112.509 128.358 138.294  0.00  0.00    +0.000 OA
ATOM      2  O   UNL     1     112.038 126.920 136.335  0.00  0.00    +0.000 OA
ATOM      3  O   UNL     1     112.397 127.986 135.431  0.00  0.00    +0.000 OA
ATOM      4  O   UNL     1     113.248 130.554 136.529  0.00  0.00    +0.000 OA
ATOM      5  C   UNL     1     112.093 127.103 137.751  0.00  0.00    +0.000 A 
ATOM      6  C   UNL     1     112.250 127.583 138.404  0.00  0.00    +0.000 A 
ATOM      7  C   UNL     1     112.195 127.400 136.987  0.00  0.00    +0.000 A 
ATOM      8  C   UNL     1     112.454 128.175 136.877  0.00  0.00    +0.000 A 
ATOM      9  C   UNL     1     112.611 128.654 137.531  0.00  0.00    +0.000 A 
ATOM     10  C   UNL     1     112.556 128.472 136.078  0.00  0.00    +0.000 A 
ATOM     11  C   UNL     1     112.880 129.463 137.429  0.00  0.00    +0.000 A 
ATOM     12  C   UNL     1     112.826 129.279 135.957  0.00  0.00    +0.000 A 
ATOM     13  C   UNL     1     112.989 129.778 136.637  0.00  0.00    +0.000 A 
ENDROOT
BRANCH   6  15
ATOM     14  O   UNL     1     111.842 126.396 141.456  0.00  0.00    +0.000 OA
ATOM     15  C   UNL     1     112.148 127.286 139.167  0.00  0.00    +0.000 A 
ATOM     16  C   UNL     1     112.804 127.154 139.649  0.00  0.00    +0.000 A 
ATOM     17  C   UNL     1     111.390 127.121 139.448  0.00  0.00    +0.000 A 
ATOM     18  C   UNL     1     112.702 126.858 140.413  0.00  0.00    +0.000 A 
ATOM     19  C   UNL     1     111.288 126.825 140.211  0.00  0.00    +0.000 A 
ATOM     20  C   UNL     1     111.944 126.693 140.694  0.00  0.00    +0.000 A 
BRANCH  18  21
ATOM     21  O   UNL     1     113.358 126.726 140.895  0.00  0.00    +0.000 OA
BRANCH  21  22
ATOM     22  S   UNL     1     114.009 127.232 140.854  0.00  0.00    +0.000 S 
ATOM     23  O   UNL     1     114.659 127.738 140.812  0.00  0.00    +0.000 OA
ATOM     24  O   UNL     1     114.408 126.681 140.387  0.00  0.00    +0.000 OA
ATOM     25  O   UNL     1     113.610 127.783 141.321  0.00  0.00    +0.000 OA
ENDBRANCH  21  22
ENDBRANCH  18  21
ENDBRANCH   6  15
BRANCH   5  26
ATOM     26  O   UNL     1     111.834 126.327 137.861  0.00  0.00    +0.000 OA
BRANCH  26  35
ATOM     27  O   UNL     1     113.098 125.741 137.544  0.00  0.00    +0.000 OA
ATOM     28  O   UNL     1     111.947 123.729 136.676  0.00  0.00    +0.000 OA
ATOM     29  O   UNL     1     113.595 123.813 136.648  0.00  0.00    +0.000 OA
ATOM     30  O   UNL     1     111.067 124.986 137.283  0.00  0.00    +0.000 OA
ATOM     31  C   UNL     1     112.331 124.400 136.965  0.00  0.00    +0.000 C 
ATOM     32  C   UNL     1     113.154 124.442 136.952  0.00  0.00    +0.000 C 
ATOM     33  C   UNL     1     111.891 125.028 137.269  0.00  0.00    +0.000 C 
ATOM     34  C   UNL     1     113.538 125.113 137.241  0.00  0.00    +0.000 C 
ATOM     35  C   UNL     1     112.275 125.699 137.558  0.00  0.00    +0.000 C 
ATOM     36  C   UNL     1     114.362 125.154 137.227  0.00  0.00    +0.000 C 
ENDBRANCH  26  35
ENDBRANCH   5  26
TORSDOF 5
ENDMDL
MODEL 8
REMARK VINA RESULT:      -9.1     10.932     12.495
REMARK  Name = 73107181
REMARK  5 active torsions:
REMARK  status: ('A' for Active; 'I' for Inactive)
REMARK    1  A    between atoms: S_1  and  O_10
REMARK    2  A    between atoms: O_3  and  C_20
REMARK    3  A    between atoms: O_3  and  C_22
REMARK    4  A    between atoms: O_10  and  C_34
REMARK    5  A    between atoms: C_23  and  C_27
REMARK                            x       y       z     vdW  Elec       q    Type
REMARK                         _______ _______ _______ _____ _____    ______ ____
ROOT
ATOM      1  O   UNL     1     111.624 125.836 136.086  0.00  0.00    +0.000 OA
ATOM      2  O   UNL     1     113.815 126.813 136.694  0.00  0.00    +0.000 OA
ATOM      3  O   UNL     1     114.307 125.522 137.111  0.00  0.00    +0.000 OA
ATOM      4  O   UNL     1     112.548 123.200 136.909  0.00  0.00    +0.000 OA
ATOM      5  C   UNL     1     112.489 126.970 136.186  0.00  0.00    +0.000 A 
ATOM      6  C   UNL     1     111.759 126.644 135.984  0.00  0.00    +0.000 A 
ATOM      7  C   UNL     1     113.085 126.487 136.491  0.00  0.00    +0.000 A 
ATOM      8  C   UNL     1     112.951 125.679 136.593  0.00  0.00    +0.000 A 
ATOM      9  C   UNL     1     112.220 125.354 136.390  0.00  0.00    +0.000 A 
ATOM     10  C   UNL     1     113.579 125.188 136.911  0.00  0.00    +0.000 A 
ATOM     11  C   UNL     1     112.068 124.515 136.491  0.00  0.00    +0.000 A 
ATOM     12  C   UNL     1     113.446 124.346 137.019  0.00  0.00    +0.000 A 
ATOM     13  C   UNL     1     112.685 124.007 136.808  0.00  0.00    +0.000 A 
ENDROOT
BRANCH   6  15
ATOM     14  O   UNL     1     109.374 128.573 134.766  0.00  0.00    +0.000 OA
ATOM     15  C   UNL     1     111.162 127.126 135.679  0.00  0.00    +0.000 A 
ATOM     16  C   UNL     1     110.498 127.299 136.137  0.00  0.00    +0.000 A 
ATOM     17  C   UNL     1     111.230 127.435 134.917  0.00  0.00    +0.000 A 
ATOM     18  C   UNL     1     109.902 127.782 135.832  0.00  0.00    +0.000 A 
ATOM     19  C   UNL     1     110.634 127.917 134.613  0.00  0.00    +0.000 A 
ATOM     20  C   UNL     1     109.970 128.091 135.070  0.00  0.00    +0.000 A 
BRANCH  18  21
ATOM     21  O   UNL     1     109.238 127.955 136.290  0.00  0.00    +0.000 OA
BRANCH  21  22
ATOM     22  S   UNL     1     108.957 127.403 136.835  0.00  0.00    +0.000 S 
ATOM     23  O   UNL     1     108.676 126.852 137.380  0.00  0.00    +0.000 OA
ATOM     24  O   UNL     1     108.578 126.994 136.227  0.00  0.00    +0.000 OA
ATOM     25  O   UNL     1     109.335 127.812 137.444  0.00  0.00    +0.000 OA
ENDBRANCH  21  22
ENDBRANCH  18  21
ENDBRANCH   6  15
BRANCH   5  26
ATOM     26  O   UNL     1     112.623 127.777 136.085  0.00  0.00    +0.000 OA
BRANCH  26  35
ATOM     27  O   UNL     1     112.523 128.067 137.480  0.00  0.00    +0.000 OA
ATOM     28  O   UNL     1     114.019 130.016 137.183  0.00  0.00    +0.000 OA
ATOM     29  O   UNL     1     113.420 129.657 138.677  0.00  0.00    +0.000 OA
ATOM     30  O   UNL     1     113.621 129.076 135.886  0.00  0.00    +0.000 OA
ATOM     31  C   UNL     1     113.520 129.366 137.282  0.00  0.00    +0.000 C 
ATOM     32  C   UNL     1     113.221 129.186 138.029  0.00  0.00    +0.000 C 
ATOM     33  C   UNL     1     113.321 128.896 136.634  0.00  0.00    +0.000 C 
ATOM     34  C   UNL     1     112.722 128.537 138.128  0.00  0.00    +0.000 C 
ATOM     35  C   UNL     1     112.822 128.247 136.733  0.00  0.00    +0.000 C 
ATOM     36  C   UNL     1     112.422 128.358 138.876  0.00  0.00    +0.000 C 
ENDBRANCH  26  35
ENDBRANCH   5  26
TORSDOF 5
ENDMDL
MODEL 9
REMARK VINA RESULT:      -9.1     10.789     12.882
REMARK  Name = 73107181
REMARK  5 active torsions:
REMARK  status: ('A' for Active; 'I' for Inactive)
REMARK    1  A    between atoms: S_1  and  O_10
REMARK    2  A    between atoms: O_3  and  C_20
REMARK    3  A    between atoms: O_3  and  C_22
REMARK    4  A    between atoms: O_10  and  C_34
REMARK    5  A    between atoms: C_23  and  C_27
REMARK                            x       y       z     vdW  Elec       q    Type
REMARK                         _______ _______ _______ _____ _____    ______ ____
ROOT
ATOM      1  O   UNL     1     112.902 128.478 138.230  0.00  0.00    +0.000 OA
ATOM      2  O   UNL     1     112.295 126.139 138.763  0.00  0.00    +0.000 OA
ATOM      3  O   UNL     1     112.803 126.283 140.105  0.00  0.00    +0.000 OA
ATOM      4  O   UNL     1     113.948 128.842 140.924  0.00  0.00    +0.000 OA
ATOM      5  C   UNL     1     112.343 127.224 137.834  0.00  0.00    +0.000 A 
ATOM      6  C   UNL     1     112.546 128.004 137.657  0.00  0.00    +0.000 A 
ATOM      7  C   UNL     1     112.498 126.919 138.586  0.00  0.00    +0.000 A 
ATOM      8  C   UNL     1     112.854 127.393 139.159  0.00  0.00    +0.000 A 
ATOM      9  C   UNL     1     113.056 128.173 138.980  0.00  0.00    +0.000 A 
ATOM     10  C   UNL     1     113.009 127.064 139.937  0.00  0.00    +0.000 A 
ATOM     11  C   UNL     1     113.428 128.677 139.569  0.00  0.00    +0.000 A 
ATOM     12  C   UNL     1     113.380 127.553 140.538  0.00  0.00    +0.000 A 
ATOM     13  C   UNL     1     113.591 128.365 140.353  0.00  0.00    +0.000 A 
ENDROOT
BRANCH   6  15
ATOM     14  O   UNL     1     111.930 129.224 134.654  0.00  0.00    +0.000 OA
ATOM     15  C   UNL     1     112.392 128.309 136.906  0.00  0.00    +0.000 A 
ATOM     16  C   UNL     1     113.015 128.459 136.386  0.00  0.00    +0.000 A 
ATOM     17  C   UNL     1     111.615 128.464 136.675  0.00  0.00    +0.000 A 
ATOM     18  C   UNL     1     112.861 128.764 135.635  0.00  0.00    +0.000 A 
ATOM     19  C   UNL     1     111.462 128.769 135.924  0.00  0.00    +0.000 A 
ATOM     20  C   UNL     1     112.084 128.920 135.404  0.00  0.00    +0.000 A 
BRANCH  18  21
ATOM     21  O   UNL     1     113.484 128.914 135.115  0.00  0.00    +0.000 OA
BRANCH  21  22
ATOM     22  S   UNL     1     114.195 129.220 135.401  0.00  0.00    +0.000 S 
ATOM     23  O   UNL     1     114.906 129.526 135.686  0.00  0.00    +0.000 OA
ATOM     24  O   UNL     1     114.531 128.467 135.370  0.00  0.00    +0.000 OA
ATOM     25  O   UNL     1     113.859 129.973 135.431  0.00  0.00    +0.000 OA
ENDBRANCH  21  22
ENDBRANCH  18  21
ENDBRANCH   6  15
BRANCH   5  26
ATOM     26  O   UNL     1     111.987 126.750 137.261  0.00  0.00    +0.000 OA
BRANCH  26  35
ATOM     27  O   UNL     1     113.170 125.992 136.997  0.00  0.00    +0.000 OA
ATOM     28  O   UNL     1     111.781 124.037 136.386  0.00  0.00    +0.000 OA
ATOM     29  O   UNL     1     113.426 123.931 136.325  0.00  0.00    +0.000 OA
ATOM     30  O   UNL     1     111.061 125.446 136.854  0.00  0.00    +0.000 OA
ATOM     31  C   UNL     1     112.244 124.689 136.589  0.00  0.00    +0.000 C 
ATOM     32  C   UNL     1     113.066 124.637 136.559  0.00  0.00    +0.000 C 
ATOM     33  C   UNL     1     111.884 125.393 136.823  0.00  0.00    +0.000 C 
ATOM     34  C   UNL     1     113.529 125.288 136.763  0.00  0.00    +0.000 C 
ATOM     35  C   UNL     1     112.347 126.045 137.027  0.00  0.00    +0.000 C 
ATOM     36  C   UNL     1     114.352 125.235 136.732  0.00  0.00    +0.000 C 
ENDBRANCH  26  35
ENDBRANCH   5  26
TORSDOF 5
ENDMDL
MODEL 10
REMARK VINA RESULT:      -9.1     11.430     12.857
REMARK  Name = 73107181
REMARK  5 active torsions:
REMARK  status: ('A' for Active; 'I' for Inactive)
REMARK    1  A    between atoms: S_1  and  O_10
REMARK    2  A    between atoms: O_3  and  C_20
REMARK    3  A    between atoms: O_3  and  C_22
REMARK    4  A    between atoms: O_10  and  C_34
REMARK    5  A    between atoms: C_23  and  C_27
REMARK                            x       y       z     vdW  Elec       q    Type
REMARK                         _______ _______ _______ _____ _____    ______ ____
ROOT
ATOM      1  O   UNL     1     112.437 128.052 135.493  0.00  0.00    +0.000 OA
ATOM      2  O   UNL     1     111.440 129.842 136.881  0.00  0.00    +0.000 OA
ATOM      3  O   UNL     1     112.669 130.597 136.839  0.00  0.00    +0.000 OA
ATOM      4  O   UNL     1     114.948 129.521 135.364  0.00  0.00    +0.000 OA
ATOM      5  C   UNL     1     111.325 128.582 136.216  0.00  0.00    +0.000 A 
ATOM      6  C   UNL     1     111.657 127.986 135.753  0.00  0.00    +0.000 A 
ATOM      7  C   UNL     1     111.773 129.245 136.418  0.00  0.00    +0.000 A 
ATOM      8  C   UNL     1     112.553 129.311 136.158  0.00  0.00    +0.000 A 
ATOM      9  C   UNL     1     112.885 128.714 135.695  0.00  0.00    +0.000 A 
ATOM     10  C   UNL     1     113.009 130.005 136.376  0.00  0.00    +0.000 A 
ATOM     11  C   UNL     1     113.696 128.771 135.418  0.00  0.00    +0.000 A 
ATOM     12  C   UNL     1     113.822 130.080 136.108  0.00  0.00    +0.000 A 
ATOM     13  C   UNL     1     114.168 129.458 135.626  0.00  0.00    +0.000 A 
ENDROOT
BRANCH   6  15
ATOM     14  O   UNL     1     109.865 125.336 134.944  0.00  0.00    +0.000 OA
ATOM     15  C   UNL     1     111.209 127.323 135.551  0.00  0.00    +0.000 A 
ATOM     16  C   UNL     1     111.133 126.698 136.084  0.00  0.00    +0.000 A 
ATOM     17  C   UNL     1     110.837 127.285 134.815  0.00  0.00    +0.000 A 
ATOM     18  C   UNL     1     110.684 126.035 135.882  0.00  0.00    +0.000 A 
ATOM     19  C   UNL     1     110.389 126.623 134.613  0.00  0.00    +0.000 A 
ATOM     20  C   UNL     1     110.313 125.998 135.146  0.00  0.00    +0.000 A 
BRANCH  18  21
ATOM     21  O   UNL     1     110.608 125.411 136.415  0.00  0.00    +0.000 OA
BRANCH  21  22
ATOM     22  S   UNL     1     111.235 125.216 136.915  0.00  0.00    +0.000 S 
ATOM     23  O   UNL     1     111.862 125.021 137.414  0.00  0.00    +0.000 OA
ATOM     24  O   UNL     1     110.853 125.592 137.542  0.00  0.00    +0.000 OA
ATOM     25  O   UNL     1     111.618 124.840 136.288  0.00  0.00    +0.000 OA
ENDBRANCH  21  22
ENDBRANCH  18  21
ENDBRANCH   6  15
BRANCH   5  26
ATOM     26  O   UNL     1     110.544 128.517 136.476  0.00  0.00    +0.000 OA
BRANCH  26  35
ATOM     27  O   UNL     1     110.047 129.479 135.544  0.00  0.00    +0.000 OA
ATOM     28  O   UNL     1     108.221 130.054 137.112  0.00  0.00    +0.000 OA
ATOM     29  O   UNL     1     108.333 130.825 135.658  0.00  0.00    +0.000 OA
ATOM     30  O   UNL     1     109.327 128.900 137.521  0.00  0.00    +0.000 OA
ATOM     31  C   UNL     1     108.830 129.863 136.590  0.00  0.00    +0.000 C 
ATOM     32  C   UNL     1     108.886 130.247 135.862  0.00  0.00    +0.000 C 
ATOM     33  C   UNL     1     109.383 129.286 136.793  0.00  0.00    +0.000 C 
ATOM     34  C   UNL     1     109.495 130.056 135.339  0.00  0.00    +0.000 C 
ATOM     35  C   UNL     1     109.992 129.094 136.271  0.00  0.00    +0.000 C 
ATOM     36  C   UNL     1     109.550 130.442 134.612  0.00  0.00    +0.000 C 
ENDBRANCH  26  35
ENDBRANCH   5  26
TORSDOF 5
ENDMDL
