MODEL 1
REMARK VINA RESULT:     -10.3      0.000      0.000
REMARK  Name = 44260005
REMARK  7 active torsions:
REMARK  status: ('A' for Active; 'I' for Inactive)
REMARK    1  A    between atoms: O_1  and  C_18
REMARK    2  A    between atoms: O_1  and  C_21
REMARK    3  A    between atoms: O_5  and  C_22
REMARK    4  A    between atoms: O_5  and  C_30
REMARK    5  A    between atoms: O_16  and  C_42
REMARK    6  A    between atoms: C_24  and  C_28
REMARK    7  A    between atoms: C_37  and  C_39
REMARK                            x       y       z     vdW  Elec       q    Type
REMARK                         _______ _______ _______ _____ _____    ______ ____
ROOT
ATOM      1  O   UNL     1     104.213 129.770 143.438  0.00  0.00    +0.000 OA
ATOM      2  O   UNL     1     103.216 130.260 142.182  0.00  0.00    +0.000 OA
ATOM      3  O   UNL     1     104.005 127.965 140.616  0.00  0.00    +0.000 OA
ATOM      4  O   UNL     1     103.064 128.928 140.101  0.00  0.00    +0.000 OA
ATOM      5  O   UNL     1     102.179 130.312 140.261  0.00  0.00    +0.000 OA
ATOM      6  C   UNL     1     104.631 128.601 142.670  0.00  0.00    +0.000 A 
ATOM      7  C   UNL     1     104.168 129.321 142.748  0.00  0.00    +0.000 A 
ATOM      8  C   UNL     1     104.578 128.139 141.948  0.00  0.00    +0.000 A 
ATOM      9  C   UNL     1     103.658 129.569 142.102  0.00  0.00    +0.000 A 
ATOM     10  C   UNL     1     104.062 128.402 141.313  0.00  0.00    +0.000 A 
ATOM     11  C   UNL     1     103.607 129.125 141.408  0.00  0.00    +0.000 A 
ATOM     12  C   UNL     1     103.114 129.372 140.795  0.00  0.00    +0.000 A 
ATOM     13  C   UNL     1     102.723 130.508 141.569  0.00  0.00    +0.000 A 
ATOM     14  C   UNL     1     102.672 130.064 140.875  0.00  0.00    +0.000 A 
ENDROOT
BRANCH  13  16
ATOM     15  O   UNL     1     100.956 133.276 141.889  0.00  0.00    +0.000 OA
ATOM     16  C   UNL     1     102.281 131.200 141.649  0.00  0.00    +0.000 A 
ATOM     17  C   UNL     1     102.615 131.928 141.451  0.00  0.00    +0.000 A 
ATOM     18  C   UNL     1     101.505 131.164 141.927  0.00  0.00    +0.000 A 
ATOM     19  C   UNL     1     102.173 132.620 141.531  0.00  0.00    +0.000 A 
ATOM     20  C   UNL     1     101.063 131.856 142.007  0.00  0.00    +0.000 A 
ATOM     21  C   UNL     1     101.397 132.584 141.809  0.00  0.00    +0.000 A 
BRANCH  19  22
ATOM     22  O   UNL     1     102.507 133.348 141.333  0.00  0.00    +0.000 OA
ATOM     23  C   UNL     1     103.297 133.503 141.517  0.00  0.00    +0.000 C 
ENDBRANCH  19  22
ENDBRANCH  13  16
BRANCH   6  24
ATOM     24  O   UNL     1     105.123 128.355 143.285  0.00  0.00    +0.000 OA
BRANCH  24  31
ATOM     25  O   UNL     1     106.374 128.618 142.647  0.00  0.00    +0.000 OA
ATOM     26  O   UNL     1     107.305 126.540 143.618  0.00  0.00    +0.000 OA
ATOM     27  O   UNL     1     108.246 127.495 142.658  0.00  0.00    +0.000 OA
ATOM     28  C   UNL     1     106.214 127.447 143.452  0.00  0.00    +0.000 C 
ATOM     29  C   UNL     1     106.995 127.233 143.295  0.00  0.00    +0.000 C 
ATOM     30  C   UNL     1     107.465 127.710 142.815  0.00  0.00    +0.000 C 
ATOM     31  C   UNL     1     105.903 128.140 143.129  0.00  0.00    +0.000 C 
ATOM     32  C   UNL     1     107.155 128.402 142.491  0.00  0.00    +0.000 C 
BRANCH  32  34
ATOM     33  O   UNL     1     107.643 129.697 142.132  0.00  0.00    +0.000 OA
ATOM     34  C   UNL     1     107.625 128.880 142.010  0.00  0.00    +0.000 C 
ENDBRANCH  32  34
BRANCH  28  35
ATOM     35  O   UNL     1     105.743 126.970 143.932  0.00  0.00    +0.000 OA
BRANCH  35  40
ATOM     36  O   UNL     1     106.208 127.662 145.094  0.00  0.00    +0.000 OA
ATOM     37  O   UNL     1     105.009 125.849 144.895  0.00  0.00    +0.000 OA
ATOM     38  O   UNL     1     105.107 125.980 146.537  0.00  0.00    +0.000 OA
ATOM     39  O   UNL     1     105.938 127.233 147.216  0.00  0.00    +0.000 OA
ATOM     40  C   UNL     1     105.792 127.036 144.753  0.00  0.00    +0.000 C 
ATOM     41  C   UNL     1     105.425 126.475 145.235  0.00  0.00    +0.000 C 
ATOM     42  C   UNL     1     105.474 126.541 146.056  0.00  0.00    +0.000 C 
ATOM     43  C   UNL     1     105.890 127.167 146.395  0.00  0.00    +0.000 C 
ATOM     44  C   UNL     1     106.256 127.728 145.914  0.00  0.00    +0.000 C 
ATOM     45  C   UNL     1     106.672 128.355 146.254  0.00  0.00    +0.000 C 
ENDBRANCH  35  40
ENDBRANCH  28  35
ENDBRANCH  24  31
ENDBRANCH   6  24
TORSDOF 7
ENDMDL
MODEL 2
REMARK VINA RESULT:     -10.1      4.282      6.857
REMARK  Name = 44260005
REMARK  7 active torsions:
REMARK  status: ('A' for Active; 'I' for Inactive)
REMARK    1  A    between atoms: O_1  and  C_18
REMARK    2  A    between atoms: O_1  and  C_21
REMARK    3  A    between atoms: O_5  and  C_22
REMARK    4  A    between atoms: O_5  and  C_30
REMARK    5  A    between atoms: O_16  and  C_42
REMARK    6  A    between atoms: C_24  and  C_28
REMARK    7  A    between atoms: C_37  and  C_39
REMARK                            x       y       z     vdW  Elec       q    Type
REMARK                         _______ _______ _______ _____ _____    ______ ____
ROOT
ATOM      1  O   UNL     1     106.205 125.423 139.065  0.00  0.00    +0.000 OA
ATOM      2  O   UNL     1     104.948 124.323 139.194  0.00  0.00    +0.000 OA
ATOM      3  O   UNL     1     105.835 123.566 141.837  0.00  0.00    +0.000 OA
ATOM      4  O   UNL     1     104.675 122.954 141.238  0.00  0.00    +0.000 OA
ATOM      5  O   UNL     1     103.613 122.787 139.986  0.00  0.00    +0.000 OA
ATOM      6  C   UNL     1     106.678 125.062 140.399  0.00  0.00    +0.000 A 
ATOM      7  C   UNL     1     106.122 124.971 139.750  0.00  0.00    +0.000 A 
ATOM      8  C   UNL     1     106.583 124.587 141.108  0.00  0.00    +0.000 A 
ATOM      9  C   UNL     1     105.478 124.405 139.820  0.00  0.00    +0.000 A 
ATOM     10  C   UNL     1     105.933 124.026 141.159  0.00  0.00    +0.000 A 
ATOM     11  C   UNL     1     105.387 123.949 140.501  0.00  0.00    +0.000 A 
ATOM     12  C   UNL     1     104.765 123.410 140.556  0.00  0.00    +0.000 A 
ATOM     13  C   UNL     1     104.326 123.784 139.249  0.00  0.00    +0.000 A 
ATOM     14  C   UNL     1     104.234 123.327 139.930  0.00  0.00    +0.000 A 
ENDROOT
BRANCH  13  16
ATOM     15  O   UNL     1     102.202 123.450 136.745  0.00  0.00    +0.000 OA
ATOM     16  C   UNL     1     103.795 123.700 138.623  0.00  0.00    +0.000 A 
ATOM     17  C   UNL     1     104.014 123.278 137.949  0.00  0.00    +0.000 A 
ATOM     18  C   UNL     1     103.044 124.040 138.671  0.00  0.00    +0.000 A 
ATOM     19  C   UNL     1     103.483 123.195 137.323  0.00  0.00    +0.000 A 
ATOM     20  C   UNL     1     102.513 123.956 138.045  0.00  0.00    +0.000 A 
ATOM     21  C   UNL     1     102.732 123.534 137.371  0.00  0.00    +0.000 A 
BRANCH  19  22
ATOM     22  O   UNL     1     103.703 122.772 136.650  0.00  0.00    +0.000 OA
ATOM     23  C   UNL     1     104.306 123.057 136.163  0.00  0.00    +0.000 C 
ENDBRANCH  19  22
ENDBRANCH  13  16
BRANCH   6  24
ATOM     24  O   UNL     1     107.299 125.602 140.341  0.00  0.00    +0.000 OA
BRANCH  24  31
ATOM     25  O   UNL     1     106.812 126.571 141.271  0.00  0.00    +0.000 OA
ATOM     26  O   UNL     1     109.106 126.882 142.147  0.00  0.00    +0.000 OA
ATOM     27  O   UNL     1     107.855 127.747 142.785  0.00  0.00    +0.000 OA
ATOM     28  C   UNL     1     108.203 126.242 141.244  0.00  0.00    +0.000 C 
ATOM     29  C   UNL     1     108.341 126.779 141.855  0.00  0.00    +0.000 C 
ATOM     30  C   UNL     1     107.716 127.211 142.174  0.00  0.00    +0.000 C 
ATOM     31  C   UNL     1     107.438 126.138 140.952  0.00  0.00    +0.000 C 
ATOM     32  C   UNL     1     106.952 127.107 141.883  0.00  0.00    +0.000 C 
BRANCH  32  34
ATOM     33  O   UNL     1     105.779 127.903 141.701  0.00  0.00    +0.000 OA
ATOM     34  C   UNL     1     106.326 127.539 142.201  0.00  0.00    +0.000 C 
ENDBRANCH  32  34
BRANCH  28  35
ATOM     35  O   UNL     1     108.828 125.809 140.925  0.00  0.00    +0.000 OA
BRANCH  35  40
ATOM     36  O   UNL     1     109.140 126.901 140.056  0.00  0.00    +0.000 OA
ATOM     37  O   UNL     1     110.091 124.952 140.299  0.00  0.00    +0.000 OA
ATOM     38  O   UNL     1     111.034 125.614 139.118  0.00  0.00    +0.000 OA
ATOM     39  O   UNL     1     110.714 127.135 138.563  0.00  0.00    +0.000 OA
ATOM     40  C   UNL     1     109.299 126.141 140.334  0.00  0.00    +0.000 C 
ATOM     41  C   UNL     1     109.932 125.712 140.021  0.00  0.00    +0.000 C 
ATOM     42  C   UNL     1     110.403 126.043 139.431  0.00  0.00    +0.000 C 
ATOM     43  C   UNL     1     110.242 126.803 139.153  0.00  0.00    +0.000 C 
ATOM     44  C   UNL     1     109.611 127.232 139.466  0.00  0.00    +0.000 C 
ATOM     45  C   UNL     1     109.450 127.992 139.188  0.00  0.00    +0.000 C 
ENDBRANCH  35  40
ENDBRANCH  28  35
ENDBRANCH  24  31
ENDBRANCH   6  24
TORSDOF 7
ENDMDL
MODEL 3
REMARK VINA RESULT:     -10.0      2.430      3.624
REMARK  Name = 44260005
REMARK  7 active torsions:
REMARK  status: ('A' for Active; 'I' for Inactive)
REMARK    1  A    between atoms: O_1  and  C_18
REMARK    2  A    between atoms: O_1  and  C_21
REMARK    3  A    between atoms: O_5  and  C_22
REMARK    4  A    between atoms: O_5  and  C_30
REMARK    5  A    between atoms: O_16  and  C_42
REMARK    6  A    between atoms: C_24  and  C_28
REMARK    7  A    between atoms: C_37  and  C_39
REMARK                            x       y       z     vdW  Elec       q    Type
REMARK                         _______ _______ _______ _____ _____    ______ ____
ROOT
ATOM      1  O   UNL     1     104.512 128.040 140.957  0.00  0.00    +0.000 OA
ATOM      2  O   UNL     1     104.034 129.301 141.952  0.00  0.00    +0.000 OA
ATOM      3  O   UNL     1     105.387 128.089 144.198  0.00  0.00    +0.000 OA
ATOM      4  O   UNL     1     104.679 129.337 144.341  0.00  0.00    +0.000 OA
ATOM      5  O   UNL     1     103.770 130.563 143.714  0.00  0.00    +0.000 OA
ATOM      6  C   UNL     1     105.206 127.403 142.073  0.00  0.00    +0.000 A 
ATOM      7  C   UNL     1     104.732 128.044 141.752  0.00  0.00    +0.000 A 
ATOM      8  C   UNL     1     105.430 127.415 142.902  0.00  0.00    +0.000 A 
ATOM      9  C   UNL     1     104.488 128.689 142.266  0.00  0.00    +0.000 A 
ATOM     10  C   UNL     1     105.177 128.069 143.400  0.00  0.00    +0.000 A 
ATOM     11  C   UNL     1     104.704 128.701 143.062  0.00  0.00    +0.000 A 
ATOM     12  C   UNL     1     104.464 129.325 143.545  0.00  0.00    +0.000 A 
ATOM     13  C   UNL     1     103.794 129.926 142.434  0.00  0.00    +0.000 A 
ATOM     14  C   UNL     1     104.009 129.938 143.231  0.00  0.00    +0.000 A 
ENDROOT
BRANCH  13  16
ATOM     15  O   UNL     1     101.976 132.378 141.181  0.00  0.00    +0.000 OA
ATOM     16  C   UNL     1     103.340 130.539 142.121  0.00  0.00    +0.000 A 
ATOM     17  C   UNL     1     103.708 131.206 141.805  0.00  0.00    +0.000 A 
ATOM     18  C   UNL     1     102.516 130.485 142.124  0.00  0.00    +0.000 A 
ATOM     19  C   UNL     1     103.253 131.819 141.492  0.00  0.00    +0.000 A 
ATOM     20  C   UNL     1     102.062 131.098 141.810  0.00  0.00    +0.000 A 
ATOM     21  C   UNL     1     102.430 131.765 141.494  0.00  0.00    +0.000 A 
BRANCH  19  22
ATOM     22  O   UNL     1     103.623 132.486 141.176  0.00  0.00    +0.000 OA
ATOM     23  C   UNL     1     104.299 132.401 140.710  0.00  0.00    +0.000 C 
ENDBRANCH  19  22
ENDBRANCH  13  16
BRANCH   6  24
ATOM     24  O   UNL     1     105.444 126.779 141.588  0.00  0.00    +0.000 OA
BRANCH  24  31
ATOM     25  O   UNL     1     106.829 127.108 141.460  0.00  0.00    +0.000 OA
ATOM     26  O   UNL     1     107.422 124.724 141.761  0.00  0.00    +0.000 OA
ATOM     27  O   UNL     1     108.608 125.847 141.532  0.00  0.00    +0.000 OA
ATOM     28  C   UNL     1     106.432 125.751 141.675  0.00  0.00    +0.000 C 
ATOM     29  C   UNL     1     107.224 125.519 141.660  0.00  0.00    +0.000 C 
ATOM     30  C   UNL     1     107.817 126.080 141.546  0.00  0.00    +0.000 C 
ATOM     31  C   UNL     1     106.235 126.546 141.574  0.00  0.00    +0.000 C 
ATOM     32  C   UNL     1     107.620 126.874 141.446  0.00  0.00    +0.000 C 
BRANCH  32  34
ATOM     33  O   UNL     1     108.129 128.010 140.744  0.00  0.00    +0.000 OA
ATOM     34  C   UNL     1     108.212 127.436 141.332  0.00  0.00    +0.000 C 
ENDBRANCH  32  34
BRANCH  28  35
ATOM     35  O   UNL     1     105.839 125.190 141.789  0.00  0.00    +0.000 OA
BRANCH  35  40
ATOM     36  O   UNL     1     105.677 124.977 140.385  0.00  0.00    +0.000 OA
ATOM     37  O   UNL     1     105.202 123.698 142.088  0.00  0.00    +0.000 OA
ATOM     38  O   UNL     1     104.721 122.739 140.834  0.00  0.00    +0.000 OA
ATOM     39  O   UNL     1     104.878 123.273 139.281  0.00  0.00    +0.000 OA
ATOM     40  C   UNL     1     105.599 124.711 141.162  0.00  0.00    +0.000 C 
ATOM     41  C   UNL     1     105.280 123.964 141.311  0.00  0.00    +0.000 C 
ATOM     42  C   UNL     1     105.039 123.485 140.684  0.00  0.00    +0.000 C 
ATOM     43  C   UNL     1     105.118 123.752 139.908  0.00  0.00    +0.000 C 
ATOM     44  C   UNL     1     105.437 124.498 139.758  0.00  0.00    +0.000 C 
ATOM     45  C   UNL     1     105.515 124.765 138.981  0.00  0.00    +0.000 C 
ENDBRANCH  35  40
ENDBRANCH  28  35
ENDBRANCH  24  31
ENDBRANCH   6  24
TORSDOF 7
ENDMDL
MODEL 4
REMARK VINA RESULT:      -9.9      8.022     10.181
REMARK  Name = 44260005
REMARK  7 active torsions:
REMARK  status: ('A' for Active; 'I' for Inactive)
REMARK    1  A    between atoms: O_1  and  C_18
REMARK    2  A    between atoms: O_1  and  C_21
REMARK    3  A    between atoms: O_5  and  C_22
REMARK    4  A    between atoms: O_5  and  C_30
REMARK    5  A    between atoms: O_16  and  C_42
REMARK    6  A    between atoms: C_24  and  C_28
REMARK    7  A    between atoms: C_37  and  C_39
REMARK                            x       y       z     vdW  Elec       q    Type
REMARK                         _______ _______ _______ _____ _____    ______ ____
ROOT
ATOM      1  O   UNL     1     112.113 128.643 138.169  0.00  0.00    +0.000 OA
ATOM      2  O   UNL     1     112.856 128.677 139.671  0.00  0.00    +0.000 OA
ATOM      3  O   UNL     1     111.929 125.997 140.225  0.00  0.00    +0.000 OA
ATOM      4  O   UNL     1     112.720 126.724 141.187  0.00  0.00    +0.000 OA
ATOM      5  O   UNL     1     113.548 128.074 141.652  0.00  0.00    +0.000 OA
ATOM      6  C   UNL     1     111.631 127.288 138.420  0.00  0.00    +0.000 A 
ATOM      7  C   UNL     1     112.063 127.989 138.667  0.00  0.00    +0.000 A 
ATOM      8  C   UNL     1     111.583 126.611 138.946  0.00  0.00    +0.000 A 
ATOM      9  C   UNL     1     112.443 128.002 139.439  0.00  0.00    +0.000 A 
ATOM     10  C   UNL     1     111.970 126.643 139.713  0.00  0.00    +0.000 A 
ATOM     11  C   UNL     1     112.397 127.351 139.944  0.00  0.00    +0.000 A 
ATOM     12  C   UNL     1     112.766 127.375 140.682  0.00  0.00    +0.000 A 
ATOM     13  C   UNL     1     113.224 128.701 140.409  0.00  0.00    +0.000 A 
ATOM     14  C   UNL     1     113.179 128.050 140.915  0.00  0.00    +0.000 A 
ENDROOT
BRANCH  13  16
ATOM     15  O   UNL     1     114.879 131.400 141.340  0.00  0.00    +0.000 OA
ATOM     16  C   UNL     1     113.638 129.375 140.641  0.00  0.00    +0.000 A 
ATOM     17  C   UNL     1     113.259 129.960 141.083  0.00  0.00    +0.000 A 
ATOM     18  C   UNL     1     114.431 129.466 140.432  0.00  0.00    +0.000 A 
ATOM     19  C   UNL     1     113.673 130.635 141.316  0.00  0.00    +0.000 A 
ATOM     20  C   UNL     1     114.845 130.141 140.665  0.00  0.00    +0.000 A 
ATOM     21  C   UNL     1     114.466 130.725 141.107  0.00  0.00    +0.000 A 
BRANCH  19  22
ATOM     22  O   UNL     1     113.293 131.219 141.758  0.00  0.00    +0.000 OA
ATOM     23  C   UNL     1     112.605 131.037 142.176  0.00  0.00    +0.000 C 
ENDBRANCH  19  22
ENDBRANCH  13  16
BRANCH   6  24
ATOM     24  O   UNL     1     111.263 127.267 137.681  0.00  0.00    +0.000 OA
BRANCH  24  31
ATOM     25  O   UNL     1     112.150 126.297 137.120  0.00  0.00    +0.000 OA
ATOM     26  O   UNL     1     110.297 125.399 135.747  0.00  0.00    +0.000 OA
ATOM     27  O   UNL     1     111.800 124.729 135.644  0.00  0.00    +0.000 OA
ATOM     28  C   UNL     1     110.780 126.333 136.714  0.00  0.00    +0.000 C 
ATOM     29  C   UNL     1     110.915 125.698 136.204  0.00  0.00    +0.000 C 
ATOM     30  C   UNL     1     111.666 125.363 136.153  0.00  0.00    +0.000 C 
ATOM     31  C   UNL     1     111.397 126.633 137.172  0.00  0.00    +0.000 C 
ATOM     32  C   UNL     1     112.283 125.662 136.611  0.00  0.00    +0.000 C 
BRANCH  32  34
ATOM     33  O   UNL     1     113.691 125.807 136.413  0.00  0.00    +0.000 OA
ATOM     34  C   UNL     1     113.036 125.327 136.559  0.00  0.00    +0.000 C 
ENDBRANCH  32  34
BRANCH  28  35
ATOM     35  O   UNL     1     110.028 126.669 136.766  0.00  0.00    +0.000 OA
BRANCH  35  40
ATOM     36  O   UNL     1     110.358 127.573 135.710  0.00  0.00    +0.000 OA
ATOM     37  O   UNL     1     108.503 127.295 136.825  0.00  0.00    +0.000 OA
ATOM     38  O   UNL     1     108.071 128.513 135.799  0.00  0.00    +0.000 OA
ATOM     39  O   UNL     1     109.164 129.104 134.714  0.00  0.00    +0.000 OA
ATOM     40  C   UNL     1     109.812 127.277 136.253  0.00  0.00    +0.000 C 
ATOM     41  C   UNL     1     109.049 127.591 136.282  0.00  0.00    +0.000 C 
ATOM     42  C   UNL     1     108.833 128.200 135.769  0.00  0.00    +0.000 C 
ATOM     43  C   UNL     1     109.380 128.495 135.227  0.00  0.00    +0.000 C 
ATOM     44  C   UNL     1     110.142 128.182 135.197  0.00  0.00    +0.000 C 
ATOM     45  C   UNL     1     110.689 128.478 134.654  0.00  0.00    +0.000 C 
ENDBRANCH  35  40
ENDBRANCH  28  35
ENDBRANCH  24  31
ENDBRANCH   6  24
TORSDOF 7
ENDMDL
MODEL 5
REMARK VINA RESULT:      -9.9      3.407      6.025
REMARK  Name = 44260005
REMARK  7 active torsions:
REMARK  status: ('A' for Active; 'I' for Inactive)
REMARK    1  A    between atoms: O_1  and  C_18
REMARK    2  A    between atoms: O_1  and  C_21
REMARK    3  A    between atoms: O_5  and  C_22
REMARK    4  A    between atoms: O_5  and  C_30
REMARK    5  A    between atoms: O_16  and  C_42
REMARK    6  A    between atoms: C_24  and  C_28
REMARK    7  A    between atoms: C_37  and  C_39
REMARK                            x       y       z     vdW  Elec       q    Type
REMARK                         _______ _______ _______ _____ _____    ______ ____
ROOT
ATOM      1  O   UNL     1     104.913 126.227 140.885  0.00  0.00    +0.000 OA
ATOM      2  O   UNL     1     104.859 124.750 140.094  0.00  0.00    +0.000 OA
ATOM      3  O   UNL     1     107.326 123.944 141.363  0.00  0.00    +0.000 OA
ATOM      4  O   UNL     1     106.639 123.067 140.448  0.00  0.00    +0.000 OA
ATOM      5  O   UNL     1     105.385 122.739 139.426  0.00  0.00    +0.000 OA
ATOM      6  C   UNL     1     106.161 125.848 141.541  0.00  0.00    +0.000 A 
ATOM      7  C   UNL     1     105.510 125.672 141.008  0.00  0.00    +0.000 A 
ATOM      8  C   UNL     1     106.778 125.264 141.664  0.00  0.00    +0.000 A 
ATOM      9  C   UNL     1     105.486 124.913 140.605  0.00  0.00    +0.000 A 
ATOM     10  C   UNL     1     106.737 124.511 141.251  0.00  0.00    +0.000 A 
ATOM     11  C   UNL     1     106.079 124.352 140.722  0.00  0.00    +0.000 A 
ATOM     12  C   UNL     1     106.046 123.628 140.330  0.00  0.00    +0.000 A 
ATOM     13  C   UNL     1     104.825 124.026 139.702  0.00  0.00    +0.000 A 
ATOM     14  C   UNL     1     105.419 123.464 139.819  0.00  0.00    +0.000 A 
ENDROOT
BRANCH  13  16
ATOM     15  O   UNL     1     102.317 123.370 137.660  0.00  0.00    +0.000 OA
ATOM     16  C   UNL     1     104.198 123.862 139.191  0.00  0.00    +0.000 A 
ATOM     17  C   UNL     1     103.494 123.551 139.488  0.00  0.00    +0.000 A 
ATOM     18  C   UNL     1     104.275 124.009 138.383  0.00  0.00    +0.000 A 
ATOM     19  C   UNL     1     102.867 123.387 138.978  0.00  0.00    +0.000 A 
ATOM     20  C   UNL     1     103.648 123.845 137.872  0.00  0.00    +0.000 A 
ATOM     21  C   UNL     1     102.944 123.534 138.170  0.00  0.00    +0.000 A 
BRANCH  19  22
ATOM     22  O   UNL     1     102.163 123.076 139.276  0.00  0.00    +0.000 OA
ATOM     23  C   UNL     1     102.104 122.885 140.077  0.00  0.00    +0.000 C 
ENDBRANCH  19  22
ENDBRANCH  13  16
BRANCH   6  24
ATOM     24  O   UNL     1     106.192 126.574 141.933  0.00  0.00    +0.000 OA
BRANCH  24  31
ATOM     25  O   UNL     1     106.008 126.037 143.244  0.00  0.00    +0.000 OA
ATOM     26  O   UNL     1     107.478 127.799 144.171  0.00  0.00    +0.000 OA
ATOM     27  O   UNL     1     106.804 126.676 145.173  0.00  0.00    +0.000 OA
ATOM     28  C   UNL     1     106.835 127.187 143.052  0.00  0.00    +0.000 C 
ATOM     29  C   UNL     1     106.988 127.212 143.862  0.00  0.00    +0.000 C 
ATOM     30  C   UNL     1     106.651 126.651 144.363  0.00  0.00    +0.000 C 
ATOM     31  C   UNL     1     106.345 126.600 142.743  0.00  0.00    +0.000 C 
ATOM     32  C   UNL     1     106.161 126.063 144.054  0.00  0.00    +0.000 C 
BRANCH  32  34
ATOM     33  O   UNL     1     105.004 125.408 144.577  0.00  0.00    +0.000 OA
ATOM     34  C   UNL     1     105.824 125.501 144.555  0.00  0.00    +0.000 C 
ENDBRANCH  32  34
BRANCH  28  35
ATOM     35  O   UNL     1     107.172 127.748 142.551  0.00  0.00    +0.000 OA
BRANCH  35  40
ATOM     36  O   UNL     1     106.075 128.631 142.796  0.00  0.00    +0.000 OA
ATOM     37  O   UNL     1     107.776 128.810 141.441  0.00  0.00    +0.000 OA
ATOM     38  O   UNL     1     106.981 130.222 141.132  0.00  0.00    +0.000 OA
ATOM     39  O   UNL     1     105.581 130.573 141.933  0.00  0.00    +0.000 OA
ATOM     40  C   UNL     1     106.774 128.455 142.396  0.00  0.00    +0.000 C 
ATOM     41  C   UNL     1     107.076 128.986 141.841  0.00  0.00    +0.000 C 
ATOM     42  C   UNL     1     106.679 129.692 141.686  0.00  0.00    +0.000 C 
ATOM     43  C   UNL     1     105.979 129.867 142.087  0.00  0.00    +0.000 C 
ATOM     44  C   UNL     1     105.677 129.337 142.642  0.00  0.00    +0.000 C 
ATOM     45  C   UNL     1     104.977 129.512 143.043  0.00  0.00    +0.000 C 
ENDBRANCH  35  40
ENDBRANCH  28  35
ENDBRANCH  24  31
ENDBRANCH   6  24
TORSDOF 7
ENDMDL
MODEL 6
REMARK VINA RESULT:      -9.8      7.383     10.595
REMARK  Name = 44260005
REMARK  7 active torsions:
REMARK  status: ('A' for Active; 'I' for Inactive)
REMARK    1  A    between atoms: O_1  and  C_18
REMARK    2  A    between atoms: O_1  and  C_21
REMARK    3  A    between atoms: O_5  and  C_22
REMARK    4  A    between atoms: O_5  and  C_30
REMARK    5  A    between atoms: O_16  and  C_42
REMARK    6  A    between atoms: C_24  and  C_28
REMARK    7  A    between atoms: C_37  and  C_39
REMARK                            x       y       z     vdW  Elec       q    Type
REMARK                         _______ _______ _______ _____ _____    ______ ____
ROOT
ATOM      1  O   UNL     1     111.009 128.123 136.586  0.00  0.00    +0.000 OA
ATOM      2  O   UNL     1     111.638 126.887 137.528  0.00  0.00    +0.000 OA
ATOM      3  O   UNL     1     111.463 128.549 139.884  0.00  0.00    +0.000 OA
ATOM      4  O   UNL     1     111.972 127.202 139.960  0.00  0.00    +0.000 OA
ATOM      5  O   UNL     1     112.369 125.765 139.252  0.00  0.00    +0.000 OA
ATOM      6  C   UNL     1     110.909 128.987 137.759  0.00  0.00    +0.000 A 
ATOM      7  C   UNL     1     111.117 128.237 137.395  0.00  0.00    +0.000 A 
ATOM      8  C   UNL     1     111.025 129.096 138.603  0.00  0.00    +0.000 A 
ATOM      9  C   UNL     1     111.439 127.605 137.882  0.00  0.00    +0.000 A 
ATOM     10  C   UNL     1     111.348 128.453 139.073  0.00  0.00    +0.000 A 
ATOM     11  C   UNL     1     111.551 127.710 138.693  0.00  0.00    +0.000 A 
ATOM     12  C   UNL     1     111.861 127.097 139.150  0.00  0.00    +0.000 A 
ATOM     13  C   UNL     1     111.948 126.274 137.984  0.00  0.00    +0.000 A 
ATOM     14  C   UNL     1     112.059 126.379 138.796  0.00  0.00    +0.000 A 
ENDROOT
BRANCH  13  16
ATOM     15  O   UNL     1     112.743 123.401 136.569  0.00  0.00    +0.000 OA
ATOM     16  C   UNL     1     112.146 125.556 137.631  0.00  0.00    +0.000 A 
ATOM     17  C   UNL     1     112.909 125.435 137.342  0.00  0.00    +0.000 A 
ATOM     18  C   UNL     1     111.581 124.958 137.566  0.00  0.00    +0.000 A 
ATOM     19  C   UNL     1     113.108 124.717 136.988  0.00  0.00    +0.000 A 
ATOM     20  C   UNL     1     111.780 124.239 137.212  0.00  0.00    +0.000 A 
ATOM     21  C   UNL     1     112.543 124.119 136.923  0.00  0.00    +0.000 A 
BRANCH  19  22
ATOM     22  O   UNL     1     113.872 124.597 136.699  0.00  0.00    +0.000 OA
ATOM     23  C   UNL     1     114.335 125.244 136.480  0.00  0.00    +0.000 C 
ENDBRANCH  19  22
ENDBRANCH  13  16
BRANCH   6  24
ATOM     24  O   UNL     1     110.599 129.598 137.300  0.00  0.00    +0.000 OA
BRANCH  24  31
ATOM     25  O   UNL     1     111.815 130.330 137.132  0.00  0.00    +0.000 OA
ATOM     26  O   UNL     1     110.562 132.456 137.328  0.00  0.00    +0.000 OA
ATOM     27  O   UNL     1     112.194 132.479 137.095  0.00  0.00    +0.000 OA
ATOM     28  C   UNL     1     110.580 131.027 137.314  0.00  0.00    +0.000 C 
ATOM     29  C   UNL     1     110.980 131.747 137.263  0.00  0.00    +0.000 C 
ATOM     30  C   UNL     1     111.796 131.759 137.146  0.00  0.00    +0.000 C 
ATOM     31  C   UNL     1     110.998 130.319 137.249  0.00  0.00    +0.000 C 
ATOM     32  C   UNL     1     112.213 131.051 137.080  0.00  0.00    +0.000 C 
BRANCH  32  34
ATOM     33  O   UNL     1     113.364 130.626 136.347  0.00  0.00    +0.000 OA
ATOM     34  C   UNL     1     113.030 131.062 136.964  0.00  0.00    +0.000 C 
ENDBRANCH  32  34
BRANCH  28  35
ATOM     35  O   UNL     1     109.764 131.015 137.431  0.00  0.00    +0.000 OA
BRANCH  35  40
ATOM     36  O   UNL     1     109.526 131.016 136.021  0.00  0.00    +0.000 OA
ATOM     37  O   UNL     1     108.200 131.469 137.694  0.00  0.00    +0.000 OA
ATOM     38  O   UNL     1     107.180 131.697 136.416  0.00  0.00    +0.000 OA
ATOM     39  O   UNL     1     107.726 131.470 134.876  0.00  0.00    +0.000 OA
ATOM     40  C   UNL     1     109.254 131.129 136.792  0.00  0.00    +0.000 C 
ATOM     41  C   UNL     1     108.472 131.356 136.923  0.00  0.00    +0.000 C 
ATOM     42  C   UNL     1     107.962 131.470 136.285  0.00  0.00    +0.000 C 
ATOM     43  C   UNL     1     108.235 131.356 135.514  0.00  0.00    +0.000 C 
ATOM     44  C   UNL     1     109.017 131.130 135.383  0.00  0.00    +0.000 C 
ATOM     45  C   UNL     1     109.290 131.016 134.612  0.00  0.00    +0.000 C 
ENDBRANCH  35  40
ENDBRANCH  28  35
ENDBRANCH  24  31
ENDBRANCH   6  24
TORSDOF 7
ENDMDL
MODEL 7
REMARK VINA RESULT:      -9.8      6.876      8.793
REMARK  Name = 44260005
REMARK  7 active torsions:
REMARK  status: ('A' for Active; 'I' for Inactive)
REMARK    1  A    between atoms: O_1  and  C_18
REMARK    2  A    between atoms: O_1  and  C_21
REMARK    3  A    between atoms: O_5  and  C_22
REMARK    4  A    between atoms: O_5  and  C_30
REMARK    5  A    between atoms: O_16  and  C_42
REMARK    6  A    between atoms: C_24  and  C_28
REMARK    7  A    between atoms: C_37  and  C_39
REMARK                            x       y       z     vdW  Elec       q    Type
REMARK                         _______ _______ _______ _____ _____    ______ ____
ROOT
ATOM      1  O   UNL     1     111.205 128.734 137.232  0.00  0.00    +0.000 OA
ATOM      2  O   UNL     1     110.039 129.752 136.589  0.00  0.00    +0.000 OA
ATOM      3  O   UNL     1     108.332 127.491 136.022  0.00  0.00    +0.000 OA
ATOM      4  O   UNL     1     107.920 128.835 135.697  0.00  0.00    +0.000 OA
ATOM      5  O   UNL     1     108.194 130.462 135.662  0.00  0.00    +0.000 OA
ATOM      6  C   UNL     1     110.365 127.572 136.957  0.00  0.00    +0.000 A 
ATOM      7  C   UNL     1     110.502 128.420 136.937  0.00  0.00    +0.000 A 
ATOM      8  C   UNL     1     109.630 127.254 136.648  0.00  0.00    +0.000 A 
ATOM      9  C   UNL     1     109.901 128.939 136.606  0.00  0.00    +0.000 A 
ATOM     10  C   UNL     1     109.041 127.788 136.321  0.00  0.00    +0.000 A 
ATOM     11  C   UNL     1     109.195 128.633 136.309  0.00  0.00    +0.000 A 
ATOM     12  C   UNL     1     108.626 129.141 135.994  0.00  0.00    +0.000 A 
ATOM     13  C   UNL     1     109.470 130.260 136.275  0.00  0.00    +0.000 A 
ATOM     14  C   UNL     1     108.763 129.954 135.977  0.00  0.00    +0.000 A 
ENDROOT
BRANCH  13  16
ATOM     15  O   UNL     1     110.017 133.513 136.206  0.00  0.00    +0.000 OA
ATOM     16  C   UNL     1     109.607 131.073 136.257  0.00  0.00    +0.000 A 
ATOM     17  C   UNL     1     109.570 131.512 136.955  0.00  0.00    +0.000 A 
ATOM     18  C   UNL     1     109.780 131.447 135.543  0.00  0.00    +0.000 A 
ATOM     19  C   UNL     1     109.707 132.326 136.937  0.00  0.00    +0.000 A 
ATOM     20  C   UNL     1     109.917 132.260 135.526  0.00  0.00    +0.000 A 
ATOM     21  C   UNL     1     109.881 132.700 136.223  0.00  0.00    +0.000 A 
BRANCH  19  22
ATOM     22  O   UNL     1     109.670 132.765 137.635  0.00  0.00    +0.000 OA
ATOM     23  C   UNL     1     109.942 132.438 138.342  0.00  0.00    +0.000 C 
ENDBRANCH  19  22
ENDBRANCH  13  16
BRANCH   6  24
ATOM     24  O   UNL     1     110.936 127.067 137.273  0.00  0.00    +0.000 OA
BRANCH  24  31
ATOM     25  O   UNL     1     110.347 126.924 138.567  0.00  0.00    +0.000 OA
ATOM     26  O   UNL     1     111.037 124.548 138.618  0.00  0.00    +0.000 OA
ATOM     27  O   UNL     1     110.218 125.197 139.894  0.00  0.00    +0.000 OA
ATOM     28  C   UNL     1     110.987 125.807 137.945  0.00  0.00    +0.000 C 
ATOM     29  C   UNL     1     110.807 125.340 138.601  0.00  0.00    +0.000 C 
ATOM     30  C   UNL     1     110.398 125.664 139.239  0.00  0.00    +0.000 C 
ATOM     31  C   UNL     1     110.757 126.599 137.928  0.00  0.00    +0.000 C 
ATOM     32  C   UNL     1     110.167 126.456 139.222  0.00  0.00    +0.000 C 
BRANCH  32  34
ATOM     33  O   UNL     1     110.004 127.499 140.185  0.00  0.00    +0.000 OA
ATOM     34  C   UNL     1     109.758 126.781 139.860  0.00  0.00    +0.000 C 
ENDBRANCH  32  34
BRANCH  28  35
ATOM     35  O   UNL     1     111.396 125.483 137.307  0.00  0.00    +0.000 OA
BRANCH  35  40
ATOM     36  O   UNL     1     112.647 125.798 137.922  0.00  0.00    +0.000 OA
ATOM     37  O   UNL     1     112.175 124.516 136.220  0.00  0.00    +0.000 OA
ATOM     38  O   UNL     1     113.815 124.349 136.292  0.00  0.00    +0.000 OA
ATOM     39  O   UNL     1     114.676 125.147 137.451  0.00  0.00    +0.000 OA
ATOM     40  C   UNL     1     112.216 125.399 137.343  0.00  0.00    +0.000 C 
ATOM     41  C   UNL     1     112.606 124.915 136.799  0.00  0.00    +0.000 C 
ATOM     42  C   UNL     1     113.426 124.831 136.835  0.00  0.00    +0.000 C 
ATOM     43  C   UNL     1     113.856 125.231 137.415  0.00  0.00    +0.000 C 
ATOM     44  C   UNL     1     113.467 125.714 137.958  0.00  0.00    +0.000 C 
ATOM     45  C   UNL     1     113.897 126.114 138.538  0.00  0.00    +0.000 C 
ENDBRANCH  35  40
ENDBRANCH  28  35
ENDBRANCH  24  31
ENDBRANCH   6  24
TORSDOF 7
ENDMDL
MODEL 8
REMARK VINA RESULT:      -9.8      7.801      9.223
REMARK  Name = 44260005
REMARK  7 active torsions:
REMARK  status: ('A' for Active; 'I' for Inactive)
REMARK    1  A    between atoms: O_1  and  C_18
REMARK    2  A    between atoms: O_1  and  C_21
REMARK    3  A    between atoms: O_5  and  C_22
REMARK    4  A    between atoms: O_5  and  C_30
REMARK    5  A    between atoms: O_16  and  C_42
REMARK    6  A    between atoms: C_24  and  C_28
REMARK    7  A    between atoms: C_37  and  C_39
REMARK                            x       y       z     vdW  Elec       q    Type
REMARK                         _______ _______ _______ _____ _____    ______ ____
ROOT
ATOM      1  O   UNL     1     111.489 129.924 138.551  0.00  0.00    +0.000 OA
ATOM      2  O   UNL     1     110.936 129.735 136.980  0.00  0.00    +0.000 OA
ATOM      3  O   UNL     1     113.280 128.186 136.307  0.00  0.00    +0.000 OA
ATOM      4  O   UNL     1     112.257 128.453 135.325  0.00  0.00    +0.000 OA
ATOM      5  O   UNL     1     110.818 129.131 134.885  0.00  0.00    +0.000 OA
ATOM      6  C   UNL     1     112.684 129.145 138.241  0.00  0.00    +0.000 A 
ATOM      7  C   UNL     1     111.935 129.496 138.006  0.00  0.00    +0.000 A 
ATOM      8  C   UNL     1     113.142 128.700 137.667  0.00  0.00    +0.000 A 
ATOM      9  C   UNL     1     111.655 129.396 137.199  0.00  0.00    +0.000 A 
ATOM     10  C   UNL     1     112.846 128.611 136.864  0.00  0.00    +0.000 A 
ATOM     11  C   UNL     1     112.096 128.969 136.648  0.00  0.00    +0.000 A 
ATOM     12  C   UNL     1     111.817 128.881 135.877  0.00  0.00    +0.000 A 
ATOM     13  C   UNL     1     110.657 129.647 136.209  0.00  0.00    +0.000 A 
ATOM     14  C   UNL     1     111.097 129.220 135.656  0.00  0.00    +0.000 A 
ENDROOT
BRANCH  13  16
ATOM     15  O   UNL     1     107.781 131.003 135.328  0.00  0.00    +0.000 OA
ATOM     16  C   UNL     1     109.938 129.986 135.989  0.00  0.00    +0.000 A 
ATOM     17  C   UNL     1     109.908 130.778 135.760  0.00  0.00    +0.000 A 
ATOM     18  C   UNL     1     109.249 129.533 135.997  0.00  0.00    +0.000 A 
ATOM     19  C   UNL     1     109.189 131.117 135.540  0.00  0.00    +0.000 A 
ATOM     20  C   UNL     1     108.529 129.872 135.777  0.00  0.00    +0.000 A 
ATOM     21  C   UNL     1     108.499 130.664 135.548  0.00  0.00    +0.000 A 
BRANCH  19  22
ATOM     22  O   UNL     1     109.159 131.910 135.312  0.00  0.00    +0.000 OA
ATOM     23  C   UNL     1     109.504 132.489 135.788  0.00  0.00    +0.000 C 
ENDBRANCH  19  22
ENDBRANCH  13  16
BRANCH   6  24
ATOM     24  O   UNL     1     112.960 129.235 139.013  0.00  0.00    +0.000 OA
BRANCH  24  31
ATOM     25  O   UNL     1     112.615 127.914 139.436  0.00  0.00    +0.000 OA
ATOM     26  O   UNL     1     114.575 127.886 140.947  0.00  0.00    +0.000 OA
ATOM     27  O   UNL     1     113.577 126.575 140.866  0.00  0.00    +0.000 OA
ATOM     28  C   UNL     1     113.768 128.561 139.980  0.00  0.00    +0.000 C 
ATOM     29  C   UNL     1     113.922 127.895 140.443  0.00  0.00    +0.000 C 
ATOM     30  C   UNL     1     113.423 127.240 140.403  0.00  0.00    +0.000 C 
ATOM     31  C   UNL     1     113.115 128.570 139.476  0.00  0.00    +0.000 C 
ATOM     32  C   UNL     1     112.770 127.249 139.899  0.00  0.00    +0.000 C 
BRANCH  32  34
ATOM     33  O   UNL     1     111.462 126.682 140.000  0.00  0.00    +0.000 OA
ATOM     34  C   UNL     1     112.270 126.594 139.858  0.00  0.00    +0.000 C 
ENDBRANCH  32  34
BRANCH  28  35
ATOM     35  O   UNL     1     114.267 129.216 140.021  0.00  0.00    +0.000 OA
BRANCH  35  40
ATOM     36  O   UNL     1     113.456 129.771 141.059  0.00  0.00    +0.000 OA
ATOM     37  O   UNL     1     115.321 130.476 140.170  0.00  0.00    +0.000 OA
ATOM     38  O   UNL     1     115.037 131.661 141.283  0.00  0.00    +0.000 OA
ATOM     39  O   UNL     1     113.699 131.586 142.246  0.00  0.00    +0.000 OA
ATOM     40  C   UNL     1     114.125 129.808 140.577  0.00  0.00    +0.000 C 
ATOM     41  C   UNL     1     114.652 130.439 140.652  0.00  0.00    +0.000 C 
ATOM     42  C   UNL     1     114.510 131.032 141.208  0.00  0.00    +0.000 C 
ATOM     43  C   UNL     1     113.841 130.993 141.690  0.00  0.00    +0.000 C 
ATOM     44  C   UNL     1     113.314 130.363 141.615  0.00  0.00    +0.000 C 
ATOM     45  C   UNL     1     112.645 130.325 142.096  0.00  0.00    +0.000 C 
ENDBRANCH  35  40
ENDBRANCH  28  35
ENDBRANCH  24  31
ENDBRANCH   6  24
TORSDOF 7
ENDMDL
MODEL 9
REMARK VINA RESULT:      -9.8      6.773      8.676
REMARK  Name = 44260005
REMARK  7 active torsions:
REMARK  status: ('A' for Active; 'I' for Inactive)
REMARK    1  A    between atoms: O_1  and  C_18
REMARK    2  A    between atoms: O_1  and  C_21
REMARK    3  A    between atoms: O_5  and  C_22
REMARK    4  A    between atoms: O_5  and  C_30
REMARK    5  A    between atoms: O_16  and  C_42
REMARK    6  A    between atoms: C_24  and  C_28
REMARK    7  A    between atoms: C_37  and  C_39
REMARK                            x       y       z     vdW  Elec       q    Type
REMARK                         _______ _______ _______ _____ _____    ______ ____
ROOT
ATOM      1  O   UNL     1     111.224 128.925 136.869  0.00  0.00    +0.000 OA
ATOM      2  O   UNL     1     110.024 130.081 137.048  0.00  0.00    +0.000 OA
ATOM      3  O   UNL     1     109.271 128.952 139.599  0.00  0.00    +0.000 OA
ATOM      4  O   UNL     1     108.584 130.101 139.061  0.00  0.00    +0.000 OA
ATOM      5  O   UNL     1     108.366 131.232 137.880  0.00  0.00    +0.000 OA
ATOM      6  C   UNL     1     110.867 128.332 138.155  0.00  0.00    +0.000 A 
ATOM      7  C   UNL     1     110.749 128.924 137.543  0.00  0.00    +0.000 A 
ATOM      8  C   UNL     1     110.367 128.339 138.853  0.00  0.00    +0.000 A 
ATOM      9  C   UNL     1     110.132 129.515 137.638  0.00  0.00    +0.000 A 
ATOM     10  C   UNL     1     109.756 128.938 138.931  0.00  0.00    +0.000 A 
ATOM     11  C   UNL     1     109.652 129.522 138.310  0.00  0.00    +0.000 A 
ATOM     12  C   UNL     1     109.064 130.094 138.390  0.00  0.00    +0.000 A 
ATOM     13  C   UNL     1     109.435 130.653 137.128  0.00  0.00    +0.000 A 
ATOM     14  C   UNL     1     108.955 130.660 137.800  0.00  0.00    +0.000 A 
ENDROOT
BRANCH  13  16
ATOM     15  O   UNL     1     109.000 132.916 134.767  0.00  0.00    +0.000 OA
ATOM     16  C   UNL     1     109.326 131.219 136.538  0.00  0.00    +0.000 A 
ATOM     17  C   UNL     1     109.728 131.938 136.577  0.00  0.00    +0.000 A 
ATOM     18  C   UNL     1     108.815 131.065 135.909  0.00  0.00    +0.000 A 
ATOM     19  C   UNL     1     109.619 132.504 135.986  0.00  0.00    +0.000 A 
ATOM     20  C   UNL     1     108.706 131.631 135.318  0.00  0.00    +0.000 A 
ATOM     21  C   UNL     1     109.108 132.350 135.357  0.00  0.00    +0.000 A 
BRANCH  19  22
ATOM     22  O   UNL     1     110.021 133.224 136.026  0.00  0.00    +0.000 OA
ATOM     23  C   UNL     1     110.597 133.342 136.605  0.00  0.00    +0.000 C 
ENDBRANCH  19  22
ENDBRANCH  13  16
BRANCH   6  24
ATOM     24  O   UNL     1     111.456 127.761 138.072  0.00  0.00    +0.000 OA
BRANCH  24  31
ATOM     25  O   UNL     1     112.425 128.330 138.955  0.00  0.00    +0.000 OA
ATOM     26  O   UNL     1     112.952 126.076 139.830  0.00  0.00    +0.000 OA
ATOM     27  O   UNL     1     113.744 127.396 140.421  0.00  0.00    +0.000 OA
ATOM     28  C   UNL     1     112.204 126.918 138.951  0.00  0.00    +0.000 C 
ATOM     29  C   UNL     1     112.776 126.827 139.538  0.00  0.00    +0.000 C 
ATOM     30  C   UNL     1     113.172 127.487 139.834  0.00  0.00    +0.000 C 
ATOM     31  C   UNL     1     112.028 127.669 138.659  0.00  0.00    +0.000 C 
ATOM     32  C   UNL     1     112.997 128.238 139.542  0.00  0.00    +0.000 C 
BRANCH  32  34
ATOM     33  O   UNL     1     113.689 129.468 139.318  0.00  0.00    +0.000 OA
ATOM     34  C   UNL     1     113.393 128.899 139.837  0.00  0.00    +0.000 C 
ENDBRANCH  32  34
BRANCH  28  35
ATOM     35  O   UNL     1     111.807 126.258 138.655  0.00  0.00    +0.000 OA
BRANCH  35  40
ATOM     36  O   UNL     1     112.825 126.072 137.668  0.00  0.00    +0.000 OA
ATOM     37  O   UNL     1     111.167 124.787 138.272  0.00  0.00    +0.000 OA
ATOM     38  O   UNL     1     111.864 123.865 137.094  0.00  0.00    +0.000 OA
ATOM     39  O   UNL     1     113.201 124.415 136.299  0.00  0.00    +0.000 OA
ATOM     40  C   UNL     1     112.156 125.797 138.066  0.00  0.00    +0.000 C 
ATOM     41  C   UNL     1     111.836 125.061 137.874  0.00  0.00    +0.000 C 
ATOM     42  C   UNL     1     112.184 124.600 137.285  0.00  0.00    +0.000 C 
ATOM     43  C   UNL     1     112.853 124.876 136.888  0.00  0.00    +0.000 C 
ATOM     44  C   UNL     1     113.173 125.611 137.079  0.00  0.00    +0.000 C 
ATOM     45  C   UNL     1     113.842 125.887 136.682  0.00  0.00    +0.000 C 
ENDBRANCH  35  40
ENDBRANCH  28  35
ENDBRANCH  24  31
ENDBRANCH   6  24
TORSDOF 7
ENDMDL
MODEL 10
REMARK VINA RESULT:      -9.7      6.670     10.141
REMARK  Name = 44260005
REMARK  7 active torsions:
REMARK  status: ('A' for Active; 'I' for Inactive)
REMARK    1  A    between atoms: O_1  and  C_18
REMARK    2  A    between atoms: O_1  and  C_21
REMARK    3  A    between atoms: O_5  and  C_22
REMARK    4  A    between atoms: O_5  and  C_30
REMARK    5  A    between atoms: O_16  and  C_42
REMARK    6  A    between atoms: C_24  and  C_28
REMARK    7  A    between atoms: C_37  and  C_39
REMARK                            x       y       z     vdW  Elec       q    Type
REMARK                         _______ _______ _______ _____ _____    ______ ____
ROOT
ATOM      1  O   UNL     1     111.594 128.743 137.425  0.00  0.00    +0.000 OA
ATOM      2  O   UNL     1     111.897 127.166 137.906  0.00  0.00    +0.000 OA
ATOM      3  O   UNL     1     109.280 126.998 139.119  0.00  0.00    +0.000 OA
ATOM      4  O   UNL     1     110.190 125.880 139.156  0.00  0.00    +0.000 OA
ATOM      5  O   UNL     1     111.642 125.186 138.790  0.00  0.00    +0.000 OA
ATOM      6  C   UNL     1     110.266 128.688 138.029  0.00  0.00    +0.000 A 
ATOM      7  C   UNL     1     111.020 128.322 137.841  0.00  0.00    +0.000 A 
ATOM      8  C   UNL     1     109.673 128.242 138.462  0.00  0.00    +0.000 A 
ATOM      9  C   UNL     1     111.172 127.513 138.090  0.00  0.00    +0.000 A 
ATOM     10  C   UNL     1     109.843 127.434 138.702  0.00  0.00    +0.000 A 
ATOM     11  C   UNL     1     110.603 127.084 138.506  0.00  0.00    +0.000 A 
ATOM     12  C   UNL     1     110.759 126.309 138.739  0.00  0.00    +0.000 A 
ATOM     13  C   UNL     1     112.054 126.391 138.140  0.00  0.00    +0.000 A 
ATOM     14  C   UNL     1     111.485 125.961 138.557  0.00  0.00    +0.000 A 
ENDROOT
BRANCH  13  16
ATOM     15  O   UNL     1     114.956 125.002 137.408  0.00  0.00    +0.000 OA
ATOM     16  C   UNL     1     112.780 126.044 137.957  0.00  0.00    +0.000 A 
ATOM     17  C   UNL     1     112.874 125.635 137.247  0.00  0.00    +0.000 A 
ATOM     18  C   UNL     1     113.411 126.105 138.484  0.00  0.00    +0.000 A 
ATOM     19  C   UNL     1     113.600 125.287 137.064  0.00  0.00    +0.000 A 
ATOM     20  C   UNL     1     114.137 125.758 138.302  0.00  0.00    +0.000 A 
ATOM     21  C   UNL     1     114.231 125.349 137.591  0.00  0.00    +0.000 A 
BRANCH  19  22
ATOM     22  O   UNL     1     113.694 124.878 136.353  0.00  0.00    +0.000 OA
ATOM     23  C   UNL     1     113.205 124.237 136.180  0.00  0.00    +0.000 C 
ENDBRANCH  19  22
ENDBRANCH  13  16
BRANCH   6  24
ATOM     24  O   UNL     1     110.111 129.464 137.794  0.00  0.00    +0.000 OA
BRANCH  24  31
ATOM     25  O   UNL     1     110.292 130.130 139.045  0.00  0.00    +0.000 OA
ATOM     26  O   UNL     1     108.258 131.476 138.622  0.00  0.00    +0.000 OA
ATOM     27  O   UNL     1     109.116 131.693 140.013  0.00  0.00    +0.000 OA
ATOM     28  C   UNL     1     109.184 130.470 138.207  0.00  0.00    +0.000 C 
ATOM     29  C   UNL     1     108.936 131.027 138.763  0.00  0.00    +0.000 C 
ATOM     30  C   UNL     1     109.365 131.136 139.458  0.00  0.00    +0.000 C 
ATOM     31  C   UNL     1     109.862 130.021 138.348  0.00  0.00    +0.000 C 
ATOM     32  C   UNL     1     110.043 130.688 139.599  0.00  0.00    +0.000 C 
BRANCH  32  34
ATOM     33  O   UNL     1     111.281 130.960 140.259  0.00  0.00    +0.000 OA
ATOM     34  C   UNL     1     110.472 130.797 140.295  0.00  0.00    +0.000 C 
ENDBRANCH  32  34
BRANCH  28  35
ATOM     35  O   UNL     1     108.755 130.361 137.512  0.00  0.00    +0.000 OA
BRANCH  35  40
ATOM     36  O   UNL     1     109.453 131.449 136.902  0.00  0.00    +0.000 OA
ATOM     37  O   UNL     1     107.755 130.270 136.203  0.00  0.00    +0.000 OA
ATOM     38  O   UNL     1     107.952 131.314 134.940  0.00  0.00    +0.000 OA
ATOM     39  O   UNL     1     109.150 132.447 134.986  0.00  0.00    +0.000 OA
ATOM     40  C   UNL     1     108.854 130.882 136.880  0.00  0.00    +0.000 C 
ATOM     41  C   UNL     1     108.353 130.837 136.225  0.00  0.00    +0.000 C 
ATOM     42  C   UNL     1     108.452 131.359 135.594  0.00  0.00    +0.000 C 
ATOM     43  C   UNL     1     109.052 131.925 135.617  0.00  0.00    +0.000 C 
ATOM     44  C   UNL     1     109.552 131.971 136.271  0.00  0.00    +0.000 C 
ATOM     45  C   UNL     1     110.151 132.537 136.295  0.00  0.00    +0.000 C 
ENDBRANCH  35  40
ENDBRANCH  28  35
ENDBRANCH  24  31
ENDBRANCH   6  24
TORSDOF 7
ENDMDL
