MODEL 1
REMARK VINA RESULT:      -7.8      0.000      0.000
REMARK  Name = null
REMARK  3 active torsions:
REMARK  status: ('A' for Active; 'I' for Inactive)
REMARK    1  A    between atoms: O_2  and  C_3
REMARK    2  A    between atoms: C_10  and  C_16
REMARK    3  A    between atoms: C_11  and  O_14
REMARK                            x       y       z     vdW  Elec       q    Type
REMARK                         _______ _______ _______ _____ _____    ______ ____
ROOT
ATOM      1  C   UNL     1     103.121 124.296 146.515  0.00  0.00    +0.000 A 
ATOM      2  C   UNL     1     103.378 124.811 147.106  0.00  0.00    +0.000 A 
ATOM      3  C   UNL     1     104.171 124.815 147.336  0.00  0.00    +0.000 A 
ATOM      4  C   UNL     1     104.708 124.302 146.973  0.00  0.00    +0.000 A 
ATOM      5  C   UNL     1     104.450 123.787 146.382  0.00  0.00    +0.000 A 
ATOM      6  C   UNL     1     103.658 123.783 146.152  0.00  0.00    +0.000 A 
ATOM      7  O   UNL     1     105.499 124.305 147.202  0.00  0.00    +0.000 OA
ATOM      8  C   UNL     1     105.756 124.820 147.793  0.00  0.00    +0.000 A 
ATOM      9  C   UNL     1     105.219 125.333 148.155  0.00  0.00    +0.000 A 
ATOM     10  C   UNL     1     104.427 125.329 147.926  0.00  0.00    +0.000 A 
ATOM     11  O   UNL     1     103.891 125.842 148.288  0.00  0.00    +0.000 OA
ENDROOT
BRANCH   8  12
ATOM     12  C   UNL     1     106.548 124.823 148.023  0.00  0.00    +0.000 A 
ATOM     13  C   UNL     1     107.107 125.224 147.568  0.00  0.00    +0.000 A 
ATOM     14  C   UNL     1     107.900 125.229 147.796  0.00  0.00    +0.000 A 
ATOM     15  C   UNL     1     108.134 124.831 148.481  0.00  0.00    +0.000 A 
ATOM     16  C   UNL     1     107.574 124.430 148.936  0.00  0.00    +0.000 A 
ATOM     17  C   UNL     1     106.782 124.427 148.707  0.00  0.00    +0.000 A 
ENDBRANCH   8  12
BRANCH   1  19
ATOM     18  C   UNL     1     101.899 123.590 146.299  0.00  0.00    +0.000 C 
ATOM     19  O   UNL     1     102.329 124.293 146.285  0.00  0.00    +0.000 OA
ENDBRANCH   1  19
BRANCH   9  20
ATOM     20  O   UNL     1     105.476 125.848 148.747  0.00  0.00    +0.000 OA
ATOM     21  C   UNL     1     104.970 126.433 149.032  0.00  0.00    +0.000 C 
ENDBRANCH   9  20
TORSDOF 3
ENDMDL
MODEL 2
REMARK VINA RESULT:      -7.7     12.894     13.429
REMARK  Name = null
REMARK  3 active torsions:
REMARK  status: ('A' for Active; 'I' for Inactive)
REMARK    1  A    between atoms: O_2  and  C_3
REMARK    2  A    between atoms: C_10  and  C_16
REMARK    3  A    between atoms: C_11  and  O_14
REMARK                            x       y       z     vdW  Elec       q    Type
REMARK                         _______ _______ _______ _____ _____    ______ ____
ROOT
ATOM      1  C   UNL     1     110.153 126.271 135.359  0.00  0.00    +0.000 A 
ATOM      2  C   UNL     1     110.434 125.535 135.606  0.00  0.00    +0.000 A 
ATOM      3  C   UNL     1     111.200 125.463 135.902  0.00  0.00    +0.000 A 
ATOM      4  C   UNL     1     111.688 126.128 135.951  0.00  0.00    +0.000 A 
ATOM      5  C   UNL     1     111.407 126.864 135.705  0.00  0.00    +0.000 A 
ATOM      6  C   UNL     1     110.640 126.936 135.409  0.00  0.00    +0.000 A 
ATOM      7  O   UNL     1     112.454 126.056 136.247  0.00  0.00    +0.000 OA
ATOM      8  C   UNL     1     112.734 125.321 136.493  0.00  0.00    +0.000 A 
ATOM      9  C   UNL     1     112.247 124.656 136.443  0.00  0.00    +0.000 A 
ATOM     10  C   UNL     1     111.481 124.728 136.148  0.00  0.00    +0.000 A 
ATOM     11  O   UNL     1     110.994 124.063 136.098  0.00  0.00    +0.000 OA
ENDROOT
BRANCH   8  12
ATOM     12  C   UNL     1     113.501 125.249 136.789  0.00  0.00    +0.000 A 
ATOM     13  C   UNL     1     114.119 125.041 136.284  0.00  0.00    +0.000 A 
ATOM     14  C   UNL     1     114.886 124.969 136.578  0.00  0.00    +0.000 A 
ATOM     15  C   UNL     1     115.035 125.104 137.379  0.00  0.00    +0.000 A 
ATOM     16  C   UNL     1     114.416 125.311 137.884  0.00  0.00    +0.000 A 
ATOM     17  C   UNL     1     113.649 125.384 137.588  0.00  0.00    +0.000 A 
ENDBRANCH   8  12
BRANCH   1  19
ATOM     18  C   UNL     1     108.855 126.865 135.417  0.00  0.00    +0.000 C 
ATOM     19  O   UNL     1     109.387 126.343 135.064  0.00  0.00    +0.000 OA
ENDBRANCH   1  19
BRANCH   9  20
ATOM     20  O   UNL     1     112.528 123.920 136.690  0.00  0.00    +0.000 OA
ATOM     21  C   UNL     1     111.996 123.331 136.916  0.00  0.00    +0.000 C 
ENDBRANCH   9  20
TORSDOF 3
ENDMDL
MODEL 3
REMARK VINA RESULT:      -7.7     10.739     12.320
REMARK  Name = null
REMARK  3 active torsions:
REMARK  status: ('A' for Active; 'I' for Inactive)
REMARK    1  A    between atoms: O_2  and  C_3
REMARK    2  A    between atoms: C_10  and  C_16
REMARK    3  A    between atoms: C_11  and  O_14
REMARK                            x       y       z     vdW  Elec       q    Type
REMARK                         _______ _______ _______ _____ _____    ______ ____
ROOT
ATOM      1  C   UNL     1     112.665 127.210 141.001  0.00  0.00    +0.000 A 
ATOM      2  C   UNL     1     112.272 126.781 140.415  0.00  0.00    +0.000 A 
ATOM      3  C   UNL     1     112.680 126.528 139.744  0.00  0.00    +0.000 A 
ATOM      4  C   UNL     1     113.483 126.703 139.658  0.00  0.00    +0.000 A 
ATOM      5  C   UNL     1     113.876 127.131 140.244  0.00  0.00    +0.000 A 
ATOM      6  C   UNL     1     113.468 127.385 140.915  0.00  0.00    +0.000 A 
ATOM      7  O   UNL     1     113.890 126.450 138.988  0.00  0.00    +0.000 OA
ATOM      8  C   UNL     1     113.497 126.023 138.403  0.00  0.00    +0.000 A 
ATOM      9  C   UNL     1     112.695 125.847 138.488  0.00  0.00    +0.000 A 
ATOM     10  C   UNL     1     112.287 126.100 139.159  0.00  0.00    +0.000 A 
ATOM     11  O   UNL     1     111.485 125.925 139.244  0.00  0.00    +0.000 OA
ENDROOT
BRANCH   8  12
ATOM     12  C   UNL     1     113.905 125.769 137.732  0.00  0.00    +0.000 A 
ATOM     13  C   UNL     1     114.307 125.049 137.741  0.00  0.00    +0.000 A 
ATOM     14  C   UNL     1     114.715 124.795 137.071  0.00  0.00    +0.000 A 
ATOM     15  C   UNL     1     114.721 125.261 136.390  0.00  0.00    +0.000 A 
ATOM     16  C   UNL     1     114.318 125.982 136.380  0.00  0.00    +0.000 A 
ATOM     17  C   UNL     1     113.911 126.235 137.051  0.00  0.00    +0.000 A 
ENDBRANCH   8  12
BRANCH   1  19
ATOM     18  C   UNL     1     112.280 128.256 141.893  0.00  0.00    +0.000 C 
ATOM     19  O   UNL     1     112.258 127.462 141.671  0.00  0.00    +0.000 OA
ENDBRANCH   1  19
BRANCH   9  20
ATOM     20  O   UNL     1     112.302 125.419 137.903  0.00  0.00    +0.000 OA
ATOM     21  C   UNL     1     111.490 125.285 137.965  0.00  0.00    +0.000 C 
ENDBRANCH   9  20
TORSDOF 3
ENDMDL
MODEL 4
REMARK VINA RESULT:      -7.6     12.893     13.546
REMARK  Name = null
REMARK  3 active torsions:
REMARK  status: ('A' for Active; 'I' for Inactive)
REMARK    1  A    between atoms: O_2  and  C_3
REMARK    2  A    between atoms: C_10  and  C_16
REMARK    3  A    between atoms: C_11  and  O_14
REMARK                            x       y       z     vdW  Elec       q    Type
REMARK                         _______ _______ _______ _____ _____    ______ ____
ROOT
ATOM      1  C   UNL     1     110.103 126.566 135.404  0.00  0.00    +0.000 A 
ATOM      2  C   UNL     1     110.751 127.033 135.613  0.00  0.00    +0.000 A 
ATOM      3  C   UNL     1     111.441 126.680 135.897  0.00  0.00    +0.000 A 
ATOM      4  C   UNL     1     111.483 125.859 135.974  0.00  0.00    +0.000 A 
ATOM      5  C   UNL     1     110.835 125.392 135.765  0.00  0.00    +0.000 A 
ATOM      6  C   UNL     1     110.146 125.745 135.480  0.00  0.00    +0.000 A 
ATOM      7  O   UNL     1     112.172 125.507 136.258  0.00  0.00    +0.000 OA
ATOM      8  C   UNL     1     112.818 125.973 136.466  0.00  0.00    +0.000 A 
ATOM      9  C   UNL     1     112.776 126.795 136.390  0.00  0.00    +0.000 A 
ATOM     10  C   UNL     1     112.088 127.147 136.106  0.00  0.00    +0.000 A 
ATOM     11  O   UNL     1     112.045 127.968 136.030  0.00  0.00    +0.000 OA
ENDROOT
BRANCH   8  12
ATOM     12  C   UNL     1     113.508 125.621 136.751  0.00  0.00    +0.000 A 
ATOM     13  C   UNL     1     113.620 125.531 137.563  0.00  0.00    +0.000 A 
ATOM     14  C   UNL     1     114.309 125.179 137.849  0.00  0.00    +0.000 A 
ATOM     15  C   UNL     1     114.887 124.916 137.321  0.00  0.00    +0.000 A 
ATOM     16  C   UNL     1     114.775 125.006 136.509  0.00  0.00    +0.000 A 
ATOM     17  C   UNL     1     114.086 125.359 136.224  0.00  0.00    +0.000 A 
ENDBRANCH   8  12
BRANCH   1  19
ATOM     18  C   UNL     1     108.739 126.944 135.592  0.00  0.00    +0.000 C 
ATOM     19  O   UNL     1     109.415 126.919 135.120  0.00  0.00    +0.000 OA
ENDBRANCH   1  19
BRANCH   9  20
ATOM     20  O   UNL     1     113.424 127.262 136.599  0.00  0.00    +0.000 OA
ATOM     21  C   UNL     1     113.433 128.064 136.406  0.00  0.00    +0.000 C 
ENDBRANCH   9  20
TORSDOF 3
ENDMDL
MODEL 5
REMARK VINA RESULT:      -7.5     11.628     12.413
REMARK  Name = null
REMARK  3 active torsions:
REMARK  status: ('A' for Active; 'I' for Inactive)
REMARK    1  A    between atoms: O_2  and  C_3
REMARK    2  A    between atoms: C_10  and  C_16
REMARK    3  A    between atoms: C_11  and  O_14
REMARK                            x       y       z     vdW  Elec       q    Type
REMARK                         _______ _______ _______ _____ _____    ______ ____
ROOT
ATOM      1  C   UNL     1     109.023 127.060 135.951  0.00  0.00    +0.000 A 
ATOM      2  C   UNL     1     109.347 126.847 136.679  0.00  0.00    +0.000 A 
ATOM      3  C   UNL     1     109.983 126.322 136.712  0.00  0.00    +0.000 A 
ATOM      4  C   UNL     1     110.295 126.008 136.014  0.00  0.00    +0.000 A 
ATOM      5  C   UNL     1     109.971 126.221 135.286  0.00  0.00    +0.000 A 
ATOM      6  C   UNL     1     109.335 126.746 135.253  0.00  0.00    +0.000 A 
ATOM      7  O   UNL     1     110.930 125.484 136.046  0.00  0.00    +0.000 OA
ATOM      8  C   UNL     1     111.253 125.271 136.774  0.00  0.00    +0.000 A 
ATOM      9  C   UNL     1     110.941 125.584 137.472  0.00  0.00    +0.000 A 
ATOM     10  C   UNL     1     110.306 126.109 137.440  0.00  0.00    +0.000 A 
ATOM     11  O   UNL     1     109.994 126.422 138.137  0.00  0.00    +0.000 OA
ENDROOT
BRANCH   8  12
ATOM     12  C   UNL     1     111.889 124.746 136.807  0.00  0.00    +0.000 A 
ATOM     13  C   UNL     1     111.751 123.938 136.898  0.00  0.00    +0.000 A 
ATOM     14  C   UNL     1     112.386 123.412 136.931  0.00  0.00    +0.000 A 
ATOM     15  C   UNL     1     113.159 123.695 136.872  0.00  0.00    +0.000 A 
ATOM     16  C   UNL     1     113.297 124.503 136.780  0.00  0.00    +0.000 A 
ATOM     17  C   UNL     1     112.661 125.028 136.748  0.00  0.00    +0.000 A 
ENDBRANCH   8  12
BRANCH   1  19
ATOM     18  C   UNL     1     108.520 128.383 135.764  0.00  0.00    +0.000 C 
ATOM     19  O   UNL     1     108.388 127.584 135.919  0.00  0.00    +0.000 OA
ENDBRANCH   1  19
BRANCH   9  20
ATOM     20  O   UNL     1     111.265 125.372 138.200  0.00  0.00    +0.000 OA
ATOM     21  C   UNL     1     111.046 125.779 138.884  0.00  0.00    +0.000 C 
ENDBRANCH   9  20
TORSDOF 3
ENDMDL
MODEL 6
REMARK VINA RESULT:      -7.4     13.095     13.916
REMARK  Name = null
REMARK  3 active torsions:
REMARK  status: ('A' for Active; 'I' for Inactive)
REMARK    1  A    between atoms: O_2  and  C_3
REMARK    2  A    between atoms: C_10  and  C_16
REMARK    3  A    between atoms: C_11  and  O_14
REMARK                            x       y       z     vdW  Elec       q    Type
REMARK                         _______ _______ _______ _____ _____    ______ ____
ROOT
ATOM      1  C   UNL     1     111.396 128.607 135.298  0.00  0.00    +0.000 A 
ATOM      2  C   UNL     1     111.247 127.808 135.444  0.00  0.00    +0.000 A 
ATOM      3  C   UNL     1     111.827 127.337 135.793  0.00  0.00    +0.000 A 
ATOM      4  C   UNL     1     112.558 127.664 135.996  0.00  0.00    +0.000 A 
ATOM      5  C   UNL     1     112.707 128.462 135.850  0.00  0.00    +0.000 A 
ATOM      6  C   UNL     1     112.126 128.934 135.501  0.00  0.00    +0.000 A 
ATOM      7  O   UNL     1     113.138 127.193 136.345  0.00  0.00    +0.000 OA
ATOM      8  C   UNL     1     112.989 126.396 136.491  0.00  0.00    +0.000 A 
ATOM      9  C   UNL     1     112.258 126.068 136.288  0.00  0.00    +0.000 A 
ATOM     10  C   UNL     1     111.678 126.539 135.939  0.00  0.00    +0.000 A 
ATOM     11  O   UNL     1     110.948 126.212 135.736  0.00  0.00    +0.000 OA
ENDROOT
BRANCH   8  12
ATOM     12  C   UNL     1     113.569 125.924 136.840  0.00  0.00    +0.000 A 
ATOM     13  C   UNL     1     114.100 125.506 136.366  0.00  0.00    +0.000 A 
ATOM     14  C   UNL     1     114.680 125.034 136.714  0.00  0.00    +0.000 A 
ATOM     15  C   UNL     1     114.729 124.980 137.537  0.00  0.00    +0.000 A 
ATOM     16  C   UNL     1     114.199 125.398 138.010  0.00  0.00    +0.000 A 
ATOM     17  C   UNL     1     113.618 125.870 137.661  0.00  0.00    +0.000 A 
ENDBRANCH   8  12
BRANCH   1  19
ATOM     18  C   UNL     1     110.617 129.804 135.285  0.00  0.00    +0.000 C 
ATOM     19  O   UNL     1     110.816 129.078 134.949  0.00  0.00    +0.000 OA
ENDBRANCH   1  19
BRANCH   9  20
ATOM     20  O   UNL     1     112.109 125.270 136.434  0.00  0.00    +0.000 OA
ATOM     21  C   UNL     1     111.378 124.944 136.235  0.00  0.00    +0.000 C 
ENDBRANCH   9  20
TORSDOF 3
ENDMDL
MODEL 7
REMARK VINA RESULT:      -7.3      7.558      8.728
REMARK  Name = null
REMARK  3 active torsions:
REMARK  status: ('A' for Active; 'I' for Inactive)
REMARK    1  A    between atoms: O_2  and  C_3
REMARK    2  A    between atoms: C_10  and  C_16
REMARK    3  A    between atoms: C_11  and  O_14
REMARK                            x       y       z     vdW  Elec       q    Type
REMARK                         _______ _______ _______ _____ _____    ______ ____
ROOT
ATOM      1  C   UNL     1     104.771 128.148 142.304  0.00  0.00    +0.000 A 
ATOM      2  C   UNL     1     104.287 128.329 141.660  0.00  0.00    +0.000 A 
ATOM      3  C   UNL     1     103.822 129.011 141.671  0.00  0.00    +0.000 A 
ATOM      4  C   UNL     1     103.841 129.513 142.327  0.00  0.00    +0.000 A 
ATOM      5  C   UNL     1     104.325 129.332 142.970  0.00  0.00    +0.000 A 
ATOM      6  C   UNL     1     104.790 128.651 142.959  0.00  0.00    +0.000 A 
ATOM      7  O   UNL     1     103.376 130.194 142.338  0.00  0.00    +0.000 OA
ATOM      8  C   UNL     1     102.893 130.374 141.695  0.00  0.00    +0.000 A 
ATOM      9  C   UNL     1     102.874 129.872 141.039  0.00  0.00    +0.000 A 
ATOM     10  C   UNL     1     103.338 129.191 141.028  0.00  0.00    +0.000 A 
ATOM     11  O   UNL     1     103.319 128.690 140.373  0.00  0.00    +0.000 OA
ENDROOT
BRANCH   8  12
ATOM     12  C   UNL     1     102.428 131.056 141.705  0.00  0.00    +0.000 A 
ATOM     13  C   UNL     1     102.745 131.775 141.454  0.00  0.00    +0.000 A 
ATOM     14  C   UNL     1     102.281 132.457 141.464  0.00  0.00    +0.000 A 
ATOM     15  C   UNL     1     101.499 132.419 141.726  0.00  0.00    +0.000 A 
ATOM     16  C   UNL     1     101.182 131.701 141.978  0.00  0.00    +0.000 A 
ATOM     17  C   UNL     1     101.647 131.019 141.967  0.00  0.00    +0.000 A 
ENDBRANCH   8  12
BRANCH   1  19
ATOM     18  C   UNL     1     105.570 127.185 142.991  0.00  0.00    +0.000 C 
ATOM     19  O   UNL     1     105.235 127.467 142.293  0.00  0.00    +0.000 OA
ENDBRANCH   1  19
BRANCH   9  20
ATOM     20  O   UNL     1     102.390 130.053 140.396  0.00  0.00    +0.000 OA
ATOM     21  C   UNL     1     102.264 129.492 139.804  0.00  0.00    +0.000 C 
ENDBRANCH   9  20
TORSDOF 3
ENDMDL
MODEL 8
REMARK VINA RESULT:      -7.3     12.698     14.044
REMARK  Name = null
REMARK  3 active torsions:
REMARK  status: ('A' for Active; 'I' for Inactive)
REMARK    1  A    between atoms: O_2  and  C_3
REMARK    2  A    between atoms: C_10  and  C_16
REMARK    3  A    between atoms: C_11  and  O_14
REMARK                            x       y       z     vdW  Elec       q    Type
REMARK                         _______ _______ _______ _____ _____    ______ ____
ROOT
ATOM      1  C   UNL     1     113.390 129.581 136.371  0.00  0.00    +0.000 A 
ATOM      2  C   UNL     1     113.085 129.106 136.973  0.00  0.00    +0.000 A 
ATOM      3  C   UNL     1     113.226 128.293 136.970  0.00  0.00    +0.000 A 
ATOM      4  C   UNL     1     113.674 127.954 136.363  0.00  0.00    +0.000 A 
ATOM      5  C   UNL     1     113.979 128.429 135.762  0.00  0.00    +0.000 A 
ATOM      6  C   UNL     1     113.838 129.242 135.765  0.00  0.00    +0.000 A 
ATOM      7  O   UNL     1     113.815 127.142 136.360  0.00  0.00    +0.000 OA
ATOM      8  C   UNL     1     113.510 126.668 136.961  0.00  0.00    +0.000 A 
ATOM      9  C   UNL     1     113.063 127.007 137.568  0.00  0.00    +0.000 A 
ATOM     10  C   UNL     1     112.922 127.819 137.571  0.00  0.00    +0.000 A 
ATOM     11  O   UNL     1     112.475 128.157 138.177  0.00  0.00    +0.000 OA
ENDROOT
BRANCH   8  12
ATOM     12  C   UNL     1     113.651 125.855 136.958  0.00  0.00    +0.000 A 
ATOM     13  C   UNL     1     114.322 125.552 137.330  0.00  0.00    +0.000 A 
ATOM     14  C   UNL     1     114.464 124.739 137.328  0.00  0.00    +0.000 A 
ATOM     15  C   UNL     1     113.934 124.229 136.953  0.00  0.00    +0.000 A 
ATOM     16  C   UNL     1     113.263 124.532 136.581  0.00  0.00    +0.000 A 
ATOM     17  C   UNL     1     113.122 125.345 136.584  0.00  0.00    +0.000 A 
ENDBRANCH   8  12
BRANCH   1  19
ATOM     18  C   UNL     1     113.876 130.921 136.466  0.00  0.00    +0.000 C 
ATOM     19  O   UNL     1     113.249 130.393 136.374  0.00  0.00    +0.000 OA
ENDBRANCH   1  19
BRANCH   9  20
ATOM     20  O   UNL     1     112.758 126.531 138.170  0.00  0.00    +0.000 OA
ATOM     21  C   UNL     1     112.327 126.872 138.785  0.00  0.00    +0.000 C 
ENDBRANCH   9  20
TORSDOF 3
ENDMDL
MODEL 9
REMARK VINA RESULT:      -7.2      1.030      4.342
REMARK  Name = null
REMARK  3 active torsions:
REMARK  status: ('A' for Active; 'I' for Inactive)
REMARK    1  A    between atoms: O_2  and  C_3
REMARK    2  A    between atoms: C_10  and  C_16
REMARK    3  A    between atoms: C_11  and  O_14
REMARK                            x       y       z     vdW  Elec       q    Type
REMARK                         _______ _______ _______ _____ _____    ______ ____
ROOT
ATOM      1  C   UNL     1     105.961 124.991 147.517  0.00  0.00    +0.000 A 
ATOM      2  C   UNL     1     105.629 124.613 146.863  0.00  0.00    +0.000 A 
ATOM      3  C   UNL     1     104.836 124.385 146.875  0.00  0.00    +0.000 A 
ATOM      4  C   UNL     1     104.374 124.536 147.543  0.00  0.00    +0.000 A 
ATOM      5  C   UNL     1     104.707 124.913 148.197  0.00  0.00    +0.000 A 
ATOM      6  C   UNL     1     105.500 125.141 148.185  0.00  0.00    +0.000 A 
ATOM      7  O   UNL     1     103.582 124.308 147.556  0.00  0.00    +0.000 OA
ATOM      8  C   UNL     1     103.251 123.931 146.903  0.00  0.00    +0.000 A 
ATOM      9  C   UNL     1     103.712 123.781 146.235  0.00  0.00    +0.000 A 
ATOM     10  C   UNL     1     104.505 124.008 146.222  0.00  0.00    +0.000 A 
ATOM     11  O   UNL     1     104.966 123.858 145.554  0.00  0.00    +0.000 OA
ENDROOT
BRANCH   8  12
ATOM     12  C   UNL     1     102.458 123.703 146.915  0.00  0.00    +0.000 A 
ATOM     13  C   UNL     1     101.878 124.212 146.623  0.00  0.00    +0.000 A 
ATOM     14  C   UNL     1     101.085 123.985 146.635  0.00  0.00    +0.000 A 
ATOM     15  C   UNL     1     100.872 123.248 146.940  0.00  0.00    +0.000 A 
ATOM     16  C   UNL     1     101.451 122.739 147.232  0.00  0.00    +0.000 A 
ATOM     17  C   UNL     1     102.244 122.967 147.220  0.00  0.00    +0.000 A 
ENDBRANCH   8  12
BRANCH   1  19
ATOM     18  C   UNL     1     107.258 124.991 148.115  0.00  0.00    +0.000 C 
ATOM     19  O   UNL     1     106.754 125.219 147.504  0.00  0.00    +0.000 OA
ENDBRANCH   1  19
BRANCH   9  20
ATOM     20  O   UNL     1     103.380 123.403 145.580  0.00  0.00    +0.000 OA
ATOM     21  C   UNL     1     103.868 123.067 145.007  0.00  0.00    +0.000 C 
ENDBRANCH   9  20
TORSDOF 3
ENDMDL
MODEL 10
REMARK VINA RESULT:      -7.2      1.167      2.196
REMARK  Name = null
REMARK  3 active torsions:
REMARK  status: ('A' for Active; 'I' for Inactive)
REMARK    1  A    between atoms: O_2  and  C_3
REMARK    2  A    between atoms: C_10  and  C_16
REMARK    3  A    between atoms: C_11  and  O_14
REMARK                            x       y       z     vdW  Elec       q    Type
REMARK                         _______ _______ _______ _____ _____    ______ ____
ROOT
ATOM      1  C   UNL     1     102.370 123.143 146.129  0.00  0.00    +0.000 A 
ATOM      2  C   UNL     1     103.083 123.345 145.767  0.00  0.00    +0.000 A 
ATOM      3  C   UNL     1     103.663 123.750 146.193  0.00  0.00    +0.000 A 
ATOM      4  C   UNL     1     103.528 123.953 146.982  0.00  0.00    +0.000 A 
ATOM      5  C   UNL     1     102.815 123.751 147.344  0.00  0.00    +0.000 A 
ATOM      6  C   UNL     1     102.235 123.347 146.918  0.00  0.00    +0.000 A 
ATOM      7  O   UNL     1     104.107 124.358 147.408  0.00  0.00    +0.000 OA
ATOM      8  C   UNL     1     104.820 124.559 147.047  0.00  0.00    +0.000 A 
ATOM      9  C   UNL     1     104.954 124.356 146.258  0.00  0.00    +0.000 A 
ATOM     10  C   UNL     1     104.376 123.951 145.832  0.00  0.00    +0.000 A 
ATOM     11  O   UNL     1     104.510 123.748 145.044  0.00  0.00    +0.000 OA
ENDROOT
BRANCH   8  12
ATOM     12  C   UNL     1     105.399 124.964 147.473  0.00  0.00    +0.000 A 
ATOM     13  C   UNL     1     105.987 124.543 147.870  0.00  0.00    +0.000 A 
ATOM     14  C   UNL     1     106.567 124.947 148.296  0.00  0.00    +0.000 A 
ATOM     15  C   UNL     1     106.559 125.772 148.324  0.00  0.00    +0.000 A 
ATOM     16  C   UNL     1     105.971 126.192 147.926  0.00  0.00    +0.000 A 
ATOM     17  C   UNL     1     105.392 125.788 147.501  0.00  0.00    +0.000 A 
ENDBRANCH   8  12
BRANCH   1  19
ATOM     18  C   UNL     1     101.043 123.072 145.605  0.00  0.00    +0.000 C 
ATOM     19  O   UNL     1     101.791 122.739 145.703  0.00  0.00    +0.000 OA
ENDBRANCH   1  19
BRANCH   9  20
ATOM     20  O   UNL     1     105.668 124.558 145.896  0.00  0.00    +0.000 OA
ATOM     21  C   UNL     1     105.718 124.591 145.073  0.00  0.00    +0.000 C 
ENDBRANCH   9  20
TORSDOF 3
ENDMDL
