MODEL 1
REMARK VINA RESULT:     -10.3      0.000      0.000
REMARK  Name = 44257155
REMARK  3 active torsions:
REMARK  status: ('A' for Active; 'I' for Inactive)
REMARK    1  A    between atoms: O_1  and  C_12
REMARK    2  A    between atoms: O_1  and  C_13
REMARK    3  A    between atoms: C_18  and  C_22
REMARK                            x       y       z     vdW  Elec       q    Type
REMARK                         _______ _______ _______ _____ _____    ______ ____
ROOT
ATOM      1  O   UNL     1     105.631 124.423 147.727  0.00  0.00    +0.000 OA
ATOM      2  O   UNL     1     107.050 125.601 146.076  0.00  0.00    +0.000 OA
ATOM      3  O   UNL     1     108.171 125.582 146.984  0.00  0.00    +0.000 OA
ATOM      4  O   UNL     1     107.850 124.347 149.611  0.00  0.00    +0.000 OA
ATOM      5  C   UNL     1     105.793 125.028 146.442  0.00  0.00    +0.000 C 
ATOM      6  C   UNL     1     105.321 124.635 146.992  0.00  0.00    +0.000 C 
ATOM      7  C   UNL     1     106.578 125.208 146.627  0.00  0.00    +0.000 C 
ATOM      8  C   UNL     1     106.888 124.996 147.361  0.00  0.00    +0.000 A 
ATOM      9  C   UNL     1     106.414 124.603 147.910  0.00  0.00    +0.000 A 
ATOM     10  C   UNL     1     107.705 125.189 147.541  0.00  0.00    +0.000 A 
ATOM     11  C   UNL     1     106.726 124.376 148.678  0.00  0.00    +0.000 A 
ATOM     12  C   UNL     1     108.035 124.970 148.303  0.00  0.00    +0.000 A 
ATOM     13  C   UNL     1     107.542 124.561 148.876  0.00  0.00    +0.000 A 
ENDROOT
BRANCH   6  16
ATOM     14  O   UNL     1     102.524 125.102 147.351  0.00  0.00    +0.000 OA
ATOM     15  O   UNL     1     102.185 123.916 146.255  0.00  0.00    +0.000 OA
ATOM     16  C   UNL     1     104.536 124.455 146.808  0.00  0.00    +0.000 A 
ATOM     17  C   UNL     1     103.922 124.869 147.172  0.00  0.00    +0.000 A 
ATOM     18  C   UNL     1     104.367 123.862 146.260  0.00  0.00    +0.000 A 
ATOM     19  C   UNL     1     103.138 124.689 146.987  0.00  0.00    +0.000 A 
ATOM     20  C   UNL     1     103.584 123.682 146.076  0.00  0.00    +0.000 A 
ATOM     21  C   UNL     1     102.969 124.095 146.439  0.00  0.00    +0.000 A 
ENDBRANCH   6  16
BRANCH   5  22
ATOM     22  O   UNL     1     105.483 125.241 145.708  0.00  0.00    +0.000 OA
BRANCH  22  27
ATOM     23  O   UNL     1     105.362 126.627 146.035  0.00  0.00    +0.000 OA
ATOM     24  O   UNL     1     105.712 125.635 144.122  0.00  0.00    +0.000 OA
ATOM     25  O   UNL     1     105.706 127.218 143.657  0.00  0.00    +0.000 OA
ATOM     26  O   UNL     1     105.470 128.407 144.777  0.00  0.00    +0.000 OA
ATOM     27  C   UNL     1     105.479 126.033 145.476  0.00  0.00    +0.000 C 
ATOM     28  C   UNL     1     105.594 126.230 144.683  0.00  0.00    +0.000 C 
ATOM     29  C   UNL     1     105.591 127.021 144.450  0.00  0.00    +0.000 C 
ATOM     30  C   UNL     1     105.473 127.615 145.010  0.00  0.00    +0.000 C 
ATOM     31  C   UNL     1     105.358 127.417 145.803  0.00  0.00    +0.000 C 
ATOM     32  C   UNL     1     105.240 128.012 146.362  0.00  0.00    +0.000 C 
ENDBRANCH  22  27
ENDBRANCH   5  22
TORSDOF 3
ENDMDL
MODEL 2
REMARK VINA RESULT:     -10.2      1.494      4.052
REMARK  Name = 44257155
REMARK  3 active torsions:
REMARK  status: ('A' for Active; 'I' for Inactive)
REMARK    1  A    between atoms: O_1  and  C_12
REMARK    2  A    between atoms: O_1  and  C_13
REMARK    3  A    between atoms: C_18  and  C_22
REMARK                            x       y       z     vdW  Elec       q    Type
REMARK                         _______ _______ _______ _____ _____    ______ ____
ROOT
ATOM      1  O   UNL     1     103.750 125.771 147.295  0.00  0.00    +0.000 OA
ATOM      2  O   UNL     1     105.674 124.440 146.487  0.00  0.00    +0.000 OA
ATOM      3  O   UNL     1     104.801 123.356 146.106  0.00  0.00    +0.000 OA
ATOM      4  O   UNL     1     101.927 123.624 146.551  0.00  0.00    +0.000 OA
ATOM      5  C   UNL     1     105.155 125.635 147.075  0.00  0.00    +0.000 C 
ATOM      6  C   UNL     1     104.514 126.078 147.344  0.00  0.00    +0.000 C 
ATOM      7  C   UNL     1     105.032 124.883 146.756  0.00  0.00    +0.000 C 
ATOM      8  C   UNL     1     104.268 124.576 146.707  0.00  0.00    +0.000 A 
ATOM      9  C   UNL     1     103.627 125.020 146.977  0.00  0.00    +0.000 A 
ATOM     10  C   UNL     1     104.153 123.793 146.373  0.00  0.00    +0.000 A 
ATOM     11  C   UNL     1     102.827 124.711 146.930  0.00  0.00    +0.000 A 
ATOM     12  C   UNL     1     103.360 123.467 146.319  0.00  0.00    +0.000 A 
ATOM     13  C   UNL     1     102.692 123.929 146.600  0.00  0.00    +0.000 A 
ENDROOT
BRANCH   6  16
ATOM     14  O   UNL     1     104.650 127.812 149.612  0.00  0.00    +0.000 OA
ATOM     15  O   UNL     1     105.005 129.082 148.619  0.00  0.00    +0.000 OA
ATOM     16  C   UNL     1     104.637 126.830 147.663  0.00  0.00    +0.000 A 
ATOM     17  C   UNL     1     104.582 126.945 148.478  0.00  0.00    +0.000 A 
ATOM     18  C   UNL     1     104.814 127.464 147.167  0.00  0.00    +0.000 A 
ATOM     19  C   UNL     1     104.705 127.697 148.797  0.00  0.00    +0.000 A 
ATOM     20  C   UNL     1     104.937 128.215 147.486  0.00  0.00    +0.000 A 
ATOM     21  C   UNL     1     104.883 128.332 148.301  0.00  0.00    +0.000 A 
ENDBRANCH   6  16
BRANCH   5  22
ATOM     22  O   UNL     1     105.919 125.942 147.125  0.00  0.00    +0.000 OA
BRANCH  22  27
ATOM     23  O   UNL     1     106.273 125.138 148.252  0.00  0.00    +0.000 OA
ATOM     24  O   UNL     1     107.504 125.995 146.666  0.00  0.00    +0.000 OA
ATOM     25  O   UNL     1     108.649 125.218 147.564  0.00  0.00    +0.000 OA
ATOM     26  O   UNL     1     108.210 124.388 148.921  0.00  0.00    +0.000 OA
ATOM     27  C   UNL     1     106.492 125.553 147.574  0.00  0.00    +0.000 C 
ATOM     28  C   UNL     1     107.284 125.580 147.345  0.00  0.00    +0.000 C 
ATOM     29  C   UNL     1     107.857 125.191 147.794  0.00  0.00    +0.000 C 
ATOM     30  C   UNL     1     107.637 124.777 148.472  0.00  0.00    +0.000 C 
ATOM     31  C   UNL     1     106.845 124.750 148.701  0.00  0.00    +0.000 C 
ATOM     32  C   UNL     1     106.626 124.335 149.380  0.00  0.00    +0.000 C 
ENDBRANCH  22  27
ENDBRANCH   5  22
TORSDOF 3
ENDMDL
MODEL 3
REMARK VINA RESULT:      -9.7     11.800     12.955
REMARK  Name = 44257155
REMARK  3 active torsions:
REMARK  status: ('A' for Active; 'I' for Inactive)
REMARK    1  A    between atoms: O_1  and  C_12
REMARK    2  A    between atoms: O_1  and  C_13
REMARK    3  A    between atoms: C_18  and  C_22
REMARK                            x       y       z     vdW  Elec       q    Type
REMARK                         _______ _______ _______ _____ _____    ______ ____
ROOT
ATOM      1  O   UNL     1     111.940 125.712 136.102  0.00  0.00    +0.000 OA
ATOM      2  O   UNL     1     111.398 128.047 136.719  0.00  0.00    +0.000 OA
ATOM      3  O   UNL     1     110.151 127.978 135.997  0.00  0.00    +0.000 OA
ATOM      4  O   UNL     1     109.439 125.501 134.624  0.00  0.00    +0.000 OA
ATOM      5  C   UNL     1     112.284 126.927 136.772  0.00  0.00    +0.000 C 
ATOM      6  C   UNL     1     112.464 126.149 136.566  0.00  0.00    +0.000 C 
ATOM      7  C   UNL     1     111.578 127.269 136.513  0.00  0.00    +0.000 C 
ATOM      8  C   UNL     1     111.054 126.832 136.049  0.00  0.00    +0.000 A 
ATOM      9  C   UNL     1     111.235 126.054 135.844  0.00  0.00    +0.000 A 
ATOM     10  C   UNL     1     110.323 127.199 135.786  0.00  0.00    +0.000 A 
ATOM     11  C   UNL     1     110.697 125.590 135.361  0.00  0.00    +0.000 A 
ATOM     12  C   UNL     1     109.773 126.750 135.303  0.00  0.00    +0.000 A 
ATOM     13  C   UNL     1     109.961 125.940 135.088  0.00  0.00    +0.000 A 
ENDROOT
BRANCH   6  16
ATOM     14  O   UNL     1     115.112 125.223 136.018  0.00  0.00    +0.000 OA
ATOM     15  O   UNL     1     115.285 124.782 137.598  0.00  0.00    +0.000 OA
ATOM     16  C   UNL     1     113.170 125.807 136.824  0.00  0.00    +0.000 A 
ATOM     17  C   UNL     1     113.788 125.686 136.292  0.00  0.00    +0.000 A 
ATOM     18  C   UNL     1     113.256 125.586 137.614  0.00  0.00    +0.000 A 
ATOM     19  C   UNL     1     114.494 125.344 136.550  0.00  0.00    +0.000 A 
ATOM     20  C   UNL     1     113.961 125.245 137.872  0.00  0.00    +0.000 A 
ATOM     21  C   UNL     1     114.580 125.123 137.341  0.00  0.00    +0.000 A 
ENDBRANCH   6  16
BRANCH   5  22
ATOM     22  O   UNL     1     112.808 127.363 137.236  0.00  0.00    +0.000 OA
BRANCH  22  27
ATOM     23  O   UNL     1     113.303 128.159 136.157  0.00  0.00    +0.000 OA
ATOM     24  O   UNL     1     113.031 128.629 138.271  0.00  0.00    +0.000 OA
ATOM     25  O   UNL     1     113.636 130.057 137.710  0.00  0.00    +0.000 OA
ATOM     26  O   UNL     1     114.020 130.220 136.113  0.00  0.00    +0.000 OA
ATOM     27  C   UNL     1     113.111 128.077 136.954  0.00  0.00    +0.000 C 
ATOM     28  C   UNL     1     113.222 128.710 137.472  0.00  0.00    +0.000 C 
ATOM     29  C   UNL     1     113.525 129.424 137.192  0.00  0.00    +0.000 C 
ATOM     30  C   UNL     1     113.717 129.505 136.394  0.00  0.00    +0.000 C 
ATOM     31  C   UNL     1     113.605 128.873 135.876  0.00  0.00    +0.000 C 
ATOM     32  C   UNL     1     113.797 128.955 135.078  0.00  0.00    +0.000 C 
ENDBRANCH  22  27
ENDBRANCH   5  22
TORSDOF 3
ENDMDL
MODEL 4
REMARK VINA RESULT:      -9.5     10.170     12.345
REMARK  Name = 44257155
REMARK  3 active torsions:
REMARK  status: ('A' for Active; 'I' for Inactive)
REMARK    1  A    between atoms: O_1  and  C_12
REMARK    2  A    between atoms: O_1  and  C_13
REMARK    3  A    between atoms: C_18  and  C_22
REMARK                            x       y       z     vdW  Elec       q    Type
REMARK                         _______ _______ _______ _____ _____    ______ ____
ROOT
ATOM      1  O   UNL     1     113.542 126.796 136.798  0.00  0.00    +0.000 OA
ATOM      2  O   UNL     1     111.609 125.467 136.010  0.00  0.00    +0.000 OA
ATOM      3  O   UNL     1     112.284 124.236 136.341  0.00  0.00    +0.000 OA
ATOM      4  O   UNL     1     114.965 124.352 137.492  0.00  0.00    +0.000 OA
ATOM      5  C   UNL     1     112.230 126.734 136.235  0.00  0.00    +0.000 C 
ATOM      6  C   UNL     1     112.875 127.177 136.498  0.00  0.00    +0.000 C 
ATOM      7  C   UNL     1     112.253 125.910 136.272  0.00  0.00    +0.000 C 
ATOM      8  C   UNL     1     112.921 125.529 136.572  0.00  0.00    +0.000 A 
ATOM      9  C   UNL     1     113.565 125.973 136.835  0.00  0.00    +0.000 A 
ATOM     10  C   UNL     1     112.933 124.671 136.606  0.00  0.00    +0.000 A 
ATOM     11  C   UNL     1     114.266 125.588 137.150  0.00  0.00    +0.000 A 
ATOM     12  C   UNL     1     113.625 124.269 136.918  0.00  0.00    +0.000 A 
ATOM     13  C   UNL     1     114.296 124.730 137.191  0.00  0.00    +0.000 A 
ENDROOT
BRANCH   6  16
ATOM     14  O   UNL     1     112.612 129.707 137.800  0.00  0.00    +0.000 OA
ATOM     15  O   UNL     1     112.782 130.472 136.348  0.00  0.00    +0.000 OA
ATOM     16  C   UNL     1     112.851 128.001 136.460  0.00  0.00    +0.000 A 
ATOM     17  C   UNL     1     112.743 128.442 137.149  0.00  0.00    +0.000 A 
ATOM     18  C   UNL     1     112.936 128.384 135.734  0.00  0.00    +0.000 A 
ATOM     19  C   UNL     1     112.720 129.266 137.111  0.00  0.00    +0.000 A 
ATOM     20  C   UNL     1     112.913 129.207 135.697  0.00  0.00    +0.000 A 
ATOM     21  C   UNL     1     112.805 129.649 136.385  0.00  0.00    +0.000 A 
ENDBRANCH   6  16
BRANCH   5  22
ATOM     22  O   UNL     1     111.563 127.115 135.935  0.00  0.00    +0.000 OA
BRANCH  22  27
ATOM     23  O   UNL     1     110.777 126.883 137.106  0.00  0.00    +0.000 OA
ATOM     24  O   UNL     1     110.192 127.117 135.015  0.00  0.00    +0.000 OA
ATOM     25  O   UNL     1     108.721 126.886 135.727  0.00  0.00    +0.000 OA
ATOM     26  O   UNL     1     108.621 126.653 137.357  0.00  0.00    +0.000 OA
ATOM     27  C   UNL     1     110.827 126.999 136.291  0.00  0.00    +0.000 C 
ATOM     28  C   UNL     1     110.142 127.000 135.831  0.00  0.00    +0.000 C 
ATOM     29  C   UNL     1     109.407 126.885 136.186  0.00  0.00    +0.000 C 
ATOM     30  C   UNL     1     109.357 126.769 137.001  0.00  0.00    +0.000 C 
ATOM     31  C   UNL     1     110.042 126.768 137.461  0.00  0.00    +0.000 C 
ATOM     32  C   UNL     1     109.991 126.652 138.276  0.00  0.00    +0.000 C 
ENDBRANCH  22  27
ENDBRANCH   5  22
TORSDOF 3
ENDMDL
MODEL 5
REMARK VINA RESULT:      -9.5     10.637     11.989
REMARK  Name = 44257155
REMARK  3 active torsions:
REMARK  status: ('A' for Active; 'I' for Inactive)
REMARK    1  A    between atoms: O_1  and  C_12
REMARK    2  A    between atoms: O_1  and  C_13
REMARK    3  A    between atoms: C_18  and  C_22
REMARK                            x       y       z     vdW  Elec       q    Type
REMARK                         _______ _______ _______ _____ _____    ______ ____
ROOT
ATOM      1  O   UNL     1     111.029 125.273 136.503  0.00  0.00    +0.000 OA
ATOM      2  O   UNL     1     113.254 126.307 136.179  0.00  0.00    +0.000 OA
ATOM      3  O   UNL     1     113.910 125.068 136.517  0.00  0.00    +0.000 OA
ATOM      4  O   UNL     1     112.285 122.739 137.197  0.00  0.00    +0.000 OA
ATOM      5  C   UNL     1     111.828 126.410 136.171  0.00  0.00    +0.000 C 
ATOM      6  C   UNL     1     111.087 126.065 136.279  0.00  0.00    +0.000 C 
ATOM      7  C   UNL     1     112.512 125.962 136.287  0.00  0.00    +0.000 C 
ATOM      8  C   UNL     1     112.454 125.170 136.510  0.00  0.00    +0.000 A 
ATOM      9  C   UNL     1     111.712 124.826 136.618  0.00  0.00    +0.000 A 
ATOM     10  C   UNL     1     113.172 124.715 136.628  0.00  0.00    +0.000 A 
ATOM     11  C   UNL     1     111.638 124.003 136.851  0.00  0.00    +0.000 A 
ATOM     12  C   UNL     1     113.119 123.890 136.861  0.00  0.00    +0.000 A 
ATOM     13  C   UNL     1     112.346 123.531 136.973  0.00  0.00    +0.000 A 
ENDROOT
BRANCH   6  16
ATOM     14  O   UNL     1     108.861 127.504 137.348  0.00  0.00    +0.000 OA
ATOM     15  O   UNL     1     108.353 127.855 135.817  0.00  0.00    +0.000 OA
ATOM     16  C   UNL     1     110.403 126.513 136.163  0.00  0.00    +0.000 A 
ATOM     17  C   UNL     1     109.974 126.785 136.813  0.00  0.00    +0.000 A 
ATOM     18  C   UNL     1     110.149 126.689 135.398  0.00  0.00    +0.000 A 
ATOM     19  C   UNL     1     109.290 127.233 136.698  0.00  0.00    +0.000 A 
ATOM     20  C   UNL     1     109.466 127.136 135.283  0.00  0.00    +0.000 A 
ATOM     21  C   UNL     1     109.036 127.408 135.933  0.00  0.00    +0.000 A 
ENDBRANCH   6  16
BRANCH   5  22
ATOM     22  O   UNL     1     111.887 127.202 135.947  0.00  0.00    +0.000 OA
BRANCH  22  27
ATOM     23  O   UNL     1     112.278 127.645 137.249  0.00  0.00    +0.000 OA
ATOM     24  O   UNL     1     112.712 128.461 135.271  0.00  0.00    +0.000 OA
ATOM     25  O   UNL     1     113.515 129.533 136.234  0.00  0.00    +0.000 OA
ATOM     26  O   UNL     1     113.494 129.346 137.874  0.00  0.00    +0.000 OA
ATOM     27  C   UNL     1     112.288 127.738 136.430  0.00  0.00    +0.000 C 
ATOM     28  C   UNL     1     112.701 128.367 136.092  0.00  0.00    +0.000 C 
ATOM     29  C   UNL     1     113.103 128.904 136.572  0.00  0.00    +0.000 C 
ATOM     30  C   UNL     1     113.092 128.810 137.392  0.00  0.00    +0.000 C 
ATOM     31  C   UNL     1     112.679 128.180 137.730  0.00  0.00    +0.000 C 
ATOM     32  C   UNL     1     112.669 128.087 138.550  0.00  0.00    +0.000 C 
ENDBRANCH  22  27
ENDBRANCH   5  22
TORSDOF 3
ENDMDL
MODEL 6
REMARK VINA RESULT:      -9.5      9.990     12.133
REMARK  Name = 44257155
REMARK  3 active torsions:
REMARK  status: ('A' for Active; 'I' for Inactive)
REMARK    1  A    between atoms: O_1  and  C_12
REMARK    2  A    between atoms: O_1  and  C_13
REMARK    3  A    between atoms: C_18  and  C_22
REMARK                            x       y       z     vdW  Elec       q    Type
REMARK                         _______ _______ _______ _____ _____    ______ ____
ROOT
ATOM      1  O   UNL     1     113.564 127.248 136.544  0.00  0.00    +0.000 OA
ATOM      2  O   UNL     1     112.253 128.265 138.381  0.00  0.00    +0.000 OA
ATOM      3  O   UNL     1     112.534 129.591 137.885  0.00  0.00    +0.000 OA
ATOM      4  O   UNL     1     114.172 129.892 135.485  0.00  0.00    +0.000 OA
ATOM      5  C   UNL     1     112.762 127.106 137.719  0.00  0.00    +0.000 C 
ATOM      6  C   UNL     1     113.199 126.767 137.107  0.00  0.00    +0.000 C 
ATOM      7  C   UNL     1     112.690 127.927 137.768  0.00  0.00    +0.000 C 
ATOM      8  C   UNL     1     113.055 128.408 137.206  0.00  0.00    +0.000 A 
ATOM      9  C   UNL     1     113.492 128.068 136.594  0.00  0.00    +0.000 A 
ATOM     10  C   UNL     1     112.973 129.260 137.269  0.00  0.00    +0.000 A 
ATOM     11  C   UNL     1     113.877 128.558 136.003  0.00  0.00    +0.000 A 
ATOM     12  C   UNL     1     113.351 129.767 136.687  0.00  0.00    +0.000 A 
ATOM     13  C   UNL     1     113.806 129.414 136.049  0.00  0.00    +0.000 A 
ENDROOT
BRANCH   6  16
ATOM     14  O   UNL     1     114.761 124.395 137.430  0.00  0.00    +0.000 OA
ATOM     15  O   UNL     1     113.488 123.485 136.908  0.00  0.00    +0.000 OA
ATOM     16  C   UNL     1     113.271 125.946 137.057  0.00  0.00    +0.000 A 
ATOM     17  C   UNL     1     113.980 125.581 137.268  0.00  0.00    +0.000 A 
ATOM     18  C   UNL     1     112.635 125.491 136.796  0.00  0.00    +0.000 A 
ATOM     19  C   UNL     1     114.052 124.760 137.219  0.00  0.00    +0.000 A 
ATOM     20  C   UNL     1     112.707 124.671 136.746  0.00  0.00    +0.000 A 
ATOM     21  C   UNL     1     113.416 124.305 136.958  0.00  0.00    +0.000 A 
ENDBRANCH   6  16
BRANCH   5  22
ATOM     22  O   UNL     1     112.397 126.625 138.281  0.00  0.00    +0.000 OA
BRANCH  22  27
ATOM     23  O   UNL     1     113.362 126.917 139.294  0.00  0.00    +0.000 OA
ATOM     24  O   UNL     1     111.264 126.335 139.444  0.00  0.00    +0.000 OA
ATOM     25  O   UNL     1     111.662 126.482 141.039  0.00  0.00    +0.000 OA
ATOM     26  O   UNL     1     113.193 126.919 141.470  0.00  0.00    +0.000 OA
ATOM     27  C   UNL     1     112.597 126.698 139.078  0.00  0.00    +0.000 C 
ATOM     28  C   UNL     1     112.030 126.554 139.660  0.00  0.00    +0.000 C 
ATOM     29  C   UNL     1     112.229 126.627 140.457  0.00  0.00    +0.000 C 
ATOM     30  C   UNL     1     112.994 126.845 140.672  0.00  0.00    +0.000 C 
ATOM     31  C   UNL     1     113.561 126.990 140.090  0.00  0.00    +0.000 C 
ATOM     32  C   UNL     1     114.327 127.209 140.307  0.00  0.00    +0.000 C 
ENDBRANCH  22  27
ENDBRANCH   5  22
TORSDOF 3
ENDMDL
MODEL 7
REMARK VINA RESULT:      -9.4      9.074     11.066
REMARK  Name = 44257155
REMARK  3 active torsions:
REMARK  status: ('A' for Active; 'I' for Inactive)
REMARK    1  A    between atoms: O_1  and  C_12
REMARK    2  A    between atoms: O_1  and  C_13
REMARK    3  A    between atoms: C_18  and  C_22
REMARK                            x       y       z     vdW  Elec       q    Type
REMARK                         _______ _______ _______ _____ _____    ______ ____
ROOT
ATOM      1  O   UNL     1     113.797 126.207 138.356  0.00  0.00    +0.000 OA
ATOM      2  O   UNL     1     111.714 124.953 137.892  0.00  0.00    +0.000 OA
ATOM      3  O   UNL     1     112.338 124.272 136.783  0.00  0.00    +0.000 OA
ATOM      4  O   UNL     1     115.121 124.872 136.131  0.00  0.00    +0.000 OA
ATOM      5  C   UNL     1     112.435 125.910 138.671  0.00  0.00    +0.000 C 
ATOM      6  C   UNL     1     113.129 126.328 138.825  0.00  0.00    +0.000 C 
ATOM      7  C   UNL     1     112.409 125.371 138.046  0.00  0.00    +0.000 C 
ATOM      8  C   UNL     1     113.076 125.250 137.577  0.00  0.00    +0.000 A 
ATOM      9  C   UNL     1     113.770 125.668 137.732  0.00  0.00    +0.000 A 
ATOM     10  C   UNL     1     113.037 124.686 136.930  0.00  0.00    +0.000 A 
ATOM     11  C   UNL     1     114.472 125.551 137.251  0.00  0.00    +0.000 A 
ATOM     12  C   UNL     1     113.728 124.556 136.438  0.00  0.00    +0.000 A 
ATOM     13  C   UNL     1     114.451 124.991 136.599  0.00  0.00    +0.000 A 
ENDROOT
BRANCH   6  16
ATOM     14  O   UNL     1     113.170 129.027 139.764  0.00  0.00    +0.000 OA
ATOM     15  O   UNL     1     113.234 128.484 141.321  0.00  0.00    +0.000 OA
ATOM     16  C   UNL     1     113.156 126.867 139.449  0.00  0.00    +0.000 A 
ATOM     17  C   UNL     1     113.150 127.677 139.294  0.00  0.00    +0.000 A 
ATOM     18  C   UNL     1     113.188 126.596 140.228  0.00  0.00    +0.000 A 
ATOM     19  C   UNL     1     113.176 128.217 139.919  0.00  0.00    +0.000 A 
ATOM     20  C   UNL     1     113.214 127.135 140.851  0.00  0.00    +0.000 A 
ATOM     21  C   UNL     1     113.208 127.945 140.697  0.00  0.00    +0.000 A 
ENDBRANCH   6  16
BRANCH   5  22
ATOM     22  O   UNL     1     111.767 126.031 139.140  0.00  0.00    +0.000 OA
BRANCH  22  27
ATOM     23  O   UNL     1     111.088 126.810 138.153  0.00  0.00    +0.000 OA
ATOM     24  O   UNL     1     110.316 125.530 139.743  0.00  0.00    +0.000 OA
ATOM     25  O   UNL     1     108.911 126.058 139.058  0.00  0.00    +0.000 OA
ATOM     26  O   UNL     1     108.957 127.088 137.769  0.00  0.00    +0.000 OA
ATOM     27  C   UNL     1     111.065 126.296 138.797  0.00  0.00    +0.000 C 
ATOM     28  C   UNL     1     110.339 126.045 139.098  0.00  0.00    +0.000 C 
ATOM     29  C   UNL     1     109.636 126.309 138.756  0.00  0.00    +0.000 C 
ATOM     30  C   UNL     1     109.661 126.823 138.112  0.00  0.00    +0.000 C 
ATOM     31  C   UNL     1     110.386 127.074 137.810  0.00  0.00    +0.000 C 
ATOM     32  C   UNL     1     110.409 127.589 137.166  0.00  0.00    +0.000 C 
ENDBRANCH  22  27
ENDBRANCH   5  22
TORSDOF 3
ENDMDL
MODEL 8
REMARK VINA RESULT:      -9.4      9.821     11.769
REMARK  Name = 44257155
REMARK  3 active torsions:
REMARK  status: ('A' for Active; 'I' for Inactive)
REMARK    1  A    between atoms: O_1  and  C_12
REMARK    2  A    between atoms: O_1  and  C_13
REMARK    3  A    between atoms: C_18  and  C_22
REMARK                            x       y       z     vdW  Elec       q    Type
REMARK                         _______ _______ _______ _____ _____    ______ ____
ROOT
ATOM      1  O   UNL     1     113.095 126.110 138.638  0.00  0.00    +0.000 OA
ATOM      2  O   UNL     1     110.758 125.646 137.967  0.00  0.00    +0.000 OA
ATOM      3  O   UNL     1     110.268 126.131 139.234  0.00  0.00    +0.000 OA
ATOM      4  O   UNL     1     112.177 127.104 141.218  0.00  0.00    +0.000 OA
ATOM      5  C   UNL     1     112.156 125.635 137.671  0.00  0.00    +0.000 C 
ATOM      6  C   UNL     1     112.935 125.789 137.895  0.00  0.00    +0.000 C 
ATOM      7  C   UNL     1     111.537 125.801 138.191  0.00  0.00    +0.000 C 
ATOM      8  C   UNL     1     111.697 126.121 138.934  0.00  0.00    +0.000 A 
ATOM      9  C   UNL     1     112.476 126.275 139.157  0.00  0.00    +0.000 A 
ATOM     10  C   UNL     1     111.044 126.289 139.466  0.00  0.00    +0.000 A 
ATOM     11  C   UNL     1     112.655 126.609 139.929  0.00  0.00    +0.000 A 
ATOM     12  C   UNL     1     111.203 126.623 140.241  0.00  0.00    +0.000 A 
ATOM     13  C   UNL     1     112.015 126.784 140.475  0.00  0.00    +0.000 A 
ENDROOT
BRANCH   6  16
ATOM     14  O   UNL     1     114.889 126.680 136.009  0.00  0.00    +0.000 OA
ATOM     15  O   UNL     1     115.411 125.127 135.816  0.00  0.00    +0.000 OA
ATOM     16  C   UNL     1     113.554 125.623 137.375  0.00  0.00    +0.000 A 
ATOM     17  C   UNL     1     113.912 126.235 136.952  0.00  0.00    +0.000 A 
ATOM     18  C   UNL     1     113.815 124.847 137.279  0.00  0.00    +0.000 A 
ATOM     19  C   UNL     1     114.531 126.069 136.432  0.00  0.00    +0.000 A 
ATOM     20  C   UNL     1     114.434 124.681 136.759  0.00  0.00    +0.000 A 
ATOM     21  C   UNL     1     114.792 125.292 136.336  0.00  0.00    +0.000 A 
ENDBRANCH   6  16
BRANCH   5  22
ATOM     22  O   UNL     1     111.996 125.314 136.928  0.00  0.00    +0.000 OA
BRANCH  22  27
ATOM     23  O   UNL     1     111.531 126.551 136.383  0.00  0.00    +0.000 OA
ATOM     24  O   UNL     1     111.017 124.487 135.888  0.00  0.00    +0.000 OA
ATOM     25  O   UNL     1     110.062 125.310 134.824  0.00  0.00    +0.000 OA
ATOM     26  O   UNL     1     110.086 126.960 134.798  0.00  0.00    +0.000 OA
ATOM     27  C   UNL     1     111.519 125.726 136.395  0.00  0.00    +0.000 C 
ATOM     28  C   UNL     1     111.029 125.313 135.876  0.00  0.00    +0.000 C 
ATOM     29  C   UNL     1     110.552 125.724 135.343  0.00  0.00    +0.000 C 
ATOM     30  C   UNL     1     110.564 126.548 135.331  0.00  0.00    +0.000 C 
ATOM     31  C   UNL     1     111.053 126.962 135.851  0.00  0.00    +0.000 C 
ATOM     32  C   UNL     1     111.065 127.787 135.838  0.00  0.00    +0.000 C 
ENDBRANCH  22  27
ENDBRANCH   5  22
TORSDOF 3
ENDMDL
MODEL 9
REMARK VINA RESULT:      -9.4     10.771     11.682
REMARK  Name = 44257155
REMARK  3 active torsions:
REMARK  status: ('A' for Active; 'I' for Inactive)
REMARK    1  A    between atoms: O_1  and  C_12
REMARK    2  A    between atoms: O_1  and  C_13
REMARK    3  A    between atoms: C_18  and  C_22
REMARK                            x       y       z     vdW  Elec       q    Type
REMARK                         _______ _______ _______ _____ _____    ______ ____
ROOT
ATOM      1  O   UNL     1     113.298 126.075 138.910  0.00  0.00    +0.000 OA
ATOM      2  O   UNL     1     112.403 128.321 138.383  0.00  0.00    +0.000 OA
ATOM      3  O   UNL     1     113.098 128.894 139.510  0.00  0.00    +0.000 OA
ATOM      4  O   UNL     1     114.730 127.161 141.202  0.00  0.00    +0.000 OA
ATOM      5  C   UNL     1     112.501 126.927 138.085  0.00  0.00    +0.000 C 
ATOM      6  C   UNL     1     112.800 126.179 138.261  0.00  0.00    +0.000 C 
ATOM      7  C   UNL     1     112.702 127.573 138.559  0.00  0.00    +0.000 C 
ATOM      8  C   UNL     1     113.200 127.469 139.208  0.00  0.00    +0.000 A 
ATOM      9  C   UNL     1     113.498 126.720 139.383  0.00  0.00    +0.000 A 
ATOM     10  C   UNL     1     113.402 128.148 139.693  0.00  0.00    +0.000 A 
ATOM     11  C   UNL     1     114.019 126.599 140.056  0.00  0.00    +0.000 A 
ATOM     12  C   UNL     1     113.920 128.047 140.370  0.00  0.00    +0.000 A 
ATOM     13  C   UNL     1     114.231 127.267 140.553  0.00  0.00    +0.000 A 
ENDROOT
BRANCH   6  16
ATOM     14  O   UNL     1     113.514 124.246 136.280  0.00  0.00    +0.000 OA
ATOM     15  O   UNL     1     111.999 123.598 136.366  0.00  0.00    +0.000 OA
ATOM     16  C   UNL     1     112.599 125.533 137.787  0.00  0.00    +0.000 A 
ATOM     17  C   UNL     1     113.157 125.212 137.270  0.00  0.00    +0.000 A 
ATOM     18  C   UNL     1     111.842 125.209 137.829  0.00  0.00    +0.000 A 
ATOM     19  C   UNL     1     112.956 124.567 136.796  0.00  0.00    +0.000 A 
ATOM     20  C   UNL     1     111.642 124.565 137.356  0.00  0.00    +0.000 A 
ATOM     21  C   UNL     1     112.199 124.243 136.839  0.00  0.00    +0.000 A 
ENDBRANCH   6  16
BRANCH   5  22
ATOM     22  O   UNL     1     112.002 127.031 137.436  0.00  0.00    +0.000 OA
BRANCH  22  27
ATOM     23  O   UNL     1     113.009 127.647 136.629  0.00  0.00    +0.000 OA
ATOM     24  O   UNL     1     110.838 127.882 136.633  0.00  0.00    +0.000 OA
ATOM     25  O   UNL     1     111.262 128.923 135.426  0.00  0.00    +0.000 OA
ATOM     26  O   UNL     1     112.850 129.113 135.020  0.00  0.00    +0.000 OA
ATOM     27  C   UNL     1     112.215 127.552 136.832  0.00  0.00    +0.000 C 
ATOM     28  C   UNL     1     111.633 127.977 136.431  0.00  0.00    +0.000 C 
ATOM     29  C   UNL     1     111.844 128.497 135.827  0.00  0.00    +0.000 C 
ATOM     30  C   UNL     1     112.638 128.592 135.625  0.00  0.00    +0.000 C 
ATOM     31  C   UNL     1     113.221 128.167 136.026  0.00  0.00    +0.000 C 
ATOM     32  C   UNL     1     114.015 128.263 135.823  0.00  0.00    +0.000 C 
ENDBRANCH  22  27
ENDBRANCH   5  22
TORSDOF 3
ENDMDL
MODEL 10
REMARK VINA RESULT:      -9.3     10.736     13.015
REMARK  Name = 44257155
REMARK  3 active torsions:
REMARK  status: ('A' for Active; 'I' for Inactive)
REMARK    1  A    between atoms: O_1  and  C_12
REMARK    2  A    between atoms: O_1  and  C_13
REMARK    3  A    between atoms: C_18  and  C_22
REMARK                            x       y       z     vdW  Elec       q    Type
REMARK                         _______ _______ _______ _____ _____    ______ ____
ROOT
ATOM      1  O   UNL     1     114.069 127.541 136.133  0.00  0.00    +0.000 OA
ATOM      2  O   UNL     1     111.797 128.415 136.583  0.00  0.00    +0.000 OA
ATOM      3  O   UNL     1     112.110 129.652 135.909  0.00  0.00    +0.000 OA
ATOM      4  O   UNL     1     114.770 130.011 134.759  0.00  0.00    +0.000 OA
ATOM      5  C   UNL     1     112.765 127.370 136.694  0.00  0.00    +0.000 C 
ATOM      6  C   UNL     1     113.523 127.079 136.544  0.00  0.00    +0.000 C 
ATOM      7  C   UNL     1     112.555 128.124 136.433  0.00  0.00    +0.000 C 
ATOM      8  C   UNL     1     113.101 128.586 136.022  0.00  0.00    +0.000 A 
ATOM      9  C   UNL     1     113.858 128.294 135.872  0.00  0.00    +0.000 A 
ATOM     10  C   UNL     1     112.869 129.369 135.755  0.00  0.00    +0.000 A 
ATOM     11  C   UNL     1     114.435 128.765 135.445  0.00  0.00    +0.000 A 
ATOM     12  C   UNL     1     113.433 129.855 135.326  0.00  0.00    +0.000 A 
ATOM     13  C   UNL     1     114.222 129.552 135.170  0.00  0.00    +0.000 A 
ENDROOT
BRANCH   6  16
ATOM     14  O   UNL     1     114.028 124.320 135.994  0.00  0.00    +0.000 OA
ATOM     15  O   UNL     1     114.366 124.064 137.589  0.00  0.00    +0.000 OA
ATOM     16  C   UNL     1     113.734 126.325 136.806  0.00  0.00    +0.000 A 
ATOM     17  C   UNL     1     113.775 125.700 136.269  0.00  0.00    +0.000 A 
ATOM     18  C   UNL     1     113.902 126.197 137.603  0.00  0.00    +0.000 A 
ATOM     19  C   UNL     1     113.986 124.945 136.531  0.00  0.00    +0.000 A 
ATOM     20  C   UNL     1     114.113 125.444 137.864  0.00  0.00    +0.000 A 
ATOM     21  C   UNL     1     114.155 124.817 137.328  0.00  0.00    +0.000 A 
ENDBRANCH   6  16
BRANCH   5  22
ATOM     22  O   UNL     1     112.219 126.908 137.105  0.00  0.00    +0.000 OA
BRANCH  22  27
ATOM     23  O   UNL     1     111.457 126.578 135.942  0.00  0.00    +0.000 OA
ATOM     24  O   UNL     1     110.859 126.786 138.031  0.00  0.00    +0.000 OA
ATOM     25  O   UNL     1     109.417 126.395 137.331  0.00  0.00    +0.000 OA
ATOM     26  O   UNL     1     109.335 126.126 135.705  0.00  0.00    +0.000 OA
ATOM     27  C   UNL     1     111.498 126.712 136.755  0.00  0.00    +0.000 C 
ATOM     28  C   UNL     1     110.818 126.651 137.217  0.00  0.00    +0.000 C 
ATOM     29  C   UNL     1     110.097 126.456 136.868  0.00  0.00    +0.000 C 
ATOM     30  C   UNL     1     110.057 126.322 136.055  0.00  0.00    +0.000 C 
ATOM     31  C   UNL     1     110.737 126.383 135.592  0.00  0.00    +0.000 C 
ATOM     32  C   UNL     1     110.695 126.248 134.779  0.00  0.00    +0.000 C 
ENDBRANCH  22  27
ENDBRANCH   5  22
TORSDOF 3
ENDMDL
