MODEL 1
REMARK VINA RESULT:     -10.2      0.000      0.000
REMARK  Name = 44258476
REMARK  3 active torsions:
REMARK  status: ('A' for Active; 'I' for Inactive)
REMARK    1  A    between atoms: O_2  and  C_15
REMARK    2  A    between atoms: O_2  and  C_17
REMARK    3  A    between atoms: C_24  and  C_26
REMARK                            x       y       z     vdW  Elec       q    Type
REMARK                         _______ _______ _______ _____ _____    ______ ____
ROOT
ATOM      1  O   UNL     1     104.770 123.758 139.284  0.00  0.00    +0.000 OA
ATOM      2  O   UNL     1     105.506 126.099 140.819  0.00  0.00    +0.000 OA
ATOM      3  O   UNL     1     106.814 123.606 141.309  0.00  0.00    +0.000 OA
ATOM      4  O   UNL     1     104.478 126.216 139.814  0.00  0.00    +0.000 OA
ATOM      5  C   UNL     1     106.161 124.853 141.064  0.00  0.00    +0.000 A 
ATOM      6  C   UNL     1     105.604 125.298 140.648  0.00  0.00    +0.000 A 
ATOM      7  C   UNL     1     105.145 124.942 140.063  0.00  0.00    +0.000 A 
ATOM      8  C   UNL     1     106.258 124.051 140.894  0.00  0.00    +0.000 A 
ATOM      9  C   UNL     1     105.243 124.140 139.892  0.00  0.00    +0.000 A 
ATOM     10  C   UNL     1     105.799 123.695 140.308  0.00  0.00    +0.000 A 
ATOM     11  C   UNL     1     104.569 125.416 139.637  0.00  0.00    +0.000 A 
ATOM     12  C   UNL     1     104.190 124.216 138.848  0.00  0.00    +0.000 A 
ATOM     13  C   UNL     1     104.088 125.052 139.026  0.00  0.00    +0.000 A 
ENDROOT
BRANCH  12  16
ATOM     14  O   UNL     1     101.646 123.335 137.889  0.00  0.00    +0.000 OA
ATOM     15  O   UNL     1     102.358 122.782 136.507  0.00  0.00    +0.000 OA
ATOM     16  C   UNL     1     103.732 123.858 138.263  0.00  0.00    +0.000 A 
ATOM     17  C   UNL     1     102.918 123.775 138.368  0.00  0.00    +0.000 A 
ATOM     18  C   UNL     1     104.088 123.581 137.572  0.00  0.00    +0.000 A 
ATOM     19  C   UNL     1     102.460 123.417 137.783  0.00  0.00    +0.000 A 
ATOM     20  C   UNL     1     103.630 123.223 136.987  0.00  0.00    +0.000 A 
ATOM     21  C   UNL     1     102.817 123.141 137.092  0.00  0.00    +0.000 A 
ENDBRANCH  12  16
BRANCH   5  22
ATOM     22  O   UNL     1     106.619 125.208 141.650  0.00  0.00    +0.000 OA
BRANCH  22  30
ATOM     23  O   UNL     1     105.703 124.775 142.658  0.00  0.00    +0.000 OA
ATOM     24  O   UNL     1     106.799 126.272 144.297  0.00  0.00    +0.000 OA
ATOM     25  O   UNL     1     107.349 126.206 142.743  0.00  0.00    +0.000 OA
ATOM     26  O   UNL     1     105.518 125.339 144.758  0.00  0.00    +0.000 OA
ATOM     27  C   UNL     1     106.434 125.773 143.750  0.00  0.00    +0.000 C 
ATOM     28  C   UNL     1     106.709 125.740 142.973  0.00  0.00    +0.000 C 
ATOM     29  C   UNL     1     105.793 125.306 143.981  0.00  0.00    +0.000 C 
ATOM     30  C   UNL     1     106.344 125.242 142.427  0.00  0.00    +0.000 C 
ATOM     31  C   UNL     1     105.428 124.808 143.435  0.00  0.00    +0.000 C 
ENDBRANCH  22  30
ENDBRANCH   5  22
TORSDOF 3
ENDMDL
MODEL 2
REMARK VINA RESULT:     -10.0      1.234      2.217
REMARK  Name = 44258476
REMARK  3 active torsions:
REMARK  status: ('A' for Active; 'I' for Inactive)
REMARK    1  A    between atoms: O_2  and  C_15
REMARK    2  A    between atoms: O_2  and  C_17
REMARK    3  A    between atoms: C_24  and  C_26
REMARK                            x       y       z     vdW  Elec       q    Type
REMARK                         _______ _______ _______ _____ _____    ______ ____
ROOT
ATOM      1  O   UNL     1     104.334 124.710 139.269  0.00  0.00    +0.000 OA
ATOM      2  O   UNL     1     106.486 123.988 141.066  0.00  0.00    +0.000 OA
ATOM      3  O   UNL     1     105.512 126.675 141.017  0.00  0.00    +0.000 OA
ATOM      4  O   UNL     1     105.923 122.976 140.207  0.00  0.00    +0.000 OA
ATOM      5  C   UNL     1     105.999 125.331 141.042  0.00  0.00    +0.000 A 
ATOM      6  C   UNL     1     105.969 124.556 140.763  0.00  0.00    +0.000 A 
ATOM      7  C   UNL     1     105.424 124.347 140.181  0.00  0.00    +0.000 A 
ATOM      8  C   UNL     1     105.482 125.899 140.738  0.00  0.00    +0.000 A 
ATOM      9  C   UNL     1     104.907 124.915 139.877  0.00  0.00    +0.000 A 
ATOM     10  C   UNL     1     104.937 125.690 140.156  0.00  0.00    +0.000 A 
ATOM     11  C   UNL     1     105.402 123.536 139.898  0.00  0.00    +0.000 A 
ATOM     12  C   UNL     1     104.299 123.904 138.975  0.00  0.00    +0.000 A 
ATOM     13  C   UNL     1     104.837 123.312 139.292  0.00  0.00    +0.000 A 
ENDROOT
BRANCH  12  16
ATOM     14  O   UNL     1     101.591 123.513 138.150  0.00  0.00    +0.000 OA
ATOM     15  O   UNL     1     102.111 123.080 136.645  0.00  0.00    +0.000 OA
ATOM     16  C   UNL     1     103.752 123.698 138.393  0.00  0.00    +0.000 A 
ATOM     17  C   UNL     1     102.945 123.708 138.562  0.00  0.00    +0.000 A 
ATOM     18  C   UNL     1     104.013 123.482 137.640  0.00  0.00    +0.000 A 
ATOM     19  C   UNL     1     102.398 123.502 137.980  0.00  0.00    +0.000 A 
ATOM     20  C   UNL     1     103.465 123.276 137.058  0.00  0.00    +0.000 A 
ATOM     21  C   UNL     1     102.659 123.286 137.227  0.00  0.00    +0.000 A 
ENDBRANCH  12  16
BRANCH   5  22
ATOM     22  O   UNL     1     106.544 125.540 141.624  0.00  0.00    +0.000 OA
BRANCH  22  30
ATOM     23  O   UNL     1     107.545 125.799 140.636  0.00  0.00    +0.000 OA
ATOM     24  O   UNL     1     108.894 127.010 142.321  0.00  0.00    +0.000 OA
ATOM     25  O   UNL     1     107.444 126.348 142.747  0.00  0.00    +0.000 OA
ATOM     26  O   UNL     1     109.444 126.865 140.772  0.00  0.00    +0.000 OA
ATOM     27  C   UNL     1     108.443 126.606 141.760  0.00  0.00    +0.000 C 
ATOM     28  C   UNL     1     107.719 126.275 141.972  0.00  0.00    +0.000 C 
ATOM     29  C   UNL     1     108.719 126.534 140.984  0.00  0.00    +0.000 C 
ATOM     30  C   UNL     1     107.269 125.872 141.412  0.00  0.00    +0.000 C 
ATOM     31  C   UNL     1     108.269 126.130 140.423  0.00  0.00    +0.000 C 
ENDBRANCH  22  30
ENDBRANCH   5  22
TORSDOF 3
ENDMDL
MODEL 3
REMARK VINA RESULT:     -10.0      6.985      8.302
REMARK  Name = 44258476
REMARK  3 active torsions:
REMARK  status: ('A' for Active; 'I' for Inactive)
REMARK    1  A    between atoms: O_2  and  C_15
REMARK    2  A    between atoms: O_2  and  C_17
REMARK    3  A    between atoms: C_24  and  C_26
REMARK                            x       y       z     vdW  Elec       q    Type
REMARK                         _______ _______ _______ _____ _____    ______ ____
ROOT
ATOM      1  O   UNL     1     110.685 127.109 135.989  0.00  0.00    +0.000 OA
ATOM      2  O   UNL     1     108.119 128.426 135.745  0.00  0.00    +0.000 OA
ATOM      3  O   UNL     1     110.518 129.864 135.162  0.00  0.00    +0.000 OA
ATOM      4  O   UNL     1     108.159 127.046 136.162  0.00  0.00    +0.000 OA
ATOM      5  C   UNL     1     109.318 129.145 135.453  0.00  0.00    +0.000 A 
ATOM      6  C   UNL     1     108.941 128.449 135.687  0.00  0.00    +0.000 A 
ATOM      7  C   UNL     1     109.386 127.778 135.864  0.00  0.00    +0.000 A 
ATOM      8  C   UNL     1     110.142 129.169 135.396  0.00  0.00    +0.000 A 
ATOM      9  C   UNL     1     110.210 127.802 135.807  0.00  0.00    +0.000 A 
ATOM     10  C   UNL     1     110.587 128.497 135.573  0.00  0.00    +0.000 A 
ATOM     11  C   UNL     1     108.983 127.060 136.107  0.00  0.00    +0.000 A 
ATOM     12  C   UNL     1     110.298 126.382 136.234  0.00  0.00    +0.000 A 
ATOM     13  C   UNL     1     109.440 126.358 136.293  0.00  0.00    +0.000 A 
ENDROOT
BRANCH  12  16
ATOM     14  O   UNL     1     111.591 124.705 138.152  0.00  0.00    +0.000 OA
ATOM     15  O   UNL     1     112.089 123.702 136.941  0.00  0.00    +0.000 OA
ATOM     16  C   UNL     1     110.745 125.712 136.410  0.00  0.00    +0.000 A 
ATOM     17  C   UNL     1     110.944 125.544 137.193  0.00  0.00    +0.000 A 
ATOM     18  C   UNL     1     110.994 125.211 135.804  0.00  0.00    +0.000 A 
ATOM     19  C   UNL     1     111.392 124.874 137.369  0.00  0.00    +0.000 A 
ATOM     20  C   UNL     1     111.442 124.541 135.981  0.00  0.00    +0.000 A 
ATOM     21  C   UNL     1     111.641 124.372 136.763  0.00  0.00    +0.000 A 
ENDBRANCH  12  16
BRANCH   5  22
ATOM     22  O   UNL     1     108.873 129.816 135.276  0.00  0.00    +0.000 OA
BRANCH  22  30
ATOM     23  O   UNL     1     109.004 130.264 136.627  0.00  0.00    +0.000 OA
ATOM     24  O   UNL     1     107.487 132.160 136.145  0.00  0.00    +0.000 OA
ATOM     25  O   UNL     1     107.862 131.080 134.955  0.00  0.00    +0.000 OA
ATOM     26  O   UNL     1     108.123 131.975 137.657  0.00  0.00    +0.000 OA
ATOM     27  C   UNL     1     107.993 131.527 136.305  0.00  0.00    +0.000 C 
ATOM     28  C   UNL     1     108.180 130.988 135.711  0.00  0.00    +0.000 C 
ATOM     29  C   UNL     1     108.311 131.435 137.062  0.00  0.00    +0.000 C 
ATOM     30  C   UNL     1     108.685 130.356 135.871  0.00  0.00    +0.000 C 
ATOM     31  C   UNL     1     108.816 130.803 137.222  0.00  0.00    +0.000 C 
ENDBRANCH  22  30
ENDBRANCH   5  22
TORSDOF 3
ENDMDL
MODEL 4
REMARK VINA RESULT:     -10.0      1.283      5.872
REMARK  Name = 44258476
REMARK  3 active torsions:
REMARK  status: ('A' for Active; 'I' for Inactive)
REMARK    1  A    between atoms: O_2  and  C_15
REMARK    2  A    between atoms: O_2  and  C_17
REMARK    3  A    between atoms: C_24  and  C_26
REMARK                            x       y       z     vdW  Elec       q    Type
REMARK                         _______ _______ _______ _____ _____    ______ ____
ROOT
ATOM      1  O   UNL     1     105.807 125.404 140.210  0.00  0.00    +0.000 OA
ATOM      2  O   UNL     1     104.522 122.885 139.595  0.00  0.00    +0.000 OA
ATOM      3  O   UNL     1     103.365 125.334 138.682  0.00  0.00    +0.000 OA
ATOM      4  O   UNL     1     105.743 122.878 140.362  0.00  0.00    +0.000 OA
ATOM      5  C   UNL     1     103.943 124.109 139.138  0.00  0.00    +0.000 A 
ATOM      6  C   UNL     1     104.540 123.708 139.543  0.00  0.00    +0.000 A 
ATOM      7  C   UNL     1     105.154 124.129 139.897  0.00  0.00    +0.000 A 
ATOM      8  C   UNL     1     103.961 124.933 139.087  0.00  0.00    +0.000 A 
ATOM      9  C   UNL     1     105.172 124.954 139.846  0.00  0.00    +0.000 A 
ATOM     10  C   UNL     1     104.576 125.354 139.441  0.00  0.00    +0.000 A 
ATOM     11  C   UNL     1     105.769 123.701 140.316  0.00  0.00    +0.000 A 
ATOM     12  C   UNL     1     106.430 124.992 140.633  0.00  0.00    +0.000 A 
ATOM     13  C   UNL     1     106.411 124.134 140.687  0.00  0.00    +0.000 A 
ENDROOT
BRANCH  12  16
ATOM     14  O   UNL     1     107.427 126.552 142.810  0.00  0.00    +0.000 OA
ATOM     15  O   UNL     1     108.883 126.690 142.046  0.00  0.00    +0.000 OA
ATOM     16  C   UNL     1     107.043 125.416 140.986  0.00  0.00    +0.000 A 
ATOM     17  C   UNL     1     106.929 125.772 141.722  0.00  0.00    +0.000 A 
ATOM     18  C   UNL     1     107.771 125.485 140.604  0.00  0.00    +0.000 A 
ATOM     19  C   UNL     1     107.542 126.196 142.075  0.00  0.00    +0.000 A 
ATOM     20  C   UNL     1     108.384 125.909 140.958  0.00  0.00    +0.000 A 
ATOM     21  C   UNL     1     108.270 126.265 141.692  0.00  0.00    +0.000 A 
ENDBRANCH  12  16
BRANCH   5  22
ATOM     22  O   UNL     1     103.329 123.688 138.784  0.00  0.00    +0.000 OA
BRANCH  22  30
ATOM     23  O   UNL     1     104.113 123.454 137.612  0.00  0.00    +0.000 OA
ATOM     24  O   UNL     1     102.060 122.883 136.353  0.00  0.00    +0.000 OA
ATOM     25  O   UNL     1     101.961 123.306 137.945  0.00  0.00    +0.000 OA
ATOM     26  O   UNL     1     103.528 122.840 135.601  0.00  0.00    +0.000 OA
ATOM     27  C   UNL     1     102.744 123.073 136.774  0.00  0.00    +0.000 C 
ATOM     28  C   UNL     1     102.694 123.285 137.569  0.00  0.00    +0.000 C 
ATOM     29  C   UNL     1     103.479 123.052 136.397  0.00  0.00    +0.000 C 
ATOM     30  C   UNL     1     103.378 123.475 137.988  0.00  0.00    +0.000 C 
ATOM     31  C   UNL     1     104.162 123.242 136.817  0.00  0.00    +0.000 C 
ENDBRANCH  22  30
ENDBRANCH   5  22
TORSDOF 3
ENDMDL
MODEL 5
REMARK VINA RESULT:      -9.9      8.500      9.652
REMARK  Name = 44258476
REMARK  3 active torsions:
REMARK  status: ('A' for Active; 'I' for Inactive)
REMARK    1  A    between atoms: O_2  and  C_15
REMARK    2  A    between atoms: O_2  and  C_17
REMARK    3  A    between atoms: C_24  and  C_26
REMARK                            x       y       z     vdW  Elec       q    Type
REMARK                         _______ _______ _______ _____ _____    ______ ____
ROOT
ATOM      1  O   UNL     1     113.174 127.221 138.202  0.00  0.00    +0.000 OA
ATOM      2  O   UNL     1     113.420 128.168 140.926  0.00  0.00    +0.000 OA
ATOM      3  O   UNL     1     112.700 129.989 138.845  0.00  0.00    +0.000 OA
ATOM      4  O   UNL     1     113.666 126.774 140.646  0.00  0.00    +0.000 OA
ATOM      5  C   UNL     1     113.060 129.079 139.886  0.00  0.00    +0.000 A 
ATOM      6  C   UNL     1     113.259 128.316 140.131  0.00  0.00    +0.000 A 
ATOM      7  C   UNL     1     113.298 127.703 139.581  0.00  0.00    +0.000 A 
ATOM      8  C   UNL     1     112.899 129.227 139.090  0.00  0.00    +0.000 A 
ATOM      9  C   UNL     1     113.137 127.852 138.785  0.00  0.00    +0.000 A 
ATOM     10  C   UNL     1     112.938 128.613 138.540  0.00  0.00    +0.000 A 
ATOM     11  C   UNL     1     113.507 126.913 139.848  0.00  0.00    +0.000 A 
ATOM     12  C   UNL     1     113.381 126.425 138.452  0.00  0.00    +0.000 A 
ATOM     13  C   UNL     1     113.549 126.270 139.281  0.00  0.00    +0.000 A 
ENDROOT
BRANCH  12  16
ATOM     14  O   UNL     1     112.074 124.450 136.852  0.00  0.00    +0.000 OA
ATOM     15  O   UNL     1     113.533 123.978 136.242  0.00  0.00    +0.000 OA
ATOM     16  C   UNL     1     113.419 125.814 137.899  0.00  0.00    +0.000 A 
ATOM     17  C   UNL     1     112.728 125.438 137.652  0.00  0.00    +0.000 A 
ATOM     18  C   UNL     1     114.149 125.578 137.594  0.00  0.00    +0.000 A 
ATOM     19  C   UNL     1     112.766 124.826 137.100  0.00  0.00    +0.000 A 
ATOM     20  C   UNL     1     114.186 124.966 137.042  0.00  0.00    +0.000 A 
ATOM     21  C   UNL     1     113.495 124.590 136.795  0.00  0.00    +0.000 A 
ENDBRANCH  12  16
BRANCH   5  22
ATOM     22  O   UNL     1     113.021 129.692 140.436  0.00  0.00    +0.000 OA
BRANCH  22  30
ATOM     23  O   UNL     1     114.382 130.032 140.160  0.00  0.00    +0.000 OA
ATOM     24  O   UNL     1     114.333 131.706 141.982  0.00  0.00    +0.000 OA
ATOM     25  O   UNL     1     112.989 130.808 141.651  0.00  0.00    +0.000 OA
ATOM     26  O   UNL     1     115.710 131.488 141.098  0.00  0.00    +0.000 OA
ATOM     27  C   UNL     1     114.349 131.148 141.374  0.00  0.00    +0.000 C 
ATOM     28  C   UNL     1     113.677 130.699 141.209  0.00  0.00    +0.000 C 
ATOM     29  C   UNL     1     115.038 131.038 140.932  0.00  0.00    +0.000 C 
ATOM     30  C   UNL     1     113.693 130.141 140.602  0.00  0.00    +0.000 C 
ATOM     31  C   UNL     1     115.053 130.481 140.325  0.00  0.00    +0.000 C 
ENDBRANCH  22  30
ENDBRANCH   5  22
TORSDOF 3
ENDMDL
MODEL 6
REMARK VINA RESULT:      -9.7      7.720     10.311
REMARK  Name = 44258476
REMARK  3 active torsions:
REMARK  status: ('A' for Active; 'I' for Inactive)
REMARK    1  A    between atoms: O_2  and  C_15
REMARK    2  A    between atoms: O_2  and  C_17
REMARK    3  A    between atoms: C_24  and  C_26
REMARK                            x       y       z     vdW  Elec       q    Type
REMARK                         _______ _______ _______ _____ _____    ______ ____
ROOT
ATOM      1  O   UNL     1     113.303 128.904 139.492  0.00  0.00    +0.000 OA
ATOM      2  O   UNL     1     112.553 126.136 139.886  0.00  0.00    +0.000 OA
ATOM      3  O   UNL     1     111.789 127.492 137.489  0.00  0.00    +0.000 OA
ATOM      4  O   UNL     1     113.311 126.808 140.913  0.00  0.00    +0.000 OA
ATOM      5  C   UNL     1     112.171 126.813 138.687  0.00  0.00    +0.000 A 
ATOM      6  C   UNL     1     112.549 126.818 139.421  0.00  0.00    +0.000 A 
ATOM      7  C   UNL     1     112.922 127.502 139.689  0.00  0.00    +0.000 A 
ATOM      8  C   UNL     1     112.167 127.496 138.222  0.00  0.00    +0.000 A 
ATOM      9  C   UNL     1     112.918 128.184 139.224  0.00  0.00    +0.000 A 
ATOM     10  C   UNL     1     112.540 128.180 138.491  0.00  0.00    +0.000 A 
ATOM     11  C   UNL     1     113.312 127.494 140.455  0.00  0.00    +0.000 A 
ATOM     12  C   UNL     1     113.698 128.914 140.255  0.00  0.00    +0.000 A 
ATOM     13  C   UNL     1     113.702 128.204 140.740  0.00  0.00    +0.000 A 
ENDROOT
BRANCH  12  16
ATOM     14  O   UNL     1     113.631 131.340 141.764  0.00  0.00    +0.000 OA
ATOM     15  O   UNL     1     115.188 131.660 141.319  0.00  0.00    +0.000 OA
ATOM     16  C   UNL     1     114.070 129.600 140.521  0.00  0.00    +0.000 A 
ATOM     17  C   UNL     1     113.665 130.127 141.009  0.00  0.00    +0.000 A 
ATOM     18  C   UNL     1     114.849 129.760 140.298  0.00  0.00    +0.000 A 
ATOM     19  C   UNL     1     114.037 130.813 141.275  0.00  0.00    +0.000 A 
ATOM     20  C   UNL     1     115.221 130.447 140.565  0.00  0.00    +0.000 A 
ATOM     21  C   UNL     1     114.815 130.973 141.053  0.00  0.00    +0.000 A 
ENDBRANCH  12  16
BRANCH   5  22
ATOM     22  O   UNL     1     111.798 126.129 138.419  0.00  0.00    +0.000 OA
BRANCH  22  30
ATOM     23  O   UNL     1     113.002 125.729 137.761  0.00  0.00    +0.000 OA
ATOM     24  O   UNL     1     111.851 123.727 136.872  0.00  0.00    +0.000 OA
ATOM     25  O   UNL     1     111.030 124.794 137.826  0.00  0.00    +0.000 OA
ATOM     26  O   UNL     1     113.438 123.994 136.511  0.00  0.00    +0.000 OA
ATOM     27  C   UNL     1     112.234 124.395 137.169  0.00  0.00    +0.000 C 
ATOM     28  C   UNL     1     111.824 124.928 137.645  0.00  0.00    +0.000 C 
ATOM     29  C   UNL     1     113.029 124.528 136.988  0.00  0.00    +0.000 C 
ATOM     30  C   UNL     1     112.207 125.595 137.942  0.00  0.00    +0.000 C 
ATOM     31  C   UNL     1     113.412 125.195 137.285  0.00  0.00    +0.000 C 
ENDBRANCH  22  30
ENDBRANCH   5  22
TORSDOF 3
ENDMDL
MODEL 7
REMARK VINA RESULT:      -9.7      4.456      7.509
REMARK  Name = 44258476
REMARK  3 active torsions:
REMARK  status: ('A' for Active; 'I' for Inactive)
REMARK    1  A    between atoms: O_2  and  C_15
REMARK    2  A    between atoms: O_2  and  C_17
REMARK    3  A    between atoms: C_24  and  C_26
REMARK                            x       y       z     vdW  Elec       q    Type
REMARK                         _______ _______ _______ _____ _____    ______ ____
ROOT
ATOM      1  O   UNL     1     106.573 125.288 146.305  0.00  0.00    +0.000 OA
ATOM      2  O   UNL     1     105.654 127.749 145.090  0.00  0.00    +0.000 OA
ATOM      3  O   UNL     1     105.578 125.311 143.601  0.00  0.00    +0.000 OA
ATOM      4  O   UNL     1     106.145 127.779 146.446  0.00  0.00    +0.000 OA
ATOM      5  C   UNL     1     105.616 126.530 144.345  0.00  0.00    +0.000 A 
ATOM      6  C   UNL     1     105.793 126.937 145.041  0.00  0.00    +0.000 A 
ATOM      7  C   UNL     1     106.107 126.533 145.687  0.00  0.00    +0.000 A 
ATOM      8  C   UNL     1     105.754 125.718 144.296  0.00  0.00    +0.000 A 
ATOM      9  C   UNL     1     106.245 125.720 145.638  0.00  0.00    +0.000 A 
ATOM     10  C   UNL     1     106.069 125.313 144.943  0.00  0.00    +0.000 A 
ATOM     11  C   UNL     1     106.287 126.967 146.406  0.00  0.00    +0.000 A 
ATOM     12  C   UNL     1     106.759 125.706 147.032  0.00  0.00    +0.000 A 
ATOM     13  C   UNL     1     106.615 126.553 147.083  0.00  0.00    +0.000 A 
ENDROOT
BRANCH  12  16
ATOM     14  O   UNL     1     106.382 124.225 149.446  0.00  0.00    +0.000 OA
ATOM     15  O   UNL     1     108.017 124.078 149.612  0.00  0.00    +0.000 OA
ATOM     16  C   UNL     1     107.073 125.299 147.676  0.00  0.00    +0.000 A 
ATOM     17  C   UNL     1     106.570 124.966 148.239  0.00  0.00    +0.000 A 
ATOM     18  C   UNL     1     107.891 125.226 147.759  0.00  0.00    +0.000 A 
ATOM     19  C   UNL     1     106.885 124.559 148.884  0.00  0.00    +0.000 A 
ATOM     20  C   UNL     1     108.205 124.818 148.405  0.00  0.00    +0.000 A 
ATOM     21  C   UNL     1     107.703 124.485 148.966  0.00  0.00    +0.000 A 
ENDBRANCH  12  16
BRANCH   5  22
ATOM     22  O   UNL     1     105.301 126.935 143.699  0.00  0.00    +0.000 OA
BRANCH  22  30
ATOM     23  O   UNL     1     106.618 127.130 143.177  0.00  0.00    +0.000 OA
ATOM     24  O   UNL     1     105.686 128.512 141.347  0.00  0.00    +0.000 OA
ATOM     25  O   UNL     1     104.680 127.855 142.479  0.00  0.00    +0.000 OA
ATOM     26  O   UNL     1     107.312 128.247 141.435  0.00  0.00    +0.000 OA
ATOM     27  C   UNL     1     105.995 128.051 141.957  0.00  0.00    +0.000 C 
ATOM     28  C   UNL     1     105.493 127.723 142.523  0.00  0.00    +0.000 C 
ATOM     29  C   UNL     1     106.810 127.918 142.001  0.00  0.00    +0.000 C 
ATOM     30  C   UNL     1     105.803 127.263 143.133  0.00  0.00    +0.000 C 
ATOM     31  C   UNL     1     107.120 127.458 142.611  0.00  0.00    +0.000 C 
ENDBRANCH  22  30
ENDBRANCH   5  22
TORSDOF 3
ENDMDL
MODEL 8
REMARK VINA RESULT:      -9.4      4.125      5.526
REMARK  Name = 44258476
REMARK  3 active torsions:
REMARK  status: ('A' for Active; 'I' for Inactive)
REMARK    1  A    between atoms: O_2  and  C_15
REMARK    2  A    between atoms: O_2  and  C_17
REMARK    3  A    between atoms: C_24  and  C_26
REMARK                            x       y       z     vdW  Elec       q    Type
REMARK                         _______ _______ _______ _____ _____    ______ ____
ROOT
ATOM      1  O   UNL     1     105.339 126.945 143.591  0.00  0.00    +0.000 OA
ATOM      2  O   UNL     1     107.200 127.165 145.797  0.00  0.00    +0.000 OA
ATOM      3  O   UNL     1     106.135 124.611 145.081  0.00  0.00    +0.000 OA
ATOM      4  O   UNL     1     106.827 128.357 145.076  0.00  0.00    +0.000 OA
ATOM      5  C   UNL     1     106.668 125.888 145.440  0.00  0.00    +0.000 A 
ATOM      6  C   UNL     1     106.716 126.702 145.315  0.00  0.00    +0.000 A 
ATOM      7  C   UNL     1     106.281 127.053 144.709  0.00  0.00    +0.000 A 
ATOM      8  C   UNL     1     106.183 125.425 144.957  0.00  0.00    +0.000 A 
ATOM      9  C   UNL     1     105.797 126.590 144.226  0.00  0.00    +0.000 A 
ATOM     10  C   UNL     1     105.748 125.777 144.350  0.00  0.00    +0.000 A 
ATOM     11  C   UNL     1     106.340 127.902 144.589  0.00  0.00    +0.000 A 
ATOM     12  C   UNL     1     105.386 127.792 143.457  0.00  0.00    +0.000 A 
ATOM     13  C   UNL     1     105.890 128.274 143.960  0.00  0.00    +0.000 A 
ENDROOT
BRANCH  12  16
ATOM     14  O   UNL     1     104.534 127.833 140.729  0.00  0.00    +0.000 OA
ATOM     15  O   UNL     1     103.641 129.188 141.027  0.00  0.00    +0.000 OA
ATOM     16  C   UNL     1     104.950 128.141 142.850  0.00  0.00    +0.000 A 
ATOM     17  C   UNL     1     104.960 127.812 142.093  0.00  0.00    +0.000 A 
ATOM     18  C   UNL     1     104.504 128.819 142.999  0.00  0.00    +0.000 A 
ATOM     19  C   UNL     1     104.524 128.161 141.486  0.00  0.00    +0.000 A 
ATOM     20  C   UNL     1     104.068 129.168 142.391  0.00  0.00    +0.000 A 
ATOM     21  C   UNL     1     104.078 128.839 141.635  0.00  0.00    +0.000 A 
ENDBRANCH  12  16
BRANCH   5  22
ATOM     22  O   UNL     1     107.102 125.536 146.046  0.00  0.00    +0.000 OA
BRANCH  22  30
ATOM     23  O   UNL     1     105.959 125.570 146.904  0.00  0.00    +0.000 OA
ATOM     24  O   UNL     1     107.384 124.932 148.825  0.00  0.00    +0.000 OA
ATOM     25  O   UNL     1     108.051 125.111 147.327  0.00  0.00    +0.000 OA
ATOM     26  O   UNL     1     105.767 125.179 149.042  0.00  0.00    +0.000 OA
ATOM     27  C   UNL     1     106.909 125.145 148.184  0.00  0.00    +0.000 C 
ATOM     28  C   UNL     1     107.243 125.234 147.435  0.00  0.00    +0.000 C 
ATOM     29  C   UNL     1     106.100 125.268 148.293  0.00  0.00    +0.000 C 
ATOM     30  C   UNL     1     106.769 125.447 146.795  0.00  0.00    +0.000 C 
ATOM     31  C   UNL     1     105.626 125.481 147.652  0.00  0.00    +0.000 C 
ENDBRANCH  22  30
ENDBRANCH   5  22
TORSDOF 3
ENDMDL
MODEL 9
REMARK VINA RESULT:      -9.4      4.756      6.328
REMARK  Name = 44258476
REMARK  3 active torsions:
REMARK  status: ('A' for Active; 'I' for Inactive)
REMARK    1  A    between atoms: O_2  and  C_15
REMARK    2  A    between atoms: O_2  and  C_17
REMARK    3  A    between atoms: C_24  and  C_26
REMARK                            x       y       z     vdW  Elec       q    Type
REMARK                         _______ _______ _______ _____ _____    ______ ____
ROOT
ATOM      1  O   UNL     1     103.295 130.280 142.423  0.00  0.00    +0.000 OA
ATOM      2  O   UNL     1     104.299 127.934 141.056  0.00  0.00    +0.000 OA
ATOM      3  O   UNL     1     105.103 128.469 143.746  0.00  0.00    +0.000 OA
ATOM      4  O   UNL     1     103.396 128.816 140.359  0.00  0.00    +0.000 OA
ATOM      5  C   UNL     1     104.702 128.201 142.401  0.00  0.00    +0.000 A 
ATOM      6  C   UNL     1     104.269 128.409 141.730  0.00  0.00    +0.000 A 
ATOM      7  C   UNL     1     103.805 129.091 141.733  0.00  0.00    +0.000 A 
ATOM      8  C   UNL     1     104.671 128.676 143.076  0.00  0.00    +0.000 A 
ATOM      9  C   UNL     1     103.774 129.566 142.408  0.00  0.00    +0.000 A 
ATOM     10  C   UNL     1     104.207 129.359 143.078  0.00  0.00    +0.000 A 
ATOM     11  C   UNL     1     103.359 129.297 141.028  0.00  0.00    +0.000 A 
ATOM     12  C   UNL     1     102.842 130.501 141.727  0.00  0.00    +0.000 A 
ATOM     13  C   UNL     1     102.874 130.006 141.025  0.00  0.00    +0.000 A 
ENDROOT
BRANCH  12  16
ATOM     14  O   UNL     1     102.581 133.317 141.320  0.00  0.00    +0.000 OA
ATOM     15  O   UNL     1     100.991 133.233 141.750  0.00  0.00    +0.000 OA
ATOM     16  C   UNL     1     102.379 131.184 141.733  0.00  0.00    +0.000 A 
ATOM     17  C   UNL     1     102.712 131.909 141.524  0.00  0.00    +0.000 A 
ATOM     18  C   UNL     1     101.584 131.141 141.948  0.00  0.00    +0.000 A 
ATOM     19  C   UNL     1     102.249 132.592 141.529  0.00  0.00    +0.000 A 
ATOM     20  C   UNL     1     101.121 131.825 141.953  0.00  0.00    +0.000 A 
ATOM     21  C   UNL     1     101.453 132.549 141.744  0.00  0.00    +0.000 A 
ENDBRANCH  12  16
BRANCH   5  22
ATOM     22  O   UNL     1     105.165 127.519 142.398  0.00  0.00    +0.000 OA
BRANCH  22  30
ATOM     23  O   UNL     1     106.288 128.258 141.912  0.00  0.00    +0.000 OA
ATOM     24  O   UNL     1     107.772 126.349 142.438  0.00  0.00    +0.000 OA
ATOM     25  O   UNL     1     106.155 126.246 142.749  0.00  0.00    +0.000 OA
ATOM     26  O   UNL     1     108.400 127.724 141.776  0.00  0.00    +0.000 OA
ATOM     27  C   UNL     1     107.277 126.985 142.263  0.00  0.00    +0.000 C 
ATOM     28  C   UNL     1     106.469 126.934 142.418  0.00  0.00    +0.000 C 
ATOM     29  C   UNL     1     107.591 127.673 141.932  0.00  0.00    +0.000 C 
ATOM     30  C   UNL     1     105.974 127.570 142.243  0.00  0.00    +0.000 C 
ATOM     31  C   UNL     1     107.096 128.309 141.756  0.00  0.00    +0.000 C 
ENDBRANCH  22  30
ENDBRANCH   5  22
TORSDOF 3
ENDMDL
MODEL 10
REMARK VINA RESULT:      -9.3      8.355      9.839
REMARK  Name = 44258476
REMARK  3 active torsions:
REMARK  status: ('A' for Active; 'I' for Inactive)
REMARK    1  A    between atoms: O_2  and  C_15
REMARK    2  A    between atoms: O_2  and  C_17
REMARK    3  A    between atoms: C_24  and  C_26
REMARK                            x       y       z     vdW  Elec       q    Type
REMARK                         _______ _______ _______ _____ _____    ______ ____
ROOT
ATOM      1  O   UNL     1     112.410 126.858 136.198  0.00  0.00    +0.000 OA
ATOM      2  O   UNL     1     112.047 129.718 135.945  0.00  0.00    +0.000 OA
ATOM      3  O   UNL     1     110.062 127.935 134.920  0.00  0.00    +0.000 OA
ATOM      4  O   UNL     1     113.236 129.219 136.591  0.00  0.00    +0.000 OA
ATOM      5  C   UNL     1     111.054 128.827 135.433  0.00  0.00    +0.000 A 
ATOM      6  C   UNL     1     111.775 128.950 135.815  0.00  0.00    +0.000 A 
ATOM      7  C   UNL     1     112.223 128.306 136.068  0.00  0.00    +0.000 A 
ATOM      8  C   UNL     1     110.782 128.058 135.303  0.00  0.00    +0.000 A 
ATOM      9  C   UNL     1     111.951 127.537 135.938  0.00  0.00    +0.000 A 
ATOM     10  C   UNL     1     111.232 127.414 135.556  0.00  0.00    +0.000 A 
ATOM     11  C   UNL     1     112.972 128.447 136.466  0.00  0.00    +0.000 A 
ATOM     12  C   UNL     1     113.161 126.980 136.596  0.00  0.00    +0.000 A 
ATOM     13  C   UNL     1     113.444 127.781 136.732  0.00  0.00    +0.000 A 
ENDROOT
BRANCH  12  16
ATOM     14  O   UNL     1     115.145 124.990 136.078  0.00  0.00    +0.000 OA
ATOM     15  O   UNL     1     114.948 124.395 137.604  0.00  0.00    +0.000 OA
ATOM     16  C   UNL     1     113.607 126.334 136.848  0.00  0.00    +0.000 A 
ATOM     17  C   UNL     1     114.153 125.985 136.337  0.00  0.00    +0.000 A 
ATOM     18  C   UNL     1     113.509 126.037 137.612  0.00  0.00    +0.000 A 
ATOM     19  C   UNL     1     114.599 125.339 136.589  0.00  0.00    +0.000 A 
ATOM     20  C   UNL     1     113.956 125.390 137.863  0.00  0.00    +0.000 A 
ATOM     21  C   UNL     1     114.501 125.042 137.352  0.00  0.00    +0.000 A 
ENDBRANCH  12  16
BRANCH   5  22
ATOM     22  O   UNL     1     110.606 129.471 135.180  0.00  0.00    +0.000 OA
BRANCH  22  30
ATOM     23  O   UNL     1     109.914 129.486 136.430  0.00  0.00    +0.000 OA
ATOM     24  O   UNL     1     108.414 131.260 135.579  0.00  0.00    +0.000 OA
ATOM     25  O   UNL     1     109.605 130.654 134.612  0.00  0.00    +0.000 OA
ATOM     26  O   UNL     1     108.222 130.683 137.113  0.00  0.00    +0.000 OA
ATOM     27  C   UNL     1     108.914 130.669 135.862  0.00  0.00    +0.000 C 
ATOM     28  C   UNL     1     109.510 130.366 135.379  0.00  0.00    +0.000 C 
ATOM     29  C   UNL     1     108.818 130.380 136.630  0.00  0.00    +0.000 C 
ATOM     30  C   UNL     1     110.010 129.774 135.663  0.00  0.00    +0.000 C 
ATOM     31  C   UNL     1     109.318 129.789 136.913  0.00  0.00    +0.000 C 
ENDBRANCH  22  30
ENDBRANCH   5  22
TORSDOF 3
ENDMDL
