MODEL 1
REMARK VINA RESULT:      -9.9      0.000      0.000
REMARK  Name = 44259096
REMARK  7 active torsions:
REMARK  status: ('A' for Active; 'I' for Inactive)
REMARK    1  A    between atoms: O_1  and  C_18
REMARK    2  A    between atoms: O_1  and  C_21
REMARK    3  A    between atoms: O_4  and  C_23
REMARK    4  A    between atoms: O_4  and  C_30
REMARK    5  A    between atoms: C_24  and  C_28
REMARK    6  A    between atoms: C_27  and  C_29
REMARK    7  A    between atoms: C_31  and  C_34
REMARK                            x       y       z     vdW  Elec       q    Type
REMARK                         _______ _______ _______ _____ _____    ______ ____
ROOT
ATOM      1  O   UNL     1     112.151 127.109 137.616  0.00  0.00    +0.000 OA
ENDROOT
BRANCH   1   6
ATOM      2  O   UNL     1     113.538 126.154 139.003  0.00  0.00    +0.000 OA
ATOM      3  O   UNL     1     112.482 128.362 138.637  0.00  0.00    +0.000 OA
ATOM      4  O   UNL     1     113.160 128.909 139.788  0.00  0.00    +0.000 OA
ATOM      5  O   UNL     1     114.939 127.189 141.337  0.00  0.00    +0.000 OA
ATOM      6  C   UNL     1     112.669 127.000 138.249  0.00  0.00    +0.000 A 
ATOM      7  C   UNL     1     113.021 126.263 138.370  0.00  0.00    +0.000 A 
ATOM      8  C   UNL     1     112.834 127.626 138.759  0.00  0.00    +0.000 A 
ATOM      9  C   UNL     1     113.352 127.516 139.392  0.00  0.00    +0.000 A 
ATOM     10  C   UNL     1     113.704 126.780 139.514  0.00  0.00    +0.000 A 
ATOM     11  C   UNL     1     113.516 128.176 139.918  0.00  0.00    +0.000 A 
ATOM     12  C   UNL     1     114.245 126.653 140.170  0.00  0.00    +0.000 A 
ATOM     13  C   UNL     1     114.055 128.068 140.578  0.00  0.00    +0.000 A 
ATOM     14  C   UNL     1     114.421 127.301 140.705  0.00  0.00    +0.000 A 
BRANCH   7  17
ATOM     15  O   UNL     1     111.292 124.152 137.521  0.00  0.00    +0.000 OA
ATOM     16  O   UNL     1     112.360 123.757 136.327  0.00  0.00    +0.000 OA
ATOM     17  C   UNL     1     112.855 125.637 137.860  0.00  0.00    +0.000 A 
ATOM     18  C   UNL     1     112.156 125.208 137.946  0.00  0.00    +0.000 A 
ATOM     19  C   UNL     1     113.389 125.440 137.263  0.00  0.00    +0.000 A 
ATOM     20  C   UNL     1     111.991 124.582 137.435  0.00  0.00    +0.000 A 
ATOM     21  C   UNL     1     113.224 124.813 136.751  0.00  0.00    +0.000 A 
ATOM     22  C   UNL     1     112.525 124.384 136.838  0.00  0.00    +0.000 A 
ENDBRANCH   7  17
ENDBRANCH   1   6
BRANCH   1  29
ATOM     23  O   UNL     1     113.052 127.867 136.805  0.00  0.00    +0.000 OA
ATOM     24  O   UNL     1     111.160 129.229 135.975  0.00  0.00    +0.000 OA
ATOM     25  O   UNL     1     112.691 129.532 135.442  0.00  0.00    +0.000 OA
ATOM     26  C   UNL     1     111.655 128.169 136.795  0.00  0.00    +0.000 C 
ATOM     27  C   UNL     1     111.791 128.775 136.252  0.00  0.00    +0.000 C 
ATOM     28  C   UNL     1     112.556 128.927 135.985  0.00  0.00    +0.000 C 
ATOM     29  C   UNL     1     112.286 127.715 137.072  0.00  0.00    +0.000 C 
ATOM     30  C   UNL     1     113.187 128.473 136.262  0.00  0.00    +0.000 C 
BRANCH  30  32
ATOM     31  O   UNL     1     114.379 128.031 135.609  0.00  0.00    +0.000 OA
ATOM     32  C   UNL     1     113.953 128.624 135.996  0.00  0.00    +0.000 C 
ENDBRANCH  30  32
BRANCH  26  33
ATOM     33  O   UNL     1     110.890 128.018 137.062  0.00  0.00    +0.000 OA
BRANCH  33  38
ATOM     34  O   UNL     1     110.608 127.307 135.855  0.00  0.00    +0.000 OA
ATOM     35  O   UNL     1     109.330 127.799 137.554  0.00  0.00    +0.000 OA
ATOM     36  O   UNL     1     108.269 126.979 136.593  0.00  0.00    +0.000 OA
ATOM     37  O   UNL     1     108.768 126.378 135.139  0.00  0.00    +0.000 OA
ATOM     38  C   UNL     1     110.359 127.608 136.581  0.00  0.00    +0.000 C 
ATOM     39  C   UNL     1     109.579 127.498 136.827  0.00  0.00    +0.000 C 
ATOM     40  C   UNL     1     109.048 127.089 136.347  0.00  0.00    +0.000 C 
ATOM     41  C   UNL     1     109.298 126.788 135.620  0.00  0.00    +0.000 C 
ATOM     42  C   UNL     1     110.077 126.897 135.374  0.00  0.00    +0.000 C 
BRANCH  42  44
ATOM     43  O   UNL     1     110.845 125.956 134.621  0.00  0.00    +0.000 OA
ATOM     44  C   UNL     1     110.327 126.597 134.647  0.00  0.00    +0.000 C 
ENDBRANCH  42  44
ENDBRANCH  33  38
ENDBRANCH  26  33
ENDBRANCH   1  29
TORSDOF 7
ENDMDL
MODEL 2
REMARK VINA RESULT:      -9.8      2.238      4.220
REMARK  Name = 44259096
REMARK  7 active torsions:
REMARK  status: ('A' for Active; 'I' for Inactive)
REMARK    1  A    between atoms: O_1  and  C_18
REMARK    2  A    between atoms: O_1  and  C_21
REMARK    3  A    between atoms: O_4  and  C_23
REMARK    4  A    between atoms: O_4  and  C_30
REMARK    5  A    between atoms: C_24  and  C_28
REMARK    6  A    between atoms: C_27  and  C_29
REMARK    7  A    between atoms: C_31  and  C_34
REMARK                            x       y       z     vdW  Elec       q    Type
REMARK                         _______ _______ _______ _____ _____    ______ ____
ROOT
ATOM      1  O   UNL     1     111.540 126.378 138.969  0.00  0.00    +0.000 OA
ENDROOT
BRANCH   1   6
ATOM      2  O   UNL     1     113.692 126.193 138.651  0.00  0.00    +0.000 OA
ATOM      3  O   UNL     1     111.582 125.239 137.775  0.00  0.00    +0.000 OA
ATOM      4  O   UNL     1     112.309 124.400 136.855  0.00  0.00    +0.000 OA
ATOM      5  O   UNL     1     115.226 124.528 136.819  0.00  0.00    +0.000 OA
ATOM      6  C   UNL     1     112.264 126.126 138.664  0.00  0.00    +0.000 A 
ATOM      7  C   UNL     1     112.968 126.444 138.956  0.00  0.00    +0.000 A 
ATOM      8  C   UNL     1     112.285 125.558 138.068  0.00  0.00    +0.000 A 
ATOM      9  C   UNL     1     113.009 125.306 137.762  0.00  0.00    +0.000 A 
ATOM     10  C   UNL     1     113.712 125.623 138.054  0.00  0.00    +0.000 A 
ATOM     11  C   UNL     1     113.018 124.712 137.140  0.00  0.00    +0.000 A 
ATOM     12  C   UNL     1     114.473 125.370 137.744  0.00  0.00    +0.000 A 
ATOM     13  C   UNL     1     113.769 124.446 136.819  0.00  0.00    +0.000 A 
ATOM     14  C   UNL     1     114.501 124.777 137.123  0.00  0.00    +0.000 A 
BRANCH   7  17
ATOM     15  O   UNL     1     113.007 129.185 139.766  0.00  0.00    +0.000 OA
ATOM     16  O   UNL     1     112.886 128.720 141.344  0.00  0.00    +0.000 OA
ATOM     17  C   UNL     1     112.947 127.013 139.553  0.00  0.00    +0.000 A 
ATOM     18  C   UNL     1     112.987 127.815 139.361  0.00  0.00    +0.000 A 
ATOM     19  C   UNL     1     112.887 126.781 140.342  0.00  0.00    +0.000 A 
ATOM     20  C   UNL     1     112.967 128.383 139.957  0.00  0.00    +0.000 A 
ATOM     21  C   UNL     1     112.866 127.350 140.940  0.00  0.00    +0.000 A 
ATOM     22  C   UNL     1     112.906 128.151 140.747  0.00  0.00    +0.000 A 
ENDBRANCH   7  17
ENDBRANCH   1   6
BRANCH   1  29
ATOM     23  O   UNL     1     111.153 127.142 137.826  0.00  0.00    +0.000 OA
ATOM     24  O   UNL     1     108.789 126.515 138.209  0.00  0.00    +0.000 OA
ATOM     25  O   UNL     1     109.189 127.488 136.938  0.00  0.00    +0.000 OA
ATOM     26  C   UNL     1     110.164 126.446 138.589  0.00  0.00    +0.000 C 
ATOM     27  C   UNL     1     109.577 126.724 138.081  0.00  0.00    +0.000 C 
ATOM     28  C   UNL     1     109.777 127.211 137.446  0.00  0.00    +0.000 C 
ATOM     29  C   UNL     1     110.952 126.655 138.462  0.00  0.00    +0.000 C 
ATOM     30  C   UNL     1     110.564 127.420 137.318  0.00  0.00    +0.000 C 
BRANCH  30  32
ATOM     31  O   UNL     1     111.134 128.632 136.821  0.00  0.00    +0.000 OA
ATOM     32  C   UNL     1     110.765 127.906 136.683  0.00  0.00    +0.000 C 
ENDBRANCH  30  32
BRANCH  26  33
ATOM     33  O   UNL     1     109.965 125.960 139.224  0.00  0.00    +0.000 OA
BRANCH  33  38
ATOM     34  O   UNL     1     109.615 127.107 140.002  0.00  0.00    +0.000 OA
ATOM     35  O   UNL     1     109.378 124.977 140.413  0.00  0.00    +0.000 OA
ATOM     36  O   UNL     1     108.735 125.633 141.784  0.00  0.00    +0.000 OA
ATOM     37  O   UNL     1     108.679 127.272 141.966  0.00  0.00    +0.000 OA
ATOM     38  C   UNL     1     109.643 126.288 139.910  0.00  0.00    +0.000 C 
ATOM     39  C   UNL     1     109.350 125.796 140.505  0.00  0.00    +0.000 C 
ATOM     40  C   UNL     1     109.028 126.124 141.190  0.00  0.00    +0.000 C 
ATOM     41  C   UNL     1     109.000 126.944 141.281  0.00  0.00    +0.000 C 
ATOM     42  C   UNL     1     109.293 127.435 140.687  0.00  0.00    +0.000 C 
BRANCH  42  44
ATOM     43  O   UNL     1     108.682 128.693 140.394  0.00  0.00    +0.000 OA
ATOM     44  C   UNL     1     109.265 128.255 140.777  0.00  0.00    +0.000 C 
ENDBRANCH  42  44
ENDBRANCH  33  38
ENDBRANCH  26  33
ENDBRANCH   1  29
TORSDOF 7
ENDMDL
MODEL 3
REMARK VINA RESULT:      -9.7      2.432      4.584
REMARK  Name = 44259096
REMARK  7 active torsions:
REMARK  status: ('A' for Active; 'I' for Inactive)
REMARK    1  A    between atoms: O_1  and  C_18
REMARK    2  A    between atoms: O_1  and  C_21
REMARK    3  A    between atoms: O_4  and  C_23
REMARK    4  A    between atoms: O_4  and  C_30
REMARK    5  A    between atoms: C_24  and  C_28
REMARK    6  A    between atoms: C_27  and  C_29
REMARK    7  A    between atoms: C_31  and  C_34
REMARK                            x       y       z     vdW  Elec       q    Type
REMARK                         _______ _______ _______ _____ _____    ______ ____
ROOT
ATOM      1  O   UNL     1     111.192 129.160 137.007  0.00  0.00    +0.000 OA
ENDROOT
BRANCH   1   6
ATOM      2  O   UNL     1     110.681 127.430 135.778  0.00  0.00    +0.000 OA
ATOM      3  O   UNL     1     112.094 127.985 137.734  0.00  0.00    +0.000 OA
ATOM      4  O   UNL     1     112.545 126.618 137.832  0.00  0.00    +0.000 OA
ATOM      5  O   UNL     1     111.548 124.653 135.915  0.00  0.00    +0.000 OA
ATOM      6  C   UNL     1     111.172 128.387 136.719  0.00  0.00    +0.000 A 
ATOM      7  C   UNL     1     110.701 128.203 136.067  0.00  0.00    +0.000 A 
ATOM      8  C   UNL     1     111.622 127.800 137.082  0.00  0.00    +0.000 A 
ATOM      9  C   UNL     1     111.603 127.028 136.793  0.00  0.00    +0.000 A 
ATOM     10  C   UNL     1     111.132 126.842 136.142  0.00  0.00    +0.000 A 
ATOM     11  C   UNL     1     112.077 126.423 137.180  0.00  0.00    +0.000 A 
ATOM     12  C   UNL     1     111.102 126.041 135.832  0.00  0.00    +0.000 A 
ATOM     13  C   UNL     1     112.060 125.617 136.884  0.00  0.00    +0.000 A 
ATOM     14  C   UNL     1     111.570 125.425 136.206  0.00  0.00    +0.000 A 
BRANCH   7  17
ATOM     15  O   UNL     1     108.318 129.776 135.948  0.00  0.00    +0.000 OA
ATOM     16  O   UNL     1     108.897 130.553 134.613  0.00  0.00    +0.000 OA
ATOM     17  C   UNL     1     110.250 128.790 135.704  0.00  0.00    +0.000 A 
ATOM     18  C   UNL     1     109.509 128.990 136.008  0.00  0.00    +0.000 A 
ATOM     19  C   UNL     1     110.540 129.179 135.036  0.00  0.00    +0.000 A 
ATOM     20  C   UNL     1     109.059 129.577 135.644  0.00  0.00    +0.000 A 
ATOM     21  C   UNL     1     110.089 129.767 134.672  0.00  0.00    +0.000 A 
ATOM     22  C   UNL     1     109.348 129.965 134.977  0.00  0.00    +0.000 A 
ENDBRANCH   7  17
ENDBRANCH   1   6
BRANCH   1  29
ATOM     23  O   UNL     1     112.503 129.463 136.528  0.00  0.00    +0.000 OA
ATOM     24  O   UNL     1     112.903 130.881 138.516  0.00  0.00    +0.000 OA
ATOM     25  O   UNL     1     114.080 130.711 137.374  0.00  0.00    +0.000 OA
ATOM     26  C   UNL     1     112.047 130.021 137.762  0.00  0.00    +0.000 C 
ATOM     27  C   UNL     1     112.770 130.408 137.853  0.00  0.00    +0.000 C 
ATOM     28  C   UNL     1     113.359 130.324 137.283  0.00  0.00    +0.000 C 
ATOM     29  C   UNL     1     111.914 129.548 137.099  0.00  0.00    +0.000 C 
ATOM     30  C   UNL     1     113.225 129.851 136.620  0.00  0.00    +0.000 C 
BRANCH  30  32
ATOM     31  O   UNL     1     113.664 129.983 135.266  0.00  0.00    +0.000 OA
ATOM     32  C   UNL     1     113.814 129.765 136.048  0.00  0.00    +0.000 C 
ENDBRANCH  30  32
BRANCH  26  33
ATOM     33  O   UNL     1     111.458 130.106 138.333  0.00  0.00    +0.000 OA
BRANCH  33  38
ATOM     34  O   UNL     1     111.131 131.392 137.804  0.00  0.00    +0.000 OA
ATOM     35  O   UNL     1     110.294 130.285 139.489  0.00  0.00    +0.000 OA
ATOM     36  O   UNL     1     109.385 131.661 139.537  0.00  0.00    +0.000 OA
ATOM     37  O   UNL     1     109.640 132.858 138.431  0.00  0.00    +0.000 OA
ATOM     38  C   UNL     1     111.004 130.794 138.357  0.00  0.00    +0.000 C 
ATOM     39  C   UNL     1     110.421 130.884 138.936  0.00  0.00    +0.000 C 
ATOM     40  C   UNL     1     109.967 131.572 138.960  0.00  0.00    +0.000 C 
ATOM     41  C   UNL     1     110.095 132.170 138.406  0.00  0.00    +0.000 C 
ATOM     42  C   UNL     1     110.676 132.081 137.829  0.00  0.00    +0.000 C 
BRANCH  42  44
ATOM     43  O   UNL     1     110.492 132.612 136.515  0.00  0.00    +0.000 OA
ATOM     44  C   UNL     1     110.804 132.679 137.275  0.00  0.00    +0.000 C 
ENDBRANCH  42  44
ENDBRANCH  33  38
ENDBRANCH  26  33
ENDBRANCH   1  29
TORSDOF 7
ENDMDL
MODEL 4
REMARK VINA RESULT:      -9.7      1.510      3.629
REMARK  Name = 44259096
REMARK  7 active torsions:
REMARK  status: ('A' for Active; 'I' for Inactive)
REMARK    1  A    between atoms: O_1  and  C_18
REMARK    2  A    between atoms: O_1  and  C_21
REMARK    3  A    between atoms: O_4  and  C_23
REMARK    4  A    between atoms: O_4  and  C_30
REMARK    5  A    between atoms: C_24  and  C_28
REMARK    6  A    between atoms: C_27  and  C_29
REMARK    7  A    between atoms: C_31  and  C_34
REMARK                            x       y       z     vdW  Elec       q    Type
REMARK                         _______ _______ _______ _____ _____    ______ ____
ROOT
ATOM      1  O   UNL     1     112.461 127.668 138.137  0.00  0.00    +0.000 OA
ENDROOT
BRANCH   1   6
ATOM      2  O   UNL     1     113.383 129.646 138.124  0.00  0.00    +0.000 OA
ATOM      3  O   UNL     1     112.969 127.785 139.702  0.00  0.00    +0.000 OA
ATOM      4  O   UNL     1     113.617 128.507 140.770  0.00  0.00    +0.000 OA
ATOM      5  O   UNL     1     114.704 131.163 140.230  0.00  0.00    +0.000 OA
ATOM      6  C   UNL     1     112.853 128.347 138.394  0.00  0.00    +0.000 A 
ATOM      7  C   UNL     1     112.991 128.967 137.867  0.00  0.00    +0.000 A 
ATOM      8  C   UNL     1     113.107 128.405 139.176  0.00  0.00    +0.000 A 
ATOM      9  C   UNL     1     113.499 129.084 139.433  0.00  0.00    +0.000 A 
ATOM     10  C   UNL     1     113.638 129.704 138.907  0.00  0.00    +0.000 A 
ATOM     11  C   UNL     1     113.760 129.133 140.251  0.00  0.00    +0.000 A 
ATOM     12  C   UNL     1     114.045 130.417 139.162  0.00  0.00    +0.000 A 
ATOM     13  C   UNL     1     114.169 129.837 140.524  0.00  0.00    +0.000 A 
ATOM     14  C   UNL     1     114.312 130.483 139.976  0.00  0.00    +0.000 A 
BRANCH   7  17
ATOM     15  O   UNL     1     111.066 129.558 135.839  0.00  0.00    +0.000 OA
ATOM     16  O   UNL     1     111.975 128.734 134.736  0.00  0.00    +0.000 OA
ATOM     17  C   UNL     1     112.737 128.909 137.085  0.00  0.00    +0.000 A 
ATOM     18  C   UNL     1     112.028 129.263 136.853  0.00  0.00    +0.000 A 
ATOM     19  C   UNL     1     113.191 128.497 136.533  0.00  0.00    +0.000 A 
ATOM     20  C   UNL     1     111.774 129.205 136.071  0.00  0.00    +0.000 A 
ATOM     21  C   UNL     1     112.937 128.439 135.750  0.00  0.00    +0.000 A 
ATOM     22  C   UNL     1     112.229 128.793 135.519  0.00  0.00    +0.000 A 
ENDBRANCH   7  17
ENDBRANCH   1   6
BRANCH   1  29
ATOM     23  O   UNL     1     111.226 127.942 138.802  0.00  0.00    +0.000 OA
ATOM     24  O   UNL     1     110.913 125.522 139.217  0.00  0.00    +0.000 OA
ATOM     25  O   UNL     1     109.783 126.602 139.743  0.00  0.00    +0.000 OA
ATOM     26  C   UNL     1     111.687 126.594 138.677  0.00  0.00    +0.000 C 
ATOM     27  C   UNL     1     111.017 126.328 139.078  0.00  0.00    +0.000 C 
ATOM     28  C   UNL     1     110.452 126.868 139.341  0.00  0.00    +0.000 C 
ATOM     29  C   UNL     1     111.792 127.401 138.538  0.00  0.00    +0.000 C 
ATOM     30  C   UNL     1     110.557 127.675 139.203  0.00  0.00    +0.000 C 
BRANCH  30  32
ATOM     31  O   UNL     1     109.541 128.639 138.919  0.00  0.00    +0.000 OA
ATOM     32  C   UNL     1     109.992 128.215 139.466  0.00  0.00    +0.000 C 
ENDBRANCH  30  32
BRANCH  26  33
ATOM     33  O   UNL     1     112.252 126.055 138.414  0.00  0.00    +0.000 OA
BRANCH  33  38
ATOM     34  O   UNL     1     111.409 125.708 137.313  0.00  0.00    +0.000 OA
ATOM     35  O   UNL     1     113.367 124.949 137.907  0.00  0.00    +0.000 OA
ATOM     36  O   UNL     1     113.081 124.049 136.554  0.00  0.00    +0.000 OA
ATOM     37  O   UNL     1     111.680 124.255 135.707  0.00  0.00    +0.000 OA
ATOM     38  C   UNL     1     112.109 125.605 137.737  0.00  0.00    +0.000 C 
ATOM     39  C   UNL     1     112.667 125.051 137.483  0.00  0.00    +0.000 C 
ATOM     40  C   UNL     1     112.524 124.601 136.807  0.00  0.00    +0.000 C 
ATOM     41  C   UNL     1     111.823 124.705 136.384  0.00  0.00    +0.000 C 
ATOM     42  C   UNL     1     111.266 125.258 136.636  0.00  0.00    +0.000 C 
BRANCH  42  44
ATOM     43  O   UNL     1     110.457 126.037 135.753  0.00  0.00    +0.000 OA
ATOM     44  C   UNL     1     110.565 125.362 136.213  0.00  0.00    +0.000 C 
ENDBRANCH  42  44
ENDBRANCH  33  38
ENDBRANCH  26  33
ENDBRANCH   1  29
TORSDOF 7
ENDMDL
MODEL 5
REMARK VINA RESULT:      -9.7      1.565      4.468
REMARK  Name = 44259096
REMARK  7 active torsions:
REMARK  status: ('A' for Active; 'I' for Inactive)
REMARK    1  A    between atoms: O_1  and  C_18
REMARK    2  A    between atoms: O_1  and  C_21
REMARK    3  A    between atoms: O_4  and  C_23
REMARK    4  A    between atoms: O_4  and  C_30
REMARK    5  A    between atoms: C_24  and  C_28
REMARK    6  A    between atoms: C_27  and  C_29
REMARK    7  A    between atoms: C_31  and  C_34
REMARK                            x       y       z     vdW  Elec       q    Type
REMARK                         _______ _______ _______ _____ _____    ______ ____
ROOT
ATOM      1  O   UNL     1     112.284 127.485 137.925  0.00  0.00    +0.000 OA
ENDROOT
BRANCH   1   6
ATOM      2  O   UNL     1     112.434 125.320 138.161  0.00  0.00    +0.000 OA
ATOM      3  O   UNL     1     111.703 126.972 136.468  0.00  0.00    +0.000 OA
ATOM      4  O   UNL     1     111.354 125.917 135.547  0.00  0.00    +0.000 OA
ATOM      5  O   UNL     1     111.753 123.139 136.355  0.00  0.00    +0.000 OA
ATOM      6  C   UNL     1     112.237 126.677 137.761  0.00  0.00    +0.000 A 
ATOM      7  C   UNL     1     112.481 126.127 138.325  0.00  0.00    +0.000 A 
ATOM      8  C   UNL     1     111.947 126.421 137.033  0.00  0.00    +0.000 A 
ATOM      9  C   UNL     1     111.900 125.614 136.868  0.00  0.00    +0.000 A 
ATOM     10  C   UNL     1     112.143 125.063 137.432  0.00  0.00    +0.000 A 
ATOM     11  C   UNL     1     111.596 125.359 136.106  0.00  0.00    +0.000 A 
ATOM     12  C   UNL     1     112.100 124.220 137.273  0.00  0.00    +0.000 A 
ATOM     13  C   UNL     1     111.545 124.520 135.929  0.00  0.00    +0.000 A 
ATOM     14  C   UNL     1     111.798 123.947 136.516  0.00  0.00    +0.000 A 
BRANCH   7  17
ATOM     15  O   UNL     1     112.057 126.720 141.089  0.00  0.00    +0.000 OA
ATOM     16  O   UNL     1     113.643 127.152 141.239  0.00  0.00    +0.000 OA
ATOM     17  C   UNL     1     112.771 126.383 139.053  0.00  0.00    +0.000 A 
ATOM     18  C   UNL     1     112.269 126.424 139.707  0.00  0.00    +0.000 A 
ATOM     19  C   UNL     1     113.563 126.599 139.128  0.00  0.00    +0.000 A 
ATOM     20  C   UNL     1     112.559 126.680 140.435  0.00  0.00    +0.000 A 
ATOM     21  C   UNL     1     113.854 126.856 139.857  0.00  0.00    +0.000 A 
ATOM     22  C   UNL     1     113.352 126.896 140.510  0.00  0.00    +0.000 A 
ENDBRANCH   7  17
ENDBRANCH   1   6
BRANCH   1  29
ATOM     23  O   UNL     1     110.883 127.686 138.124  0.00  0.00    +0.000 OA
ATOM     24  O   UNL     1     111.061 129.932 137.100  0.00  0.00    +0.000 OA
ATOM     25  O   UNL     1     109.602 129.385 137.641  0.00  0.00    +0.000 OA
ATOM     26  C   UNL     1     111.673 128.709 137.512  0.00  0.00    +0.000 C 
ATOM     27  C   UNL     1     111.002 129.184 137.442  0.00  0.00    +0.000 C 
ATOM     28  C   UNL     1     110.272 128.910 137.712  0.00  0.00    +0.000 C 
ATOM     29  C   UNL     1     111.614 127.960 137.854  0.00  0.00    +0.000 C 
ATOM     30  C   UNL     1     110.213 128.162 138.053  0.00  0.00    +0.000 C 
BRANCH  30  32
ATOM     31  O   UNL     1     109.382 127.705 139.123  0.00  0.00    +0.000 OA
ATOM     32  C   UNL     1     109.484 127.888 138.324  0.00  0.00    +0.000 C 
ENDBRANCH  30  32
BRANCH  26  33
ATOM     33  O   UNL     1     112.402 128.982 137.242  0.00  0.00    +0.000 OA
BRANCH  33  38
ATOM     34  O   UNL     1     112.612 129.668 138.478  0.00  0.00    +0.000 OA
ATOM     35  O   UNL     1     113.751 129.699 136.617  0.00  0.00    +0.000 OA
ATOM     36  O   UNL     1     114.634 130.742 137.541  0.00  0.00    +0.000 OA
ATOM     37  O   UNL     1     114.169 131.069 139.090  0.00  0.00    +0.000 OA
ATOM     38  C   UNL     1     112.844 129.504 137.704  0.00  0.00    +0.000 C 
ATOM     39  C   UNL     1     113.519 129.863 137.391  0.00  0.00    +0.000 C 
ATOM     40  C   UNL     1     113.960 130.384 137.853  0.00  0.00    +0.000 C 
ATOM     41  C   UNL     1     113.727 130.548 138.628  0.00  0.00    +0.000 C 
ATOM     42  C   UNL     1     113.053 130.190 138.940  0.00  0.00    +0.000 C 
BRANCH  42  44
ATOM     43  O   UNL     1     112.178 130.850 139.857  0.00  0.00    +0.000 OA
ATOM     44  C   UNL     1     112.820 130.353 139.715  0.00  0.00    +0.000 C 
ENDBRANCH  42  44
ENDBRANCH  33  38
ENDBRANCH  26  33
ENDBRANCH   1  29
TORSDOF 7
ENDMDL
MODEL 6
REMARK VINA RESULT:      -9.7      1.686      3.909
REMARK  Name = 44259096
REMARK  7 active torsions:
REMARK  status: ('A' for Active; 'I' for Inactive)
REMARK    1  A    between atoms: O_1  and  C_18
REMARK    2  A    between atoms: O_1  and  C_21
REMARK    3  A    between atoms: O_4  and  C_23
REMARK    4  A    between atoms: O_4  and  C_30
REMARK    5  A    between atoms: C_24  and  C_28
REMARK    6  A    between atoms: C_27  and  C_29
REMARK    7  A    between atoms: C_31  and  C_34
REMARK                            x       y       z     vdW  Elec       q    Type
REMARK                         _______ _______ _______ _____ _____    ______ ____
ROOT
ATOM      1  O   UNL     1     111.200 127.826 136.982  0.00  0.00    +0.000 OA
ENDROOT
BRANCH   1   6
ATOM      2  O   UNL     1     112.808 126.512 136.311  0.00  0.00    +0.000 OA
ATOM      3  O   UNL     1     110.697 126.379 137.596  0.00  0.00    +0.000 OA
ATOM      4  O   UNL     1     110.876 124.962 137.799  0.00  0.00    +0.000 OA
ATOM      5  O   UNL     1     113.234 123.655 136.679  0.00  0.00    +0.000 OA
ATOM      6  C   UNL     1     111.652 127.146 136.861  0.00  0.00    +0.000 A 
ATOM      7  C   UNL     1     112.356 127.191 136.432  0.00  0.00    +0.000 A 
ATOM      8  C   UNL     1     111.401 126.424 137.168  0.00  0.00    +0.000 A 
ATOM      9  C   UNL     1     111.853 125.745 137.046  0.00  0.00    +0.000 A 
ATOM     10  C   UNL     1     112.557 125.788 136.618  0.00  0.00    +0.000 A 
ATOM     11  C   UNL     1     111.581 124.996 137.371  0.00  0.00    +0.000 A 
ATOM     12  C   UNL     1     113.037 125.088 136.484  0.00  0.00    +0.000 A 
ATOM     13  C   UNL     1     112.048 124.286 137.248  0.00  0.00    +0.000 A 
ATOM     14  C   UNL     1     112.780 124.332 136.802  0.00  0.00    +0.000 A 
BRANCH   7  17
ATOM     15  O   UNL     1     114.009 129.516 136.610  0.00  0.00    +0.000 OA
ATOM     16  O   UNL     1     113.362 130.084 135.203  0.00  0.00    +0.000 OA
ATOM     17  C   UNL     1     112.607 127.914 136.125  0.00  0.00    +0.000 A 
ATOM     18  C   UNL     1     113.183 128.353 136.521  0.00  0.00    +0.000 A 
ATOM     19  C   UNL     1     112.284 128.198 135.422  0.00  0.00    +0.000 A 
ATOM     20  C   UNL     1     113.434 129.076 136.214  0.00  0.00    +0.000 A 
ATOM     21  C   UNL     1     112.535 128.922 135.114  0.00  0.00    +0.000 A 
ATOM     22  C   UNL     1     113.110 129.360 135.510  0.00  0.00    +0.000 A 
ENDBRANCH   7  17
ENDBRANCH   1   6
BRANCH   1  29
ATOM     23  O   UNL     1     111.543 127.996 138.359  0.00  0.00    +0.000 OA
ATOM     24  O   UNL     1     109.262 128.838 138.822  0.00  0.00    +0.000 OA
ATOM     25  O   UNL     1     110.365 128.727 140.044  0.00  0.00    +0.000 OA
ATOM     26  C   UNL     1     110.231 128.332 137.902  0.00  0.00    +0.000 C 
ATOM     27  C   UNL     1     110.022 128.557 138.668  0.00  0.00    +0.000 C 
ATOM     28  C   UNL     1     110.573 128.502 139.279  0.00  0.00    +0.000 C 
ATOM     29  C   UNL     1     110.991 128.051 137.747  0.00  0.00    +0.000 C 
ATOM     30  C   UNL     1     111.333 128.221 139.124  0.00  0.00    +0.000 C 
BRANCH  30  32
ATOM     31  O   UNL     1     112.596 128.583 139.688  0.00  0.00    +0.000 OA
ATOM     32  C   UNL     1     111.885 128.165 139.735  0.00  0.00    +0.000 C 
ENDBRANCH  30  32
BRANCH  26  33
ATOM     33  O   UNL     1     109.680 128.388 137.291  0.00  0.00    +0.000 OA
BRANCH  33  38
ATOM     34  O   UNL     1     109.905 129.797 137.214  0.00  0.00    +0.000 OA
ATOM     35  O   UNL     1     108.519 128.510 136.125  0.00  0.00    +0.000 OA
ATOM     36  O   UNL     1     108.163 129.981 135.466  0.00  0.00    +0.000 OA
ATOM     37  O   UNL     1     108.969 131.328 135.973  0.00  0.00    +0.000 OA
ATOM     38  C   UNL     1     109.502 129.123 136.962  0.00  0.00    +0.000 C 
ATOM     39  C   UNL     1     108.921 129.184 136.378  0.00  0.00    +0.000 C 
ATOM     40  C   UNL     1     108.743 129.919 136.049  0.00  0.00    +0.000 C 
ATOM     41  C   UNL     1     109.147 130.593 136.303  0.00  0.00    +0.000 C 
ATOM     42  C   UNL     1     109.727 130.532 136.885  0.00  0.00    +0.000 C 
BRANCH  42  44
ATOM     43  O   UNL     1     110.923 131.311 136.941  0.00  0.00    +0.000 OA
ATOM     44  C   UNL     1     110.130 131.206 137.139  0.00  0.00    +0.000 C 
ENDBRANCH  42  44
ENDBRANCH  33  38
ENDBRANCH  26  33
ENDBRANCH   1  29
TORSDOF 7
ENDMDL
MODEL 7
REMARK VINA RESULT:      -9.6      1.835      3.121
REMARK  Name = 44259096
REMARK  7 active torsions:
REMARK  status: ('A' for Active; 'I' for Inactive)
REMARK    1  A    between atoms: O_1  and  C_18
REMARK    2  A    between atoms: O_1  and  C_21
REMARK    3  A    between atoms: O_4  and  C_23
REMARK    4  A    between atoms: O_4  and  C_30
REMARK    5  A    between atoms: C_24  and  C_28
REMARK    6  A    between atoms: C_27  and  C_29
REMARK    7  A    between atoms: C_31  and  C_34
REMARK                            x       y       z     vdW  Elec       q    Type
REMARK                         _______ _______ _______ _____ _____    ______ ____
ROOT
ATOM      1  O   UNL     1     111.592 127.819 137.345  0.00  0.00    +0.000 OA
ENDROOT
BRANCH   1   6
ATOM      2  O   UNL     1     112.305 125.875 138.034  0.00  0.00    +0.000 OA
ATOM      3  O   UNL     1     113.006 127.690 136.505  0.00  0.00    +0.000 OA
ATOM      4  O   UNL     1     114.206 126.971 136.154  0.00  0.00    +0.000 OA
ATOM      5  O   UNL     1     114.706 124.365 137.373  0.00  0.00    +0.000 OA
ATOM      6  C   UNL     1     112.065 127.149 137.435  0.00  0.00    +0.000 A 
ATOM      7  C   UNL     1     111.831 126.544 137.945  0.00  0.00    +0.000 A 
ATOM      8  C   UNL     1     112.772 127.085 137.015  0.00  0.00    +0.000 A 
ATOM      9  C   UNL     1     113.246 126.416 137.105  0.00  0.00    +0.000 A 
ATOM     10  C   UNL     1     113.013 125.810 137.614  0.00  0.00    +0.000 A 
ATOM     11  C   UNL     1     113.981 126.360 136.662  0.00  0.00    +0.000 A 
ATOM     12  C   UNL     1     113.497 125.108 137.716  0.00  0.00    +0.000 A 
ATOM     13  C   UNL     1     114.478 125.665 136.751  0.00  0.00    +0.000 A 
ATOM     14  C   UNL     1     114.234 125.036 137.282  0.00  0.00    +0.000 A 
BRANCH   7  17
ATOM     15  O   UNL     1     108.984 126.315 138.049  0.00  0.00    +0.000 OA
ATOM     16  O   UNL     1     109.003 126.801 139.626  0.00  0.00    +0.000 OA
ATOM     17  C   UNL     1     111.125 126.608 138.365  0.00  0.00    +0.000 A 
ATOM     18  C   UNL     1     110.408 126.430 137.997  0.00  0.00    +0.000 A 
ATOM     19  C   UNL     1     111.134 126.851 139.153  0.00  0.00    +0.000 A 
ATOM     20  C   UNL     1     109.701 126.494 138.417  0.00  0.00    +0.000 A 
ATOM     21  C   UNL     1     110.427 126.915 139.574  0.00  0.00    +0.000 A 
ATOM     22  C   UNL     1     109.711 126.736 139.205  0.00  0.00    +0.000 A 
ENDBRANCH   7  17
ENDBRANCH   1   6
BRANCH   1  29
ATOM     23  O   UNL     1     112.433 128.697 138.096  0.00  0.00    +0.000 OA
ATOM     24  O   UNL     1     111.822 130.566 136.593  0.00  0.00    +0.000 OA
ATOM     25  O   UNL     1     112.866 130.821 137.844  0.00  0.00    +0.000 OA
ATOM     26  C   UNL     1     111.707 129.193 136.968  0.00  0.00    +0.000 C 
ATOM     27  C   UNL     1     112.026 129.943 137.094  0.00  0.00    +0.000 C 
ATOM     28  C   UNL     1     112.547 130.071 137.719  0.00  0.00    +0.000 C 
ATOM     29  C   UNL     1     111.910 128.570 137.470  0.00  0.00    +0.000 C 
ATOM     30  C   UNL     1     112.751 129.448 138.220  0.00  0.00    +0.000 C 
BRANCH  30  32
ATOM     31  O   UNL     1     113.028 129.436 139.622  0.00  0.00    +0.000 OA
ATOM     32  C   UNL     1     113.273 129.575 138.846  0.00  0.00    +0.000 C 
ENDBRANCH  30  32
BRANCH  26  33
ATOM     33  O   UNL     1     111.185 129.065 136.343  0.00  0.00    +0.000 OA
BRANCH  33  38
ATOM     34  O   UNL     1     110.134 129.678 137.094  0.00  0.00    +0.000 OA
ATOM     35  O   UNL     1     110.131 128.775 135.107  0.00  0.00    +0.000 OA
ATOM     36  O   UNL     1     108.555 129.244 135.239  0.00  0.00    +0.000 OA
ATOM     37  O   UNL     1     108.032 130.002 136.608  0.00  0.00    +0.000 OA
ATOM     38  C   UNL     1     110.397 129.299 136.409  0.00  0.00    +0.000 C 
ATOM     39  C   UNL     1     109.869 129.154 135.791  0.00  0.00    +0.000 C 
ATOM     40  C   UNL     1     109.081 129.388 135.857  0.00  0.00    +0.000 C 
ATOM     41  C   UNL     1     108.820 129.767 136.542  0.00  0.00    +0.000 C 
ATOM     42  C   UNL     1     109.346 129.912 137.160  0.00  0.00    +0.000 C 
BRANCH  42  44
ATOM     43  O   UNL     1     108.889 129.849 138.512  0.00  0.00    +0.000 OA
ATOM     44  C   UNL     1     109.085 130.291 137.845  0.00  0.00    +0.000 C 
ENDBRANCH  42  44
ENDBRANCH  33  38
ENDBRANCH  26  33
ENDBRANCH   1  29
TORSDOF 7
ENDMDL
MODEL 8
REMARK VINA RESULT:      -9.6      1.590      4.702
REMARK  Name = 44259096
REMARK  7 active torsions:
REMARK  status: ('A' for Active; 'I' for Inactive)
REMARK    1  A    between atoms: O_1  and  C_18
REMARK    2  A    between atoms: O_1  and  C_21
REMARK    3  A    between atoms: O_4  and  C_23
REMARK    4  A    between atoms: O_4  and  C_30
REMARK    5  A    between atoms: C_24  and  C_28
REMARK    6  A    between atoms: C_27  and  C_29
REMARK    7  A    between atoms: C_31  and  C_34
REMARK                            x       y       z     vdW  Elec       q    Type
REMARK                         _______ _______ _______ _____ _____    ______ ____
ROOT
ATOM      1  O   UNL     1     112.487 127.676 137.792  0.00  0.00    +0.000 OA
ENDROOT
BRANCH   1   6
ATOM      2  O   UNL     1     112.527 126.199 136.186  0.00  0.00    +0.000 OA
ATOM      3  O   UNL     1     111.857 126.361 138.563  0.00  0.00    +0.000 OA
ATOM      4  O   UNL     1     111.438 124.980 138.570  0.00  0.00    +0.000 OA
ATOM      5  O   UNL     1     111.704 123.406 136.125  0.00  0.00    +0.000 OA
ATOM      6  C   UNL     1     112.395 126.964 137.385  0.00  0.00    +0.000 A 
ATOM      7  C   UNL     1     112.619 126.911 136.593  0.00  0.00    +0.000 A 
ATOM      8  C   UNL     1     112.080 126.307 137.771  0.00  0.00    +0.000 A 
ATOM      9  C   UNL     1     111.989 125.595 137.364  0.00  0.00    +0.000 A 
ATOM     10  C   UNL     1     112.212 125.540 136.572  0.00  0.00    +0.000 A 
ATOM     11  C   UNL     1     111.659 124.917 137.777  0.00  0.00    +0.000 A 
ATOM     12  C   UNL     1     112.122 124.805 136.137  0.00  0.00    +0.000 A 
ATOM     13  C   UNL     1     111.562 124.173 137.359  0.00  0.00    +0.000 A 
ATOM     14  C   UNL     1     111.795 124.116 136.534  0.00  0.00    +0.000 A 
BRANCH   7  17
ATOM     15  O   UNL     1     112.274 129.191 134.904  0.00  0.00    +0.000 OA
ATOM     16  O   UNL     1     113.880 129.541 135.049  0.00  0.00    +0.000 OA
ATOM     17  C   UNL     1     112.934 127.568 136.207  0.00  0.00    +0.000 A 
ATOM     18  C   UNL     1     112.446 128.051 135.748  0.00  0.00    +0.000 A 
ATOM     19  C   UNL     1     113.737 127.743 136.279  0.00  0.00    +0.000 A 
ATOM     20  C   UNL     1     112.761 128.708 135.363  0.00  0.00    +0.000 A 
ATOM     21  C   UNL     1     114.052 128.401 135.893  0.00  0.00    +0.000 A 
ATOM     22  C   UNL     1     113.564 128.883 135.435  0.00  0.00    +0.000 A 
ENDBRANCH   7  17
ENDBRANCH   1   6
BRANCH   1  29
ATOM     23  O   UNL     1     111.107 128.050 137.797  0.00  0.00    +0.000 OA
ATOM     24  O   UNL     1     111.371 128.987 140.073  0.00  0.00    +0.000 OA
ATOM     25  O   UNL     1     109.905 129.048 139.320  0.00  0.00    +0.000 OA
ATOM     26  C   UNL     1     111.929 128.332 138.933  0.00  0.00    +0.000 C 
ATOM     27  C   UNL     1     111.283 128.675 139.314  0.00  0.00    +0.000 C 
ATOM     28  C   UNL     1     110.550 128.705 138.938  0.00  0.00    +0.000 C 
ATOM     29  C   UNL     1     111.841 128.019 138.174  0.00  0.00    +0.000 C 
ATOM     30  C   UNL     1     110.462 128.393 138.180  0.00  0.00    +0.000 C 
BRANCH  30  32
ATOM     31  O   UNL     1     109.657 128.799 137.072  0.00  0.00    +0.000 OA
ATOM     32  C   UNL     1     109.729 128.423 137.803  0.00  0.00    +0.000 C 
ENDBRANCH  30  32
BRANCH  26  33
ATOM     33  O   UNL     1     112.662 128.301 139.308  0.00  0.00    +0.000 OA
BRANCH  33  38
ATOM     34  O   UNL     1     113.030 129.595 138.823  0.00  0.00    +0.000 OA
ATOM     35  O   UNL     1     113.773 128.441 140.521  0.00  0.00    +0.000 OA
ATOM     36  O   UNL     1     114.695 129.804 140.641  0.00  0.00    +0.000 OA
ATOM     37  O   UNL     1     114.507 131.027 139.549  0.00  0.00    +0.000 OA
ATOM     38  C   UNL     1     113.123 128.983 139.369  0.00  0.00    +0.000 C 
ATOM     39  C   UNL     1     113.679 129.053 139.975  0.00  0.00    +0.000 C 
ATOM     40  C   UNL     1     114.141 129.734 140.035  0.00  0.00    +0.000 C 
ATOM     41  C   UNL     1     114.046 130.346 139.489  0.00  0.00    +0.000 C 
ATOM     42  C   UNL     1     113.491 130.276 138.883  0.00  0.00    +0.000 C 
BRANCH  42  44
ATOM     43  O   UNL     1     112.672 131.275 138.273  0.00  0.00    +0.000 OA
ATOM     44  C   UNL     1     113.396 130.887 138.337  0.00  0.00    +0.000 C 
ENDBRANCH  42  44
ENDBRANCH  33  38
ENDBRANCH  26  33
ENDBRANCH   1  29
TORSDOF 7
ENDMDL
MODEL 9
REMARK VINA RESULT:      -9.6      1.790      4.496
REMARK  Name = 44259096
REMARK  7 active torsions:
REMARK  status: ('A' for Active; 'I' for Inactive)
REMARK    1  A    between atoms: O_1  and  C_18
REMARK    2  A    between atoms: O_1  and  C_21
REMARK    3  A    between atoms: O_4  and  C_23
REMARK    4  A    between atoms: O_4  and  C_30
REMARK    5  A    between atoms: C_24  and  C_28
REMARK    6  A    between atoms: C_27  and  C_29
REMARK    7  A    between atoms: C_31  and  C_34
REMARK                            x       y       z     vdW  Elec       q    Type
REMARK                         _______ _______ _______ _____ _____    ______ ____
ROOT
ATOM      1  O   UNL     1     111.739 127.543 137.684  0.00  0.00    +0.000 OA
ENDROOT
BRANCH   1   6
ATOM      2  O   UNL     1     112.118 129.285 136.425  0.00  0.00    +0.000 OA
ATOM      3  O   UNL     1     113.187 127.131 137.009  0.00  0.00    +0.000 OA
ATOM      4  O   UNL     1     114.302 127.415 136.137  0.00  0.00    +0.000 OA
ATOM      5  O   UNL     1     114.334 129.926 134.648  0.00  0.00    +0.000 OA
ATOM      6  C   UNL     1     112.107 128.055 137.152  0.00  0.00    +0.000 A 
ATOM      7  C   UNL     1     111.750 128.773 136.958  0.00  0.00    +0.000 A 
ATOM      8  C   UNL     1     112.830 127.849 136.814  0.00  0.00    +0.000 A 
ATOM      9  C   UNL     1     113.198 128.361 136.282  0.00  0.00    +0.000 A 
ATOM     10  C   UNL     1     112.842 129.079 136.087  0.00  0.00    +0.000 A 
ATOM     11  C   UNL     1     113.952 128.135 135.937  0.00  0.00    +0.000 A 
ATOM     12  C   UNL     1     113.214 129.621 135.534  0.00  0.00    +0.000 A 
ATOM     13  C   UNL     1     114.340 128.664 135.382  0.00  0.00    +0.000 A 
ATOM     14  C   UNL     1     113.968 129.412 135.180  0.00  0.00    +0.000 A 
BRANCH   7  17
ATOM     15  O   UNL     1     108.900 128.918 136.807  0.00  0.00    +0.000 OA
ATOM     16  O   UNL     1     108.855 129.599 138.309  0.00  0.00    +0.000 OA
ATOM     17  C   UNL     1     111.027 128.979 137.295  0.00  0.00    +0.000 A 
ATOM     18  C   UNL     1     110.325 128.845 136.882  0.00  0.00    +0.000 A 
ATOM     19  C   UNL     1     111.004 129.320 138.046  0.00  0.00    +0.000 A 
ATOM     20  C   UNL     1     109.602 129.052 137.219  0.00  0.00    +0.000 A 
ATOM     21  C   UNL     1     110.280 129.526 138.384  0.00  0.00    +0.000 A 
ATOM     22  C   UNL     1     109.579 129.392 137.971  0.00  0.00    +0.000 A 
ENDBRANCH   7  17
ENDBRANCH   1   6
BRANCH   1  29
ATOM     23  O   UNL     1     111.344 126.579 136.706  0.00  0.00    +0.000 OA
ATOM     24  O   UNL     1     111.674 124.767 138.360  0.00  0.00    +0.000 OA
ATOM     25  O   UNL     1     111.169 124.407 136.832  0.00  0.00    +0.000 OA
ATOM     26  C   UNL     1     111.707 126.155 138.023  0.00  0.00    +0.000 C 
ATOM     27  C   UNL     1     111.564 125.371 137.809  0.00  0.00    +0.000 C 
ATOM     28  C   UNL     1     111.312 125.191 137.045  0.00  0.00    +0.000 C 
ATOM     29  C   UNL     1     111.597 126.759 137.471  0.00  0.00    +0.000 C 
ATOM     30  C   UNL     1     111.202 125.795 136.494  0.00  0.00    +0.000 C 
BRANCH  30  32
ATOM     31  O   UNL     1     110.245 125.936 135.442  0.00  0.00    +0.000 OA
ATOM     32  C   UNL     1     110.949 125.615 135.729  0.00  0.00    +0.000 C 
ENDBRANCH  30  32
BRANCH  26  33
ATOM     33  O   UNL     1     111.959 126.335 138.786  0.00  0.00    +0.000 OA
BRANCH  33  38
ATOM     34  O   UNL     1     110.625 126.160 139.269  0.00  0.00    +0.000 OA
ATOM     35  O   UNL     1     112.461 126.712 140.313  0.00  0.00    +0.000 OA
ATOM     36  O   UNL     1     111.377 126.726 141.557  0.00  0.00    +0.000 OA
ATOM     37  O   UNL     1     109.793 126.363 141.276  0.00  0.00    +0.000 OA
ATOM     38  C   UNL     1     111.417 126.342 139.409  0.00  0.00    +0.000 C 
ATOM     39  C   UNL     1     111.668 126.531 140.172  0.00  0.00    +0.000 C 
ATOM     40  C   UNL     1     111.127 126.538 140.795  0.00  0.00    +0.000 C 
ATOM     41  C   UNL     1     110.334 126.356 140.653  0.00  0.00    +0.000 C 
ATOM     42  C   UNL     1     110.084 126.167 139.891  0.00  0.00    +0.000 C 
BRANCH  42  44
ATOM     43  O   UNL     1     108.821 126.502 139.312  0.00  0.00    +0.000 OA
ATOM     44  C   UNL     1     109.291 125.986 139.749  0.00  0.00    +0.000 C 
ENDBRANCH  42  44
ENDBRANCH  33  38
ENDBRANCH  26  33
ENDBRANCH   1  29
TORSDOF 7
ENDMDL
MODEL 10
REMARK VINA RESULT:      -9.6      1.682      3.766
REMARK  Name = 44259096
REMARK  7 active torsions:
REMARK  status: ('A' for Active; 'I' for Inactive)
REMARK    1  A    between atoms: O_1  and  C_18
REMARK    2  A    between atoms: O_1  and  C_21
REMARK    3  A    between atoms: O_4  and  C_23
REMARK    4  A    between atoms: O_4  and  C_30
REMARK    5  A    between atoms: C_24  and  C_28
REMARK    6  A    between atoms: C_27  and  C_29
REMARK    7  A    between atoms: C_31  and  C_34
REMARK                            x       y       z     vdW  Elec       q    Type
REMARK                         _______ _______ _______ _____ _____    ______ ____
ROOT
ATOM      1  O   UNL     1     112.262 127.817 137.782  0.00  0.00    +0.000 OA
ENDROOT
BRANCH   1   6
ATOM      2  O   UNL     1     113.662 127.660 136.116  0.00  0.00    +0.000 OA
ATOM      3  O   UNL     1     112.610 129.408 137.517  0.00  0.00    +0.000 OA
ATOM      4  O   UNL     1     113.304 130.447 136.794  0.00  0.00    +0.000 OA
ATOM      5  O   UNL     1     115.096 129.702 134.612  0.00  0.00    +0.000 OA
ATOM      6  C   UNL     1     112.787 128.030 137.182  0.00  0.00    +0.000 A 
ATOM      7  C   UNL     1     113.138 127.447 136.715  0.00  0.00    +0.000 A 
ATOM      8  C   UNL     1     112.961 128.825 137.050  0.00  0.00    +0.000 A 
ATOM      9  C   UNL     1     113.486 129.038 136.450  0.00  0.00    +0.000 A 
ATOM     10  C   UNL     1     113.837 128.456 135.983  0.00  0.00    +0.000 A 
ATOM     11  C   UNL     1     113.659 129.871 136.322  0.00  0.00    +0.000 A 
ATOM     12  C   UNL     1     114.385 128.665 135.355  0.00  0.00    +0.000 A 
ATOM     13  C   UNL     1     114.205 130.098 135.699  0.00  0.00    +0.000 A 
ATOM     14  C   UNL     1     114.570 129.491 135.212  0.00  0.00    +0.000 A 
BRANCH   7  17
ATOM     15  O   UNL     1     111.657 125.094 136.054  0.00  0.00    +0.000 OA
ATOM     16  O   UNL     1     112.442 124.265 137.245  0.00  0.00    +0.000 OA
ATOM     17  C   UNL     1     112.964 126.652 136.848  0.00  0.00    +0.000 A 
ATOM     18  C   UNL     1     112.397 126.270 136.385  0.00  0.00    +0.000 A 
ATOM     19  C   UNL     1     113.356 126.238 137.443  0.00  0.00    +0.000 A 
ATOM     20  C   UNL     1     112.224 125.476 136.517  0.00  0.00    +0.000 A 
ATOM     21  C   UNL     1     113.182 125.442 137.576  0.00  0.00    +0.000 A 
ATOM     22  C   UNL     1     112.616 125.061 137.113  0.00  0.00    +0.000 A 
ENDBRANCH   7  17
ENDBRANCH   1   6
BRANCH   1  29
ATOM     23  O   UNL     1     111.068 128.228 137.112  0.00  0.00    +0.000 OA
ATOM     24  O   UNL     1     110.120 128.987 139.269  0.00  0.00    +0.000 OA
ATOM     25  O   UNL     1     109.243 129.144 137.881  0.00  0.00    +0.000 OA
ATOM     26  C   UNL     1     111.191 128.402 138.526  0.00  0.00    +0.000 C 
ATOM     27  C   UNL     1     110.436 128.734 138.550  0.00  0.00    +0.000 C 
ATOM     28  C   UNL     1     109.997 128.813 137.857  0.00  0.00    +0.000 C 
ATOM     29  C   UNL     1     111.507 128.149 137.807  0.00  0.00    +0.000 C 
ATOM     30  C   UNL     1     110.313 128.560 137.138  0.00  0.00    +0.000 C 
BRANCH  30  32
ATOM     31  O   UNL     1     109.667 127.967 136.009  0.00  0.00    +0.000 OA
ATOM     32  C   UNL     1     109.875 128.638 136.443  0.00  0.00    +0.000 C 
ENDBRANCH  30  32
BRANCH  26  33
ATOM     33  O   UNL     1     111.630 128.323 139.220  0.00  0.00    +0.000 OA
BRANCH  33  38
ATOM     34  O   UNL     1     110.877 127.159 139.567  0.00  0.00    +0.000 OA
ATOM     35  O   UNL     1     112.413 128.249 140.670  0.00  0.00    +0.000 OA
ATOM     36  O   UNL     1     112.052 127.047 141.742  0.00  0.00    +0.000 OA
ATOM     37  O   UNL     1     110.908 125.920 141.363  0.00  0.00    +0.000 OA
ATOM     38  C   UNL     1     111.449 127.722 139.756  0.00  0.00    +0.000 C 
ATOM     39  C   UNL     1     111.841 127.685 140.481  0.00  0.00    +0.000 C 
ATOM     40  C   UNL     1     111.661 127.084 141.017  0.00  0.00    +0.000 C 
ATOM     41  C   UNL     1     111.088 126.521 140.827  0.00  0.00    +0.000 C 
ATOM     42  C   UNL     1     110.697 126.558 140.103  0.00  0.00    +0.000 C 
BRANCH  42  44
ATOM     43  O   UNL     1     110.313 125.368 139.411  0.00  0.00    +0.000 OA
ATOM     44  C   UNL     1     110.125 125.994 139.913  0.00  0.00    +0.000 C 
ENDBRANCH  42  44
ENDBRANCH  33  38
ENDBRANCH  26  33
ENDBRANCH   1  29
TORSDOF 7
ENDMDL
