MODEL 1
REMARK VINA RESULT:      -9.7      0.000      0.000
REMARK  Name = 5319484
REMARK  4 active torsions:
REMARK  status: ('A' for Active; 'I' for Inactive)
REMARK    1  A    between atoms: O_2  and  C_16
REMARK    2  A    between atoms: O_2  and  C_18
REMARK    3  A    between atoms: C_15  and  C_17
REMARK    4  A    between atoms: C_25  and  C_27
REMARK                            x       y       z     vdW  Elec       q    Type
REMARK                         _______ _______ _______ _____ _____    ______ ____
ROOT
ATOM      1  O   UNL     1     112.246 126.508 136.192  0.00  0.00    +0.000 OA
ATOM      2  O   UNL     1     109.713 125.741 135.034  0.00  0.00    +0.000 OA
ATOM      3  O   UNL     1     110.633 124.749 135.534  0.00  0.00    +0.000 OA
ATOM      4  C   UNL     1     110.612 127.771 135.336  0.00  0.00    +0.000 A 
ATOM      5  C   UNL     1     111.356 127.547 135.704  0.00  0.00    +0.000 A 
ATOM      6  C   UNL     1     110.053 127.160 135.108  0.00  0.00    +0.000 A 
ATOM      7  C   UNL     1     111.530 126.717 135.838  0.00  0.00    +0.000 A 
ATOM      8  C   UNL     1     110.993 126.131 135.619  0.00  0.00    +0.000 A 
ATOM      9  C   UNL     1     110.244 126.334 135.250  0.00  0.00    +0.000 A 
ATOM     10  C   UNL     1     111.171 125.336 135.753  0.00  0.00    +0.000 A 
ATOM     11  C   UNL     1     112.424 125.714 136.326  0.00  0.00    +0.000 A 
ATOM     12  C   UNL     1     111.887 125.128 136.106  0.00  0.00    +0.000 A 
ENDROOT
BRANCH  11  14
ATOM     13  O   UNL     1     115.287 124.881 137.740  0.00  0.00    +0.000 OA
ATOM     14  C   UNL     1     113.140 125.506 136.679  0.00  0.00    +0.000 A 
ATOM     15  C   UNL     1     113.765 125.232 136.215  0.00  0.00    +0.000 A 
ATOM     16  C   UNL     1     113.230 125.571 137.497  0.00  0.00    +0.000 A 
ATOM     17  C   UNL     1     114.480 125.024 136.569  0.00  0.00    +0.000 A 
ATOM     18  C   UNL     1     113.946 125.363 137.851  0.00  0.00    +0.000 A 
ATOM     19  C   UNL     1     114.571 125.089 137.387  0.00  0.00    +0.000 A 
ENDBRANCH  11  14
BRANCH   4  20
ATOM     20  O   UNL     1     110.436 128.566 135.203  0.00  0.00    +0.000 OA
BRANCH  20  29
ATOM     21  O   UNL     1     110.054 128.909 136.537  0.00  0.00    +0.000 OA
ATOM     22  O   UNL     1     108.214 130.307 135.650  0.00  0.00    +0.000 OA
ATOM     23  O   UNL     1     109.210 129.497 134.612  0.00  0.00    +0.000 OA
ATOM     24  O   UNL     1     108.446 130.184 137.278  0.00  0.00    +0.000 OA
ATOM     25  C   UNL     1     108.828 129.841 135.946  0.00  0.00    +0.000 C 
ATOM     26  C   UNL     1     109.326 129.436 135.426  0.00  0.00    +0.000 C 
ATOM     27  C   UNL     1     108.944 129.779 136.760  0.00  0.00    +0.000 C 
ATOM     28  C   UNL     1     109.557 129.314 137.055  0.00  0.00    +0.000 C 
ATOM     29  C   UNL     1     109.939 128.970 135.722  0.00  0.00    +0.000 C 
BRANCH  28  32
ATOM     30  O   UNL     1     109.274 128.673 138.301  0.00  0.00    +0.000 OA
ATOM     31  O   UNL     1     110.187 129.771 138.253  0.00  0.00    +0.000 OA
ATOM     32  C   UNL     1     109.673 129.253 137.869  0.00  0.00    +0.000 C 
ENDBRANCH  28  32
ENDBRANCH  20  29
ENDBRANCH   4  20
TORSDOF 4
ENDMDL
MODEL 2
REMARK VINA RESULT:      -9.6      7.016      8.447
REMARK  Name = 5319484
REMARK  4 active torsions:
REMARK  status: ('A' for Active; 'I' for Inactive)
REMARK    1  A    between atoms: O_2  and  C_16
REMARK    2  A    between atoms: O_2  and  C_18
REMARK    3  A    between atoms: C_15  and  C_17
REMARK    4  A    between atoms: C_25  and  C_27
REMARK                            x       y       z     vdW  Elec       q    Type
REMARK                         _______ _______ _______ _____ _____    ______ ____
ROOT
ATOM      1  O   UNL     1     104.825 124.318 139.384  0.00  0.00    +0.000 OA
ATOM      2  O   UNL     1     105.499 123.438 142.052  0.00  0.00    +0.000 OA
ATOM      3  O   UNL     1     104.454 122.791 141.297  0.00  0.00    +0.000 OA
ATOM      4  C   UNL     1     106.366 125.088 140.809  0.00  0.00    +0.000 A 
ATOM      5  C   UNL     1     105.886 125.005 140.101  0.00  0.00    +0.000 A 
ATOM      6  C   UNL     1     106.237 124.557 141.472  0.00  0.00    +0.000 A 
ATOM      7  C   UNL     1     105.283 124.393 140.066  0.00  0.00    +0.000 A 
ATOM      8  C   UNL     1     105.160 123.884 140.704  0.00  0.00    +0.000 A 
ATOM      9  C   UNL     1     105.630 123.952 141.420  0.00  0.00    +0.000 A 
ATOM     10  C   UNL     1     104.579 123.301 140.659  0.00  0.00    +0.000 A 
ATOM     11  C   UNL     1     104.244 123.735 139.340  0.00  0.00    +0.000 A 
ATOM     12  C   UNL     1     104.121 123.226 139.977  0.00  0.00    +0.000 A 
ENDROOT
BRANCH  11  14
ATOM     13  O   UNL     1     102.411 123.436 136.612  0.00  0.00    +0.000 OA
ATOM     14  C   UNL     1     103.786 123.660 138.657  0.00  0.00    +0.000 A 
ATOM     15  C   UNL     1     104.134 123.411 137.952  0.00  0.00    +0.000 A 
ATOM     16  C   UNL     1     102.980 123.835 138.681  0.00  0.00    +0.000 A 
ATOM     17  C   UNL     1     103.675 123.336 137.271  0.00  0.00    +0.000 A 
ATOM     18  C   UNL     1     102.521 123.760 137.999  0.00  0.00    +0.000 A 
ATOM     19  C   UNL     1     102.869 123.511 137.294  0.00  0.00    +0.000 A 
ENDBRANCH  11  14
BRANCH   4  20
ATOM     20  O   UNL     1     106.947 125.672 140.851  0.00  0.00    +0.000 OA
BRANCH  20  29
ATOM     21  O   UNL     1     106.140 126.737 141.358  0.00  0.00    +0.000 OA
ATOM     22  O   UNL     1     107.974 127.400 142.883  0.00  0.00    +0.000 OA
ATOM     23  O   UNL     1     108.169 126.114 141.867  0.00  0.00    +0.000 OA
ATOM     24  O   UNL     1     106.556 128.243 142.881  0.00  0.00    +0.000 OA
ATOM     25  C   UNL     1     107.363 127.179 142.375  0.00  0.00    +0.000 C 
ATOM     26  C   UNL     1     107.460 126.535 141.866  0.00  0.00    +0.000 C 
ATOM     27  C   UNL     1     106.653 127.600 142.374  0.00  0.00    +0.000 C 
ATOM     28  C   UNL     1     106.042 127.379 141.865  0.00  0.00    +0.000 C 
ATOM     29  C   UNL     1     106.849 126.314 141.358  0.00  0.00    +0.000 C 
BRANCH  28  32
ATOM     30  O   UNL     1     104.741 127.613 142.407  0.00  0.00    +0.000 OA
ATOM     31  O   UNL     1     105.218 128.411 141.322  0.00  0.00    +0.000 OA
ATOM     32  C   UNL     1     105.334 127.801 141.865  0.00  0.00    +0.000 C 
ENDBRANCH  28  32
ENDBRANCH  20  29
ENDBRANCH   4  20
TORSDOF 4
ENDMDL
MODEL 3
REMARK VINA RESULT:      -9.5      1.244      2.062
REMARK  Name = 5319484
REMARK  4 active torsions:
REMARK  status: ('A' for Active; 'I' for Inactive)
REMARK    1  A    between atoms: O_2  and  C_16
REMARK    2  A    between atoms: O_2  and  C_18
REMARK    3  A    between atoms: C_15  and  C_17
REMARK    4  A    between atoms: C_25  and  C_27
REMARK                            x       y       z     vdW  Elec       q    Type
REMARK                         _______ _______ _______ _____ _____    ______ ____
ROOT
ATOM      1  O   UNL     1     112.747 127.062 136.250  0.00  0.00    +0.000 OA
ATOM      2  O   UNL     1     113.064 129.767 135.287  0.00  0.00    +0.000 OA
ATOM      3  O   UNL     1     114.193 129.013 135.773  0.00  0.00    +0.000 OA
ATOM      4  C   UNL     1     111.230 128.490 135.440  0.00  0.00    +0.000 A 
ATOM      5  C   UNL     1     111.576 127.776 135.772  0.00  0.00    +0.000 A 
ATOM      6  C   UNL     1     111.733 129.167 135.275  0.00  0.00    +0.000 A 
ATOM      7  C   UNL     1     112.420 127.750 135.932  0.00  0.00    +0.000 A 
ATOM      8  C   UNL     1     112.902 128.400 135.773  0.00  0.00    +0.000 A 
ATOM      9  C   UNL     1     112.574 129.122 135.443  0.00  0.00    +0.000 A 
ATOM     10  C   UNL     1     113.711 128.363 135.932  0.00  0.00    +0.000 A 
ATOM     11  C   UNL     1     113.555 127.024 136.409  0.00  0.00    +0.000 A 
ATOM     12  C   UNL     1     114.037 127.675 136.250  0.00  0.00    +0.000 A 
ENDROOT
BRANCH  11  14
ATOM     13  O   UNL     1     114.863 124.274 137.679  0.00  0.00    +0.000 OA
ATOM     14  C   UNL     1     113.882 126.337 136.727  0.00  0.00    +0.000 A 
ATOM     15  C   UNL     1     113.790 126.169 137.529  0.00  0.00    +0.000 A 
ATOM     16  C   UNL     1     114.301 125.817 136.241  0.00  0.00    +0.000 A 
ATOM     17  C   UNL     1     114.117 125.481 137.846  0.00  0.00    +0.000 A 
ATOM     18  C   UNL     1     114.628 125.129 136.559  0.00  0.00    +0.000 A 
ATOM     19  C   UNL     1     114.536 124.961 137.361  0.00  0.00    +0.000 A 
ENDBRANCH  11  14
BRANCH   4  20
ATOM     20  O   UNL     1     110.421 128.525 135.283  0.00  0.00    +0.000 OA
BRANCH  20  29
ATOM     21  O   UNL     1     110.032 128.915 136.601  0.00  0.00    +0.000 OA
ATOM     22  O   UNL     1     108.197 130.281 135.655  0.00  0.00    +0.000 OA
ATOM     23  O   UNL     1     109.198 129.435 134.652  0.00  0.00    +0.000 OA
ATOM     24  O   UNL     1     108.420 130.216 137.288  0.00  0.00    +0.000 OA
ATOM     25  C   UNL     1     108.809 129.826 135.970  0.00  0.00    +0.000 C 
ATOM     26  C   UNL     1     109.309 129.402 135.469  0.00  0.00    +0.000 C 
ATOM     27  C   UNL     1     108.920 129.793 136.787  0.00  0.00    +0.000 C 
ATOM     28  C   UNL     1     109.532 129.338 137.102  0.00  0.00    +0.000 C 
ATOM     29  C   UNL     1     109.921 128.947 135.784  0.00  0.00    +0.000 C 
BRANCH  28  32
ATOM     30  O   UNL     1     110.113 129.870 138.294  0.00  0.00    +0.000 OA
ATOM     31  O   UNL     1     109.284 128.708 138.360  0.00  0.00    +0.000 OA
ATOM     32  C   UNL     1     109.643 129.305 137.919  0.00  0.00    +0.000 C 
ENDBRANCH  28  32
ENDBRANCH  20  29
ENDBRANCH   4  20
TORSDOF 4
ENDMDL
MODEL 4
REMARK VINA RESULT:      -9.5      7.176     10.363
REMARK  Name = 5319484
REMARK  4 active torsions:
REMARK  status: ('A' for Active; 'I' for Inactive)
REMARK    1  A    between atoms: O_2  and  C_16
REMARK    2  A    between atoms: O_2  and  C_18
REMARK    3  A    between atoms: C_15  and  C_17
REMARK    4  A    between atoms: C_25  and  C_27
REMARK                            x       y       z     vdW  Elec       q    Type
REMARK                         _______ _______ _______ _____ _____    ______ ____
ROOT
ATOM      1  O   UNL     1     103.150 130.275 141.975  0.00  0.00    +0.000 OA
ATOM      2  O   UNL     1     103.677 128.008 140.263  0.00  0.00    +0.000 OA
ATOM      3  O   UNL     1     102.742 129.034 139.872  0.00  0.00    +0.000 OA
ATOM      4  C   UNL     1     104.518 128.532 142.273  0.00  0.00    +0.000 A 
ATOM      5  C   UNL     1     104.100 129.270 142.417  0.00  0.00    +0.000 A 
ATOM      6  C   UNL     1     104.376 128.102 141.542  0.00  0.00    +0.000 A 
ATOM      7  C   UNL     1     103.547 129.567 141.831  0.00  0.00    +0.000 A 
ATOM      8  C   UNL     1     103.412 129.153 141.130  0.00  0.00    +0.000 A 
ATOM      9  C   UNL     1     103.819 128.414 140.967  0.00  0.00    +0.000 A 
ATOM     10  C   UNL     1     102.878 129.448 140.574  0.00  0.00    +0.000 A 
ATOM     11  C   UNL     1     102.616 130.570 141.419  0.00  0.00    +0.000 A 
ATOM     12  C   UNL     1     102.481 130.156 140.718  0.00  0.00    +0.000 A 
ENDROOT
BRANCH  11  14
ATOM     13  O   UNL     1     101.026 133.403 141.997  0.00  0.00    +0.000 OA
ATOM     14  C   UNL     1     102.219 131.278 141.563  0.00  0.00    +0.000 A 
ATOM     15  C   UNL     1     101.465 131.267 141.898  0.00  0.00    +0.000 A 
ATOM     16  C   UNL     1     102.576 131.997 141.373  0.00  0.00    +0.000 A 
ATOM     17  C   UNL     1     101.068 131.975 142.043  0.00  0.00    +0.000 A 
ATOM     18  C   UNL     1     102.178 132.706 141.517  0.00  0.00    +0.000 A 
ATOM     19  C   UNL     1     101.424 132.694 141.852  0.00  0.00    +0.000 A 
ENDBRANCH  11  14
BRANCH   4  20
ATOM     20  O   UNL     1     105.050 128.240 142.831  0.00  0.00    +0.000 OA
BRANCH  20  29
ATOM     21  O   UNL     1     106.202 128.881 142.279  0.00  0.00    +0.000 OA
ATOM     22  O   UNL     1     107.600 126.955 142.958  0.00  0.00    +0.000 OA
ATOM     23  O   UNL     1     105.982 126.956 143.283  0.00  0.00    +0.000 OA
ATOM     24  O   UNL     1     108.285 128.238 142.181  0.00  0.00    +0.000 OA
ATOM     25  C   UNL     1     107.134 127.597 142.732  0.00  0.00    +0.000 C 
ATOM     26  C   UNL     1     106.325 127.598 142.894  0.00  0.00    +0.000 C 
ATOM     27  C   UNL     1     107.476 128.239 142.343  0.00  0.00    +0.000 C 
ATOM     28  C   UNL     1     107.010 128.881 142.116  0.00  0.00    +0.000 C 
ATOM     29  C   UNL     1     105.859 128.240 142.668  0.00  0.00    +0.000 C 
BRANCH  28  32
ATOM     30  O   UNL     1     107.423 129.518 140.905  0.00  0.00    +0.000 OA
ATOM     31  O   UNL     1     107.627 130.169 142.161  0.00  0.00    +0.000 OA
ATOM     32  C   UNL     1     107.353 129.522 141.728  0.00  0.00    +0.000 C 
ENDBRANCH  28  32
ENDBRANCH  20  29
ENDBRANCH   4  20
TORSDOF 4
ENDMDL
MODEL 5
REMARK VINA RESULT:      -9.4      8.449     10.363
REMARK  Name = 5319484
REMARK  4 active torsions:
REMARK  status: ('A' for Active; 'I' for Inactive)
REMARK    1  A    between atoms: O_2  and  C_16
REMARK    2  A    between atoms: O_2  and  C_18
REMARK    3  A    between atoms: C_15  and  C_17
REMARK    4  A    between atoms: C_25  and  C_27
REMARK                            x       y       z     vdW  Elec       q    Type
REMARK                         _______ _______ _______ _____ _____    ______ ____
ROOT
ATOM      1  O   UNL     1     106.617 125.786 146.189  0.00  0.00    +0.000 OA
ATOM      2  O   UNL     1     106.083 128.434 145.164  0.00  0.00    +0.000 OA
ATOM      3  O   UNL     1     106.635 128.244 146.483  0.00  0.00    +0.000 OA
ATOM      4  C   UNL     1     105.778 126.426 144.218  0.00  0.00    +0.000 A 
ATOM      5  C   UNL     1     106.061 125.921 144.854  0.00  0.00    +0.000 A 
ATOM      6  C   UNL     1     105.785 127.279 144.321  0.00  0.00    +0.000 A 
ATOM      7  C   UNL     1     106.347 126.276 145.582  0.00  0.00    +0.000 A 
ATOM      8  C   UNL     1     106.353 127.095 145.680  0.00  0.00    +0.000 A 
ATOM      9  C   UNL     1     106.074 127.616 145.057  0.00  0.00    +0.000 A 
ATOM     10  C   UNL     1     106.629 127.424 146.384  0.00  0.00    +0.000 A 
ATOM     11  C   UNL     1     106.894 126.115 146.893  0.00  0.00    +0.000 A 
ATOM     12  C   UNL     1     106.900 126.935 146.990  0.00  0.00    +0.000 A 
ENDROOT
BRANCH  11  14
ATOM     13  O   UNL     1     107.975 124.157 149.318  0.00  0.00    +0.000 OA
ATOM     14  C   UNL     1     107.164 125.626 147.499  0.00  0.00    +0.000 A 
ATOM     15  C   UNL     1     107.958 125.403 147.526  0.00  0.00    +0.000 A 
ATOM     16  C   UNL     1     106.640 125.359 148.079  0.00  0.00    +0.000 A 
ATOM     17  C   UNL     1     108.228 124.913 148.132  0.00  0.00    +0.000 A 
ATOM     18  C   UNL     1     106.911 124.870 148.685  0.00  0.00    +0.000 A 
ATOM     19  C   UNL     1     107.705 124.646 148.712  0.00  0.00    +0.000 A 
ENDBRANCH  11  14
BRANCH   4  20
ATOM     20  O   UNL     1     105.502 126.094 143.515  0.00  0.00    +0.000 OA
BRANCH  20  29
ATOM     21  O   UNL     1     106.622 126.430 142.693  0.00  0.00    +0.000 OA
ATOM     22  O   UNL     1     106.453 124.234 141.565  0.00  0.00    +0.000 OA
ATOM     23  O   UNL     1     105.390 124.630 142.763  0.00  0.00    +0.000 OA
ATOM     24  O   UNL     1     107.628 125.302 141.119  0.00  0.00    +0.000 OA
ATOM     25  C   UNL     1     106.509 124.966 141.941  0.00  0.00    +0.000 C 
ATOM     26  C   UNL     1     105.977 125.164 142.540  0.00  0.00    +0.000 C 
ATOM     27  C   UNL     1     107.097 125.501 141.718  0.00  0.00    +0.000 C 
ATOM     28  C   UNL     1     107.153 126.233 142.095  0.00  0.00    +0.000 C 
ATOM     29  C   UNL     1     106.033 125.896 142.917  0.00  0.00    +0.000 C 
BRANCH  28  32
ATOM     30  O   UNL     1     108.486 126.730 142.222  0.00  0.00    +0.000 OA
ATOM     31  O   UNL     1     107.582 127.338 141.298  0.00  0.00    +0.000 OA
ATOM     32  C   UNL     1     107.740 126.766 141.872  0.00  0.00    +0.000 C 
ENDBRANCH  28  32
ENDBRANCH  20  29
ENDBRANCH   4  20
TORSDOF 4
ENDMDL
MODEL 6
REMARK VINA RESULT:      -9.2      3.534      5.780
REMARK  Name = 5319484
REMARK  4 active torsions:
REMARK  status: ('A' for Active; 'I' for Inactive)
REMARK    1  A    between atoms: O_2  and  C_16
REMARK    2  A    between atoms: O_2  and  C_18
REMARK    3  A    between atoms: C_15  and  C_17
REMARK    4  A    between atoms: C_25  and  C_27
REMARK                            x       y       z     vdW  Elec       q    Type
REMARK                         _______ _______ _______ _____ _____    ______ ____
ROOT
ATOM      1  O   UNL     1     113.302 128.544 139.767  0.00  0.00    +0.000 OA
ATOM      2  O   UNL     1     112.094 126.154 140.851  0.00  0.00    +0.000 OA
ATOM      3  O   UNL     1     112.762 127.104 141.707  0.00  0.00    +0.000 OA
ATOM      4  C   UNL     1     112.207 126.889 138.738  0.00  0.00    +0.000 A 
ATOM      5  C   UNL     1     112.642 127.621 138.861  0.00  0.00    +0.000 A 
ATOM      6  C   UNL     1     112.020 126.390 139.412  0.00  0.00    +0.000 A 
ATOM      7  C   UNL     1     112.884 127.842 139.655  0.00  0.00    +0.000 A 
ATOM      8  C   UNL     1     112.704 127.361 140.301  0.00  0.00    +0.000 A 
ATOM      9  C   UNL     1     112.270 126.628 140.198  0.00  0.00    +0.000 A 
ATOM     10  C   UNL     1     112.942 127.584 141.060  0.00  0.00    +0.000 A 
ATOM     11  C   UNL     1     113.539 128.767 140.525  0.00  0.00    +0.000 A 
ATOM     12  C   UNL     1     113.359 128.287 141.171  0.00  0.00    +0.000 A 
ENDROOT
BRANCH  11  14
ATOM     13  O   UNL     1     115.209 131.578 140.973  0.00  0.00    +0.000 OA
ATOM     14  C   UNL     1     113.957 129.470 140.637  0.00  0.00    +0.000 A 
ATOM     15  C   UNL     1     114.739 129.529 140.382  0.00  0.00    +0.000 A 
ATOM     16  C   UNL     1     113.591 130.112 141.004  0.00  0.00    +0.000 A 
ATOM     17  C   UNL     1     115.156 130.232 140.494  0.00  0.00    +0.000 A 
ATOM     18  C   UNL     1     114.009 130.815 141.116  0.00  0.00    +0.000 A 
ATOM     19  C   UNL     1     114.791 130.875 140.861  0.00  0.00    +0.000 A 
ENDBRANCH  11  14
BRANCH   4  20
ATOM     20  O   UNL     1     111.971 126.669 137.979  0.00  0.00    +0.000 OA
BRANCH  20  29
ATOM     21  O   UNL     1     113.166 126.008 137.559  0.00  0.00    +0.000 OA
ATOM     22  O   UNL     1     111.811 124.210 136.531  0.00  0.00    +0.000 OA
ATOM     23  O   UNL     1     111.067 125.471 137.294  0.00  0.00    +0.000 OA
ATOM     24  O   UNL     1     113.457 124.149 136.454  0.00  0.00    +0.000 OA
ATOM     25  C   UNL     1     112.262 124.810 136.874  0.00  0.00    +0.000 C 
ATOM     26  C   UNL     1     111.890 125.440 137.256  0.00  0.00    +0.000 C 
ATOM     27  C   UNL     1     113.086 124.779 136.836  0.00  0.00    +0.000 C 
ATOM     28  C   UNL     1     113.538 125.379 137.178  0.00  0.00    +0.000 C 
ATOM     29  C   UNL     1     112.342 126.040 137.598  0.00  0.00    +0.000 C 
BRANCH  28  32
ATOM     30  O   UNL     1     114.758 125.707 136.512  0.00  0.00    +0.000 OA
ATOM     31  O   UNL     1     114.787 124.957 137.728  0.00  0.00    +0.000 OA
ATOM     32  C   UNL     1     114.360 125.348 137.139  0.00  0.00    +0.000 C 
ENDBRANCH  28  32
ENDBRANCH  20  29
ENDBRANCH   4  20
TORSDOF 4
ENDMDL
MODEL 7
REMARK VINA RESULT:      -9.2      1.930      3.226
REMARK  Name = 5319484
REMARK  4 active torsions:
REMARK  status: ('A' for Active; 'I' for Inactive)
REMARK    1  A    between atoms: O_2  and  C_16
REMARK    2  A    between atoms: O_2  and  C_18
REMARK    3  A    between atoms: C_15  and  C_17
REMARK    4  A    between atoms: C_25  and  C_27
REMARK                            x       y       z     vdW  Elec       q    Type
REMARK                         _______ _______ _______ _____ _____    ______ ____
ROOT
ATOM      1  O   UNL     1     110.321 127.940 135.973  0.00  0.00    +0.000 OA
ATOM      2  O   UNL     1     107.864 129.450 135.803  0.00  0.00    +0.000 OA
ATOM      3  O   UNL     1     107.854 128.008 135.780  0.00  0.00    +0.000 OA
ATOM      4  C   UNL     1     109.985 130.150 135.980  0.00  0.00    +0.000 A 
ATOM      5  C   UNL     1     110.388 129.390 136.000  0.00  0.00    +0.000 A 
ATOM      6  C   UNL     1     109.129 130.173 135.913  0.00  0.00    +0.000 A 
ATOM      7  C   UNL     1     109.929 128.665 135.953  0.00  0.00    +0.000 A 
ATOM      8  C   UNL     1     109.107 128.689 135.889  0.00  0.00    +0.000 A 
ATOM      9  C   UNL     1     108.687 129.437 135.867  0.00  0.00    +0.000 A 
ATOM     10  C   UNL     1     108.677 127.986 135.845  0.00  0.00    +0.000 A 
ATOM     11  C   UNL     1     109.891 127.237 135.929  0.00  0.00    +0.000 A 
ATOM     12  C   UNL     1     109.069 127.260 135.864  0.00  0.00    +0.000 A 
ENDROOT
BRANCH  11  14
ATOM     13  O   UNL     1     111.459 124.335 136.007  0.00  0.00    +0.000 OA
ATOM     14  C   UNL     1     110.283 126.511 135.948  0.00  0.00    +0.000 A 
ATOM     15  C   UNL     1     110.527 126.194 136.670  0.00  0.00    +0.000 A 
ATOM     16  C   UNL     1     110.431 126.104 135.246  0.00  0.00    +0.000 A 
ATOM     17  C   UNL     1     110.919 125.469 136.688  0.00  0.00    +0.000 A 
ATOM     18  C   UNL     1     110.823 125.378 135.266  0.00  0.00    +0.000 A 
ATOM     19  C   UNL     1     111.067 125.060 135.987  0.00  0.00    +0.000 A 
ENDBRANCH  11  14
BRANCH   4  20
ATOM     20  O   UNL     1     110.417 130.851 136.025  0.00  0.00    +0.000 OA
BRANCH  20  29
ATOM     21  O   UNL     1     110.634 130.889 137.437  0.00  0.00    +0.000 OA
ATOM     22  O   UNL     1     110.147 133.315 137.446  0.00  0.00    +0.000 OA
ATOM     23  O   UNL     1     110.093 132.468 136.031  0.00  0.00    +0.000 OA
ATOM     24  O   UNL     1     110.526 132.545 138.854  0.00  0.00    +0.000 OA
ATOM     25  C   UNL     1     110.309 132.507 137.443  0.00  0.00    +0.000 C 
ATOM     26  C   UNL     1     110.282 132.083 136.735  0.00  0.00    +0.000 C 
ATOM     27  C   UNL     1     110.499 132.121 138.147  0.00  0.00    +0.000 C 
ATOM     28  C   UNL     1     110.661 131.312 138.144  0.00  0.00    +0.000 C 
ATOM     29  C   UNL     1     110.445 131.274 136.732  0.00  0.00    +0.000 C 
BRANCH  28  32
ATOM     30  O   UNL     1     110.255 130.587 139.306  0.00  0.00    +0.000 OA
ATOM     31  O   UNL     1     111.636 130.882 139.095  0.00  0.00    +0.000 OA
ATOM     32  C   UNL     1     110.850 130.927 138.848  0.00  0.00    +0.000 C 
ENDBRANCH  28  32
ENDBRANCH  20  29
ENDBRANCH   4  20
TORSDOF 4
ENDMDL
MODEL 8
REMARK VINA RESULT:      -9.2      2.470      4.113
REMARK  Name = 5319484
REMARK  4 active torsions:
REMARK  status: ('A' for Active; 'I' for Inactive)
REMARK    1  A    between atoms: O_2  and  C_16
REMARK    2  A    between atoms: O_2  and  C_18
REMARK    3  A    between atoms: C_15  and  C_17
REMARK    4  A    between atoms: C_25  and  C_27
REMARK                            x       y       z     vdW  Elec       q    Type
REMARK                         _______ _______ _______ _____ _____    ______ ____
ROOT
ATOM      1  O   UNL     1     112.654 128.363 135.549  0.00  0.00    +0.000 OA
ATOM      2  O   UNL     1     109.893 128.471 134.705  0.00  0.00    +0.000 OA
ATOM      3  O   UNL     1     110.745 129.631 134.612  0.00  0.00    +0.000 OA
ATOM      4  C   UNL     1     111.082 126.774 135.557  0.00  0.00    +0.000 A 
ATOM      5  C   UNL     1     111.840 127.166 135.664  0.00  0.00    +0.000 A 
ATOM      6  C   UNL     1     110.420 127.215 135.232  0.00  0.00    +0.000 A 
ATOM      7  C   UNL     1     111.924 127.992 135.444  0.00  0.00    +0.000 A 
ATOM      8  C   UNL     1     111.288 128.415 135.132  0.00  0.00    +0.000 A 
ATOM      9  C   UNL     1     110.524 128.040 135.018  0.00  0.00    +0.000 A 
ATOM     10  C   UNL     1     111.382 129.208 134.924  0.00  0.00    +0.000 A 
ATOM     11  C   UNL     1     112.748 129.156 135.341  0.00  0.00    +0.000 A 
ATOM     12  C   UNL     1     112.111 129.578 135.029  0.00  0.00    +0.000 A 
ENDROOT
BRANCH  11  14
ATOM     13  O   UNL     1     115.666 130.639 135.760  0.00  0.00    +0.000 OA
ATOM     14  C   UNL     1     113.477 129.527 135.446  0.00  0.00    +0.000 A 
ATOM     15  C   UNL     1     114.070 129.439 134.878  0.00  0.00    +0.000 A 
ATOM     16  C   UNL     1     113.614 129.985 136.119  0.00  0.00    +0.000 A 
ATOM     17  C   UNL     1     114.799 129.810 134.984  0.00  0.00    +0.000 A 
ATOM     18  C   UNL     1     114.343 130.356 136.223  0.00  0.00    +0.000 A 
ATOM     19  C   UNL     1     114.936 130.268 135.656  0.00  0.00    +0.000 A 
ENDBRANCH  11  14
BRANCH   4  20
ATOM     20  O   UNL     1     110.991 125.981 135.765  0.00  0.00    +0.000 OA
BRANCH  20  29
ATOM     21  O   UNL     1     110.475 126.232 137.074  0.00  0.00    +0.000 OA
ATOM     22  O   UNL     1     111.617 124.203 137.914  0.00  0.00    +0.000 OA
ATOM     23  O   UNL     1     111.753 124.629 136.325  0.00  0.00    +0.000 OA
ATOM     24  O   UNL     1     110.720 125.130 138.941  0.00  0.00    +0.000 OA
ATOM     25  C   UNL     1     111.236 124.879 137.634  0.00  0.00    +0.000 C 
ATOM     26  C   UNL     1     111.304 125.092 136.839  0.00  0.00    +0.000 C 
ATOM     27  C   UNL     1     110.787 125.343 138.148  0.00  0.00    +0.000 C 
ATOM     28  C   UNL     1     110.407 126.020 137.868  0.00  0.00    +0.000 C 
ATOM     29  C   UNL     1     110.923 125.769 136.559  0.00  0.00    +0.000 C 
BRANCH  28  32
ATOM     30  O   UNL     1     109.147 126.351 138.456  0.00  0.00    +0.000 OA
ATOM     31  O   UNL     1     110.321 127.078 138.823  0.00  0.00    +0.000 OA
ATOM     32  C   UNL     1     109.959 126.483 138.382  0.00  0.00    +0.000 C 
ENDBRANCH  28  32
ENDBRANCH  20  29
ENDBRANCH   4  20
TORSDOF 4
ENDMDL
MODEL 9
REMARK VINA RESULT:      -9.2      3.675      4.756
REMARK  Name = 5319484
REMARK  4 active torsions:
REMARK  status: ('A' for Active; 'I' for Inactive)
REMARK    1  A    between atoms: O_2  and  C_16
REMARK    2  A    between atoms: O_2  and  C_18
REMARK    3  A    between atoms: C_15  and  C_17
REMARK    4  A    between atoms: C_25  and  C_27
REMARK                            x       y       z     vdW  Elec       q    Type
REMARK                         _______ _______ _______ _____ _____    ______ ____
ROOT
ATOM      1  O   UNL     1     113.520 126.425 138.862  0.00  0.00    +0.000 OA
ATOM      2  O   UNL     1     110.894 126.240 140.053  0.00  0.00    +0.000 OA
ATOM      3  O   UNL     1     111.194 125.579 138.806  0.00  0.00    +0.000 OA
ATOM      4  C   UNL     1     112.730 127.313 140.756  0.00  0.00    +0.000 A 
ATOM      5  C   UNL     1     113.271 127.110 140.118  0.00  0.00    +0.000 A 
ATOM      6  C   UNL     1     111.923 127.019 140.736  0.00  0.00    +0.000 A 
ATOM      7  C   UNL     1     112.997 126.616 139.471  0.00  0.00    +0.000 A 
ATOM      8  C   UNL     1     112.221 126.334 139.452  0.00  0.00    +0.000 A 
ATOM      9  C   UNL     1     111.667 126.526 140.080  0.00  0.00    +0.000 A 
ATOM     10  C   UNL     1     111.969 125.861 138.825  0.00  0.00    +0.000 A 
ATOM     11  C   UNL     1     113.268 125.951 138.235  0.00  0.00    +0.000 A 
ATOM     12  C   UNL     1     112.493 125.670 138.217  0.00  0.00    +0.000 A 
ENDROOT
BRANCH  11  14
ATOM     13  O   UNL     1     115.360 125.187 135.801  0.00  0.00    +0.000 OA
ATOM     14  C   UNL     1     113.791 125.760 137.627  0.00  0.00    +0.000 A 
ATOM     15  C   UNL     1     114.272 125.092 137.690  0.00  0.00    +0.000 A 
ATOM     16  C   UNL     1     113.833 126.237 136.954  0.00  0.00    +0.000 A 
ATOM     17  C   UNL     1     114.794 124.902 137.082  0.00  0.00    +0.000 A 
ATOM     18  C   UNL     1     114.356 126.045 136.346  0.00  0.00    +0.000 A 
ATOM     19  C   UNL     1     114.837 125.378 136.409  0.00  0.00    +0.000 A 
ENDBRANCH  11  14
BRANCH   4  20
ATOM     20  O   UNL     1     112.985 127.786 141.381  0.00  0.00    +0.000 OA
BRANCH  20  29
ATOM     21  O   UNL     1     112.986 129.057 140.728  0.00  0.00    +0.000 OA
ATOM     22  O   UNL     1     111.932 130.082 142.719  0.00  0.00    +0.000 OA
ATOM     23  O   UNL     1     112.282 128.469 142.709  0.00  0.00    +0.000 OA
ATOM     24  O   UNL     1     112.284 131.010 141.402  0.00  0.00    +0.000 OA
ATOM     25  C   UNL     1     112.283 129.740 142.055  0.00  0.00    +0.000 C 
ATOM     26  C   UNL     1     112.459 128.933 142.050  0.00  0.00    +0.000 C 
ATOM     27  C   UNL     1     112.459 130.204 141.397  0.00  0.00    +0.000 C 
ATOM     28  C   UNL     1     112.810 129.862 140.733  0.00  0.00    +0.000 C 
ATOM     29  C   UNL     1     112.810 128.592 141.386  0.00  0.00    +0.000 C 
BRANCH  28  32
ATOM     30  O   UNL     1     112.408 130.470 139.504  0.00  0.00    +0.000 OA
ATOM     31  O   UNL     1     113.741 130.649 139.987  0.00  0.00    +0.000 OA
ATOM     32  C   UNL     1     112.986 130.327 140.075  0.00  0.00    +0.000 C 
ENDBRANCH  28  32
ENDBRANCH  20  29
ENDBRANCH   4  20
TORSDOF 4
ENDMDL
MODEL 10
REMARK VINA RESULT:      -9.0      2.217      3.102
REMARK  Name = 5319484
REMARK  4 active torsions:
REMARK  status: ('A' for Active; 'I' for Inactive)
REMARK    1  A    between atoms: O_2  and  C_16
REMARK    2  A    between atoms: O_2  and  C_18
REMARK    3  A    between atoms: C_15  and  C_17
REMARK    4  A    between atoms: C_25  and  C_27
REMARK                            x       y       z     vdW  Elec       q    Type
REMARK                         _______ _______ _______ _____ _____    ______ ____
ROOT
ATOM      1  O   UNL     1     111.873 126.734 136.040  0.00  0.00    +0.000 OA
ATOM      2  O   UNL     1     110.081 128.494 134.612  0.00  0.00    +0.000 OA
ATOM      3  O   UNL     1     109.686 127.151 134.957  0.00  0.00    +0.000 OA
ATOM      4  C   UNL     1     112.165 128.843 135.359  0.00  0.00    +0.000 A 
ATOM      5  C   UNL     1     112.321 128.077 135.717  0.00  0.00    +0.000 A 
ATOM      6  C   UNL     1     111.405 128.987 134.983  0.00  0.00    +0.000 A 
ATOM      7  C   UNL     1     111.717 127.467 135.694  0.00  0.00    +0.000 A 
ATOM      8  C   UNL     1     110.988 127.606 135.333  0.00  0.00    +0.000 A 
ATOM      9  C   UNL     1     110.813 128.365 134.970  0.00  0.00    +0.000 A 
ATOM     10  C   UNL     1     110.416 127.012 135.318  0.00  0.00    +0.000 A 
ATOM     11  C   UNL     1     111.300 126.140 136.024  0.00  0.00    +0.000 A 
ATOM     12  C   UNL     1     110.572 126.280 135.663  0.00  0.00    +0.000 A 
ENDROOT
BRANCH  11  14
ATOM     13  O   UNL     1     111.925 123.209 137.404  0.00  0.00    +0.000 OA
ATOM     14  C   UNL     1     111.457 125.408 136.369  0.00  0.00    +0.000 A 
ATOM     15  C   UNL     1     111.349 125.302 137.181  0.00  0.00    +0.000 A 
ATOM     16  C   UNL     1     111.721 124.780 135.903  0.00  0.00    +0.000 A 
ATOM     17  C   UNL     1     111.505 124.570 137.525  0.00  0.00    +0.000 A 
ATOM     18  C   UNL     1     111.877 124.047 136.248  0.00  0.00    +0.000 A 
ATOM     19  C   UNL     1     111.769 123.942 137.059  0.00  0.00    +0.000 A 
ENDBRANCH  11  14
BRANCH   4  20
ATOM     20  O   UNL     1     112.739 129.435 135.375  0.00  0.00    +0.000 OA
BRANCH  20  29
ATOM     21  O   UNL     1     112.214 130.174 136.480  0.00  0.00    +0.000 OA
ATOM     22  O   UNL     1     114.514 130.584 137.298  0.00  0.00    +0.000 OA
ATOM     23  O   UNL     1     114.272 129.708 135.921  0.00  0.00    +0.000 OA
ATOM     24  O   UNL     1     113.223 131.186 138.129  0.00  0.00    +0.000 OA
ATOM     25  C   UNL     1     113.747 130.447 137.026  0.00  0.00    +0.000 C 
ATOM     26  C   UNL     1     113.626 130.009 136.336  0.00  0.00    +0.000 C 
ATOM     27  C   UNL     1     113.101 130.748 137.441  0.00  0.00    +0.000 C 
ATOM     28  C   UNL     1     112.335 130.612 137.168  0.00  0.00    +0.000 C 
ATOM     29  C   UNL     1     112.860 129.873 136.064  0.00  0.00    +0.000 C 
BRANCH  28  32
ATOM     30  O   UNL     1     111.352 130.476 138.197  0.00  0.00    +0.000 OA
ATOM     31  O   UNL     1     111.382 131.653 137.387  0.00  0.00    +0.000 OA
ATOM     32  C   UNL     1     111.690 130.913 137.584  0.00  0.00    +0.000 C 
ENDBRANCH  28  32
ENDBRANCH  20  29
ENDBRANCH   4  20
TORSDOF 4
ENDMDL
