MODEL 1
REMARK VINA RESULT:      -8.5      0.000      0.000
REMARK  Name = 632255
REMARK  5 active torsions:
REMARK  status: ('A' for Active; 'I' for Inactive)
REMARK    1  A    between atoms: O_2  and  C_12
REMARK    2  A    between atoms: O_3  and  C_16
REMARK    3  A    between atoms: O_7  and  C_21
REMARK    4  A    between atoms: O_8  and  C_22
REMARK    5  A    between atoms: C_11  and  C_14
REMARK                            x       y       z     vdW  Elec       q    Type
REMARK                         _______ _______ _______ _____ _____    ______ ____
ROOT
ATOM      1  O   UNL     1     104.896 124.397 147.349  0.00  0.00    +0.000 OA
ATOM      2  O   UNL     1     107.211 125.536 146.036  0.00  0.00    +0.000 OA
ATOM      3  O   UNL     1     108.033 125.523 147.467  0.00  0.00    +0.000 OA
ATOM      4  O   UNL     1     106.025 125.271 145.258  0.00  0.00    +0.000 OA
ATOM      5  C   UNL     1     106.069 124.973 146.687  0.00  0.00    +0.000 A 
ATOM      6  C   UNL     1     105.703 124.689 147.370  0.00  0.00    +0.000 A 
ATOM      7  C   UNL     1     104.462 124.401 146.607  0.00  0.00    +0.000 A 
ATOM      8  C   UNL     1     106.115 124.683 148.085  0.00  0.00    +0.000 A 
ATOM      9  C   UNL     1     106.845 125.252 146.719  0.00  0.00    +0.000 A 
ATOM     10  C   UNL     1     105.652 124.985 145.936  0.00  0.00    +0.000 A 
ATOM     11  C   UNL     1     106.890 124.961 148.118  0.00  0.00    +0.000 A 
ATOM     12  C   UNL     1     104.843 124.697 145.896  0.00  0.00    +0.000 A 
ATOM     13  C   UNL     1     107.256 125.245 147.435  0.00  0.00    +0.000 A 
ENDROOT
BRANCH   7  14
ATOM     14  C   UNL     1     103.686 124.123 146.577  0.00  0.00    +0.000 A 
ATOM     15  C   UNL     1     103.079 124.556 146.930  0.00  0.00    +0.000 A 
ATOM     16  C   UNL     1     103.517 123.412 146.195  0.00  0.00    +0.000 A 
ATOM     17  C   UNL     1     102.304 124.278 146.901  0.00  0.00    +0.000 A 
ATOM     18  C   UNL     1     102.134 123.567 146.518  0.00  0.00    +0.000 A 
ATOM     19  C   UNL     1     102.741 123.134 146.165  0.00  0.00    +0.000 A 
BRANCH  17  20
ATOM     20  O   UNL     1     101.697 124.711 147.254  0.00  0.00    +0.000 OA
ATOM     21  C   UNL     1     101.868 125.248 147.857  0.00  0.00    +0.000 C 
ENDBRANCH  17  20
BRANCH  18  22
ATOM     22  O   UNL     1     101.358 123.289 146.489  0.00  0.00    +0.000 OA
ATOM     23  C   UNL     1     101.139 122.739 145.914  0.00  0.00    +0.000 C 
ENDBRANCH  18  22
ENDBRANCH   7  14
BRANCH   8  24
ATOM     24  O   UNL     1     105.750 124.399 148.768  0.00  0.00    +0.000 OA
ATOM     25  C   UNL     1     105.496 124.926 149.350  0.00  0.00    +0.000 C 
ENDBRANCH   8  24
BRANCH  11  26
ATOM     26  O   UNL     1     107.302 124.955 148.833  0.00  0.00    +0.000 OA
ATOM     27  C   UNL     1     107.955 124.461 148.929  0.00  0.00    +0.000 C 
ENDBRANCH  11  26
TORSDOF 5
ENDMDL
MODEL 2
REMARK VINA RESULT:      -7.8     10.911     12.904
REMARK  Name = 632255
REMARK  5 active torsions:
REMARK  status: ('A' for Active; 'I' for Inactive)
REMARK    1  A    between atoms: O_2  and  C_12
REMARK    2  A    between atoms: O_3  and  C_16
REMARK    3  A    between atoms: O_7  and  C_21
REMARK    4  A    between atoms: O_8  and  C_22
REMARK    5  A    between atoms: C_11  and  C_14
REMARK                            x       y       z     vdW  Elec       q    Type
REMARK                         _______ _______ _______ _____ _____    ______ ____
ROOT
ATOM      1  O   UNL     1     110.510 127.472 136.253  0.00  0.00    +0.000 OA
ATOM      2  O   UNL     1     107.951 128.684 135.653  0.00  0.00    +0.000 OA
ATOM      3  O   UNL     1     108.700 130.123 135.352  0.00  0.00    +0.000 OA
ATOM      4  O   UNL     1     107.995 127.291 136.027  0.00  0.00    +0.000 OA
ATOM      5  C   UNL     1     109.216 128.087 135.949  0.00  0.00    +0.000 A 
ATOM      6  C   UNL     1     110.036 128.149 136.022  0.00  0.00    +0.000 A 
ATOM      7  C   UNL     1     110.126 126.719 136.411  0.00  0.00    +0.000 A 
ATOM      8  C   UNL     1     110.409 128.869 135.871  0.00  0.00    +0.000 A 
ATOM      9  C   UNL     1     108.771 128.746 135.725  0.00  0.00    +0.000 A 
ATOM     10  C   UNL     1     108.815 127.344 136.103  0.00  0.00    +0.000 A 
ATOM     11  C   UNL     1     109.965 129.527 135.648  0.00  0.00    +0.000 A 
ATOM     12  C   UNL     1     109.273 126.655 136.336  0.00  0.00    +0.000 A 
ATOM     13  C   UNL     1     109.145 129.465 135.575  0.00  0.00    +0.000 A 
ENDROOT
BRANCH   7  14
ATOM     14  C   UNL     1     110.573 126.063 136.634  0.00  0.00    +0.000 A 
ATOM     15  C   UNL     1     110.764 125.944 137.428  0.00  0.00    +0.000 A 
ATOM     16  C   UNL     1     110.830 125.525 136.064  0.00  0.00    +0.000 A 
ATOM     17  C   UNL     1     111.211 125.289 137.652  0.00  0.00    +0.000 A 
ATOM     18  C   UNL     1     111.468 124.750 137.082  0.00  0.00    +0.000 A 
ATOM     19  C   UNL     1     111.278 124.869 136.288  0.00  0.00    +0.000 A 
BRANCH  17  20
ATOM     20  O   UNL     1     111.402 125.170 138.445  0.00  0.00    +0.000 OA
ATOM     21  C   UNL     1     111.342 125.794 138.983  0.00  0.00    +0.000 C 
ENDBRANCH  17  20
BRANCH  18  22
ATOM     22  O   UNL     1     111.915 124.095 137.305  0.00  0.00    +0.000 OA
ATOM     23  C   UNL     1     112.154 123.546 136.737  0.00  0.00    +0.000 C 
ENDBRANCH  18  22
ENDBRANCH   7  14
BRANCH   8  24
ATOM     24  O   UNL     1     111.229 128.931 135.944  0.00  0.00    +0.000 OA
ATOM     25  C   UNL     1     111.703 128.953 135.269  0.00  0.00    +0.000 C 
ENDBRANCH   8  24
BRANCH  11  26
ATOM     26  O   UNL     1     110.339 130.247 135.497  0.00  0.00    +0.000 OA
ATOM     27  C   UNL     1     110.217 130.888 136.000  0.00  0.00    +0.000 C 
ENDBRANCH  11  26
TORSDOF 5
ENDMDL
MODEL 3
REMARK VINA RESULT:      -7.8      8.933     10.208
REMARK  Name = 632255
REMARK  5 active torsions:
REMARK  status: ('A' for Active; 'I' for Inactive)
REMARK    1  A    between atoms: O_2  and  C_12
REMARK    2  A    between atoms: O_3  and  C_16
REMARK    3  A    between atoms: O_7  and  C_21
REMARK    4  A    between atoms: O_8  and  C_22
REMARK    5  A    between atoms: C_11  and  C_14
REMARK                            x       y       z     vdW  Elec       q    Type
REMARK                         _______ _______ _______ _____ _____    ______ ____
ROOT
ATOM      1  O   UNL     1     102.963 131.985 141.276  0.00  0.00    +0.000 OA
ATOM      2  O   UNL     1     100.769 133.640 142.185  0.00  0.00    +0.000 OA
ATOM      3  O   UNL     1     101.538 134.981 141.608  0.00  0.00    +0.000 OA
ATOM      4  O   UNL     1     100.710 132.215 142.408  0.00  0.00    +0.000 OA
ATOM      5  C   UNL     1     101.854 132.825 141.735  0.00  0.00    +0.000 A 
ATOM      6  C   UNL     1     102.588 132.752 141.366  0.00  0.00    +0.000 A 
ATOM      7  C   UNL     1     102.568 131.282 141.575  0.00  0.00    +0.000 A 
ATOM      8  C   UNL     1     102.972 133.424 141.078  0.00  0.00    +0.000 A 
ATOM      9  C   UNL     1     101.504 133.568 141.816  0.00  0.00    +0.000 A 
ATOM     10  C   UNL     1     101.444 132.134 142.040  0.00  0.00    +0.000 A 
ATOM     11  C   UNL     1     102.623 134.166 141.158  0.00  0.00    +0.000 A 
ATOM     12  C   UNL     1     101.803 131.357 141.959  0.00  0.00    +0.000 A 
ATOM     13  C   UNL     1     101.888 134.238 141.527  0.00  0.00    +0.000 A 
ENDROOT
BRANCH   7  14
ATOM     14  C   UNL     1     102.920 130.541 141.493  0.00  0.00    +0.000 A 
ATOM     15  C   UNL     1     102.738 130.067 140.843  0.00  0.00    +0.000 A 
ATOM     16  C   UNL     1     103.455 130.273 142.061  0.00  0.00    +0.000 A 
ATOM     17  C   UNL     1     103.089 129.326 140.760  0.00  0.00    +0.000 A 
ATOM     18  C   UNL     1     103.625 129.057 141.328  0.00  0.00    +0.000 A 
ATOM     19  C   UNL     1     103.807 129.531 141.979  0.00  0.00    +0.000 A 
BRANCH  17  20
ATOM     20  O   UNL     1     102.907 128.852 140.110  0.00  0.00    +0.000 OA
ATOM     21  C   UNL     1     102.360 129.113 139.549  0.00  0.00    +0.000 C 
ENDBRANCH  17  20
BRANCH  18  22
ATOM     22  O   UNL     1     103.976 128.316 141.246  0.00  0.00    +0.000 OA
ATOM     23  C   UNL     1     104.581 128.088 141.759  0.00  0.00    +0.000 C 
ENDBRANCH  18  22
ENDBRANCH   7  14
BRANCH   8  24
ATOM     24  O   UNL     1     103.707 133.351 140.708  0.00  0.00    +0.000 OA
ATOM     25  C   UNL     1     103.766 133.426 139.889  0.00  0.00    +0.000 C 
ENDBRANCH   8  24
BRANCH  11  26
ATOM     26  O   UNL     1     103.007 134.837 140.869  0.00  0.00    +0.000 OA
ATOM     27  C   UNL     1     103.281 135.412 141.392  0.00  0.00    +0.000 C 
ENDBRANCH  11  26
TORSDOF 5
ENDMDL
MODEL 4
REMARK VINA RESULT:      -7.7      0.999      4.878
REMARK  Name = 632255
REMARK  5 active torsions:
REMARK  status: ('A' for Active; 'I' for Inactive)
REMARK    1  A    between atoms: O_2  and  C_12
REMARK    2  A    between atoms: O_3  and  C_16
REMARK    3  A    between atoms: O_7  and  C_21
REMARK    4  A    between atoms: O_8  and  C_22
REMARK    5  A    between atoms: C_11  and  C_14
REMARK                            x       y       z     vdW  Elec       q    Type
REMARK                         _______ _______ _______ _____ _____    ______ ____
ROOT
ATOM      1  O   UNL     1     104.215 124.322 146.816  0.00  0.00    +0.000 OA
ATOM      2  O   UNL     1     101.676 124.445 148.199  0.00  0.00    +0.000 OA
ATOM      3  O   UNL     1     100.951 123.653 146.946  0.00  0.00    +0.000 OA
ATOM      4  O   UNL     1     102.842 125.021 148.825  0.00  0.00    +0.000 OA
ATOM      5  C   UNL     1     102.929 124.383 147.514  0.00  0.00    +0.000 A 
ATOM      6  C   UNL     1     103.374 124.154 146.858  0.00  0.00    +0.000 A 
ATOM      7  C   UNL     1     104.599 124.734 147.466  0.00  0.00    +0.000 A 
ATOM      8  C   UNL     1     103.011 123.758 146.232  0.00  0.00    +0.000 A 
ATOM      9  C   UNL     1     102.121 124.216 147.544  0.00  0.00    +0.000 A 
ATOM     10  C   UNL     1     103.294 124.796 148.173  0.00  0.00    +0.000 A 
ATOM     11  C   UNL     1     102.204 123.591 146.261  0.00  0.00    +0.000 A 
ATOM     12  C   UNL     1     104.136 124.972 148.149  0.00  0.00    +0.000 A 
ATOM     13  C   UNL     1     101.759 123.820 146.917  0.00  0.00    +0.000 A 
ENDROOT
BRANCH   7  14
ATOM     14  C   UNL     1     105.407 124.900 147.434  0.00  0.00    +0.000 A 
ATOM     15  C   UNL     1     105.698 125.423 146.867  0.00  0.00    +0.000 A 
ATOM     16  C   UNL     1     105.922 124.542 147.969  0.00  0.00    +0.000 A 
ATOM     17  C   UNL     1     106.505 125.589 146.835  0.00  0.00    +0.000 A 
ATOM     18  C   UNL     1     107.022 125.231 147.370  0.00  0.00    +0.000 A 
ATOM     19  C   UNL     1     106.730 124.708 147.937  0.00  0.00    +0.000 A 
BRANCH  17  20
ATOM     20  O   UNL     1     106.796 126.112 146.268  0.00  0.00    +0.000 OA
ATOM     21  C   UNL     1     106.333 126.316 145.616  0.00  0.00    +0.000 C 
ENDBRANCH  17  20
BRANCH  18  22
ATOM     22  O   UNL     1     107.829 125.397 147.338  0.00  0.00    +0.000 OA
ATOM     23  C   UNL     1     108.346 125.033 147.868  0.00  0.00    +0.000 C 
ENDBRANCH  18  22
ENDBRANCH   7  14
BRANCH   8  24
ATOM     24  O   UNL     1     103.456 123.529 145.576  0.00  0.00    +0.000 OA
ATOM     25  C   UNL     1     103.672 122.739 145.479  0.00  0.00    +0.000 C 
ENDBRANCH   8  24
BRANCH  11  26
ATOM     26  O   UNL     1     101.841 123.195 145.635  0.00  0.00    +0.000 OA
ATOM     27  C   UNL     1     101.123 123.467 145.335  0.00  0.00    +0.000 C 
ENDBRANCH  11  26
TORSDOF 5
ENDMDL
MODEL 5
REMARK VINA RESULT:      -7.7     12.837     14.522
REMARK  Name = 632255
REMARK  5 active torsions:
REMARK  status: ('A' for Active; 'I' for Inactive)
REMARK    1  A    between atoms: O_2  and  C_12
REMARK    2  A    between atoms: O_3  and  C_16
REMARK    3  A    between atoms: O_7  and  C_21
REMARK    4  A    between atoms: O_8  and  C_22
REMARK    5  A    between atoms: C_11  and  C_14
REMARK                            x       y       z     vdW  Elec       q    Type
REMARK                         _______ _______ _______ _____ _____    ______ ____
ROOT
ATOM      1  O   UNL     1     113.343 127.403 136.413  0.00  0.00    +0.000 OA
ATOM      2  O   UNL     1     110.801 126.164 135.795  0.00  0.00    +0.000 OA
ATOM      3  O   UNL     1     111.302 124.768 136.519  0.00  0.00    +0.000 OA
ATOM      4  O   UNL     1     111.031 127.530 135.390  0.00  0.00    +0.000 OA
ATOM      5  C   UNL     1     112.058 126.774 136.101  0.00  0.00    +0.000 A 
ATOM      6  C   UNL     1     112.811 126.730 136.435  0.00  0.00    +0.000 A 
ATOM      7  C   UNL     1     113.089 128.133 136.037  0.00  0.00    +0.000 A 
ATOM      8  C   UNL     1     113.060 126.031 136.797  0.00  0.00    +0.000 A 
ATOM      9  C   UNL     1     111.554 126.120 136.129  0.00  0.00    +0.000 A 
ATOM     10  C   UNL     1     111.785 127.494 135.721  0.00  0.00    +0.000 A 
ATOM     11  C   UNL     1     112.558 125.378 136.825  0.00  0.00    +0.000 A 
ATOM     12  C   UNL     1     112.305 128.179 135.689  0.00  0.00    +0.000 A 
ATOM     13  C   UNL     1     111.805 125.422 136.491  0.00  0.00    +0.000 A 
ENDROOT
BRANCH   7  14
ATOM     14  C   UNL     1     113.593 128.785 136.011  0.00  0.00    +0.000 A 
ATOM     15  C   UNL     1     113.584 129.339 136.622  0.00  0.00    +0.000 A 
ATOM     16  C   UNL     1     114.108 128.883 135.373  0.00  0.00    +0.000 A 
ATOM     17  C   UNL     1     114.088 129.990 136.596  0.00  0.00    +0.000 A 
ATOM     18  C   UNL     1     114.603 130.090 135.959  0.00  0.00    +0.000 A 
ATOM     19  C   UNL     1     114.612 129.536 135.347  0.00  0.00    +0.000 A 
BRANCH  17  20
ATOM     20  O   UNL     1     114.078 130.545 137.207  0.00  0.00    +0.000 OA
ATOM     21  C   UNL     1     113.722 130.358 137.928  0.00  0.00    +0.000 C 
ENDBRANCH  17  20
BRANCH  18  22
ATOM     22  O   UNL     1     115.107 130.741 135.933  0.00  0.00    +0.000 OA
ATOM     23  C   UNL     1     115.571 130.877 135.264  0.00  0.00    +0.000 C 
ENDBRANCH  18  22
ENDBRANCH   7  14
BRANCH   8  24
ATOM     24  O   UNL     1     113.813 125.987 137.132  0.00  0.00    +0.000 OA
ATOM     25  C   UNL     1     113.902 125.992 137.952  0.00  0.00    +0.000 C 
ENDBRANCH   8  24
BRANCH  11  26
ATOM     26  O   UNL     1     112.808 124.680 137.187  0.00  0.00    +0.000 OA
ATOM     27  C   UNL     1     112.940 124.004 136.734  0.00  0.00    +0.000 C 
ENDBRANCH  11  26
TORSDOF 5
ENDMDL
MODEL 6
REMARK VINA RESULT:      -7.6      1.192      2.362
REMARK  Name = 632255
REMARK  5 active torsions:
REMARK  status: ('A' for Active; 'I' for Inactive)
REMARK    1  A    between atoms: O_2  and  C_12
REMARK    2  A    between atoms: O_3  and  C_16
REMARK    3  A    between atoms: O_7  and  C_21
REMARK    4  A    between atoms: O_8  and  C_22
REMARK    5  A    between atoms: C_11  and  C_14
REMARK                            x       y       z     vdW  Elec       q    Type
REMARK                         _______ _______ _______ _____ _____    ______ ____
ROOT
ATOM      1  O   UNL     1     105.038 125.347 146.389  0.00  0.00    +0.000 OA
ATOM      2  O   UNL     1     107.505 125.289 147.901  0.00  0.00    +0.000 OA
ATOM      3  O   UNL     1     108.053 126.600 147.063  0.00  0.00    +0.000 OA
ATOM      4  O   UNL     1     106.491 124.300 148.178  0.00  0.00    +0.000 OA
ATOM      5  C   UNL     1     106.287 125.320 147.153  0.00  0.00    +0.000 A 
ATOM      6  C   UNL     1     105.816 125.663 146.569  0.00  0.00    +0.000 A 
ATOM      7  C   UNL     1     104.746 124.664 146.822  0.00  0.00    +0.000 A 
ATOM      8  C   UNL     1     106.091 126.319 146.151  0.00  0.00    +0.000 A 
ATOM      9  C   UNL     1     107.033 125.632 147.318  0.00  0.00    +0.000 A 
ATOM     10  C   UNL     1     106.013 124.637 147.596  0.00  0.00    +0.000 A 
ATOM     11  C   UNL     1     106.836 126.631 146.315  0.00  0.00    +0.000 A 
ATOM     12  C   UNL     1     105.237 124.307 147.429  0.00  0.00    +0.000 A 
ATOM     13  C   UNL     1     107.307 126.288 146.899  0.00  0.00    +0.000 A 
ENDROOT
BRANCH   7  14
ATOM     14  C   UNL     1     104.000 124.354 146.655  0.00  0.00    +0.000 A 
ATOM     15  C   UNL     1     103.911 123.793 146.057  0.00  0.00    +0.000 A 
ATOM     16  C   UNL     1     103.343 124.605 147.087  0.00  0.00    +0.000 A 
ATOM     17  C   UNL     1     103.166 123.483 145.890  0.00  0.00    +0.000 A 
ATOM     18  C   UNL     1     102.508 123.733 146.321  0.00  0.00    +0.000 A 
ATOM     19  C   UNL     1     102.597 124.294 146.920  0.00  0.00    +0.000 A 
BRANCH  17  20
ATOM     20  O   UNL     1     103.076 122.922 145.292  0.00  0.00    +0.000 OA
ATOM     21  C   UNL     1     103.712 122.740 144.797  0.00  0.00    +0.000 C 
ENDBRANCH  17  20
BRANCH  18  22
ATOM     22  O   UNL     1     101.763 123.423 146.155  0.00  0.00    +0.000 OA
ATOM     23  C   UNL     1     101.094 123.738 146.520  0.00  0.00    +0.000 C 
ENDBRANCH  18  22
ENDBRANCH   7  14
BRANCH   8  24
ATOM     24  O   UNL     1     105.619 126.662 145.567  0.00  0.00    +0.000 OA
ATOM     25  C   UNL     1     105.792 126.537 144.770  0.00  0.00    +0.000 C 
ENDBRANCH   8  24
BRANCH  11  26
ATOM     26  O   UNL     1     107.110 127.287 145.896  0.00  0.00    +0.000 OA
ATOM     27  C   UNL     1     107.205 128.011 146.278  0.00  0.00    +0.000 C 
ENDBRANCH  11  26
TORSDOF 5
ENDMDL
MODEL 7
REMARK VINA RESULT:      -7.6      1.325      4.531
REMARK  Name = 632255
REMARK  5 active torsions:
REMARK  status: ('A' for Active; 'I' for Inactive)
REMARK    1  A    between atoms: O_2  and  C_12
REMARK    2  A    between atoms: O_3  and  C_16
REMARK    3  A    between atoms: O_7  and  C_21
REMARK    4  A    between atoms: O_8  and  C_22
REMARK    5  A    between atoms: C_11  and  C_14
REMARK                            x       y       z     vdW  Elec       q    Type
REMARK                         _______ _______ _______ _____ _____    ______ ____
ROOT
ATOM      1  O   UNL     1     104.499 125.002 146.961  0.00  0.00    +0.000 OA
ATOM      2  O   UNL     1     103.255 122.858 145.468  0.00  0.00    +0.000 OA
ATOM      3  O   UNL     1     102.073 122.741 146.614  0.00  0.00    +0.000 OA
ATOM      4  O   UNL     1     104.458 123.464 144.951  0.00  0.00    +0.000 OA
ATOM      5  C   UNL     1     103.868 123.917 146.207  0.00  0.00    +0.000 A 
ATOM      6  C   UNL     1     103.879 124.417 146.863  0.00  0.00    +0.000 A 
ATOM      7  C   UNL     1     105.118 125.068 146.368  0.00  0.00    +0.000 A 
ATOM      8  C   UNL     1     103.287 124.358 147.436  0.00  0.00    +0.000 A 
ATOM      9  C   UNL     1     103.266 123.358 146.124  0.00  0.00    +0.000 A 
ATOM     10  C   UNL     1     104.477 123.968 145.604  0.00  0.00    +0.000 A 
ATOM     11  C   UNL     1     102.686 123.800 147.353  0.00  0.00    +0.000 A 
ATOM     12  C   UNL     1     105.106 124.548 145.685  0.00  0.00    +0.000 A 
ATOM     13  C   UNL     1     102.675 123.300 146.697  0.00  0.00    +0.000 A 
ENDROOT
BRANCH   7  14
ATOM     14  C   UNL     1     105.718 125.628 146.453  0.00  0.00    +0.000 A 
ATOM     15  C   UNL     1     106.424 125.421 146.828  0.00  0.00    +0.000 A 
ATOM     16  C   UNL     1     105.613 126.393 146.164  0.00  0.00    +0.000 A 
ATOM     17  C   UNL     1     107.024 125.980 146.914  0.00  0.00    +0.000 A 
ATOM     18  C   UNL     1     106.920 126.746 146.625  0.00  0.00    +0.000 A 
ATOM     19  C   UNL     1     106.214 126.952 146.250  0.00  0.00    +0.000 A 
BRANCH  17  20
ATOM     20  O   UNL     1     107.729 125.773 147.288  0.00  0.00    +0.000 OA
ATOM     21  C   UNL     1     107.748 125.135 147.811  0.00  0.00    +0.000 C 
ENDBRANCH  17  20
BRANCH  18  22
ATOM     22  O   UNL     1     107.520 127.304 146.710  0.00  0.00    +0.000 OA
ATOM     23  C   UNL     1     107.438 128.052 146.371  0.00  0.00    +0.000 C 
ENDBRANCH  18  22
ENDBRANCH   7  14
BRANCH   8  24
ATOM     24  O   UNL     1     103.298 124.858 148.092  0.00  0.00    +0.000 OA
ATOM     25  C   UNL     1     103.540 124.571 148.827  0.00  0.00    +0.000 C 
ENDBRANCH   8  24
BRANCH  11  26
ATOM     26  O   UNL     1     102.095 123.741 147.926  0.00  0.00    +0.000 OA
ATOM     27  C   UNL     1     101.314 123.921 147.734  0.00  0.00    +0.000 C 
ENDBRANCH  11  26
TORSDOF 5
ENDMDL
MODEL 8
REMARK VINA RESULT:      -7.6     11.231     13.037
REMARK  Name = 632255
REMARK  5 active torsions:
REMARK  status: ('A' for Active; 'I' for Inactive)
REMARK    1  A    between atoms: O_2  and  C_12
REMARK    2  A    between atoms: O_3  and  C_16
REMARK    3  A    between atoms: O_7  and  C_21
REMARK    4  A    between atoms: O_8  and  C_22
REMARK    5  A    between atoms: C_11  and  C_14
REMARK                            x       y       z     vdW  Elec       q    Type
REMARK                         _______ _______ _______ _____ _____    ______ ____
ROOT
ATOM      1  O   UNL     1     111.022 126.401 136.691  0.00  0.00    +0.000 OA
ATOM      2  O   UNL     1     108.698 126.657 134.984  0.00  0.00    +0.000 OA
ATOM      3  O   UNL     1     108.191 127.956 135.865  0.00  0.00    +0.000 OA
ATOM      4  O   UNL     1     109.647 125.601 134.721  0.00  0.00    +0.000 OA
ATOM      5  C   UNL     1     109.845 126.532 135.829  0.00  0.00    +0.000 A 
ATOM      6  C   UNL     1     110.291 126.795 136.471  0.00  0.00    +0.000 A 
ATOM      7  C   UNL     1     111.292 125.723 136.236  0.00  0.00    +0.000 A 
ATOM      8  C   UNL     1     110.037 127.445 136.911  0.00  0.00    +0.000 A 
ATOM      9  C   UNL     1     109.145 126.920 135.626  0.00  0.00    +0.000 A 
ATOM     10  C   UNL     1     110.099 125.857 135.362  0.00  0.00    +0.000 A 
ATOM     11  C   UNL     1     109.337 127.832 136.710  0.00  0.00    +0.000 A 
ATOM     12  C   UNL     1     110.827 125.449 135.568  0.00  0.00    +0.000 A 
ATOM     13  C   UNL     1     108.891 127.569 136.067  0.00  0.00    +0.000 A 
ENDROOT
BRANCH   7  14
ATOM     14  C   UNL     1     111.992 125.338 136.441  0.00  0.00    +0.000 A 
ATOM     15  C   UNL     1     111.968 124.568 136.736  0.00  0.00    +0.000 A 
ATOM     16  C   UNL     1     112.716 125.722 136.349  0.00  0.00    +0.000 A 
ATOM     17  C   UNL     1     112.668 124.183 136.940  0.00  0.00    +0.000 A 
ATOM     18  C   UNL     1     113.393 124.566 136.849  0.00  0.00    +0.000 A 
ATOM     19  C   UNL     1     113.417 125.336 136.553  0.00  0.00    +0.000 A 
BRANCH  17  20
ATOM     20  O   UNL     1     112.644 123.413 137.236  0.00  0.00    +0.000 OA
ATOM     21  C   UNL     1     111.924 123.014 137.293  0.00  0.00    +0.000 C 
ENDBRANCH  17  20
BRANCH  18  22
ATOM     22  O   UNL     1     114.092 124.181 137.053  0.00  0.00    +0.000 OA
ATOM     23  C   UNL     1     114.783 124.616 137.172  0.00  0.00    +0.000 C 
ENDBRANCH  18  22
ENDBRANCH   7  14
BRANCH   8  24
ATOM     24  O   UNL     1     110.483 127.708 137.554  0.00  0.00    +0.000 OA
ATOM     25  C   UNL     1     110.243 127.531 138.323  0.00  0.00    +0.000 C 
ENDBRANCH   8  24
BRANCH  11  26
ATOM     26  O   UNL     1     109.083 128.482 137.150  0.00  0.00    +0.000 OA
ATOM     27  C   UNL     1     109.135 129.241 136.833  0.00  0.00    +0.000 C 
ENDBRANCH  11  26
TORSDOF 5
ENDMDL
MODEL 9
REMARK VINA RESULT:      -7.6     10.450     12.744
REMARK  Name = 632255
REMARK  5 active torsions:
REMARK  status: ('A' for Active; 'I' for Inactive)
REMARK    1  A    between atoms: O_2  and  C_12
REMARK    2  A    between atoms: O_3  and  C_16
REMARK    3  A    between atoms: O_7  and  C_21
REMARK    4  A    between atoms: O_8  and  C_22
REMARK    5  A    between atoms: C_11  and  C_14
REMARK                            x       y       z     vdW  Elec       q    Type
REMARK                         _______ _______ _______ _____ _____    ______ ____
ROOT
ATOM      1  O   UNL     1     112.018 126.648 137.465  0.00  0.00    +0.000 OA
ATOM      2  O   UNL     1     110.969 124.568 135.747  0.00  0.00    +0.000 OA
ATOM      3  O   UNL     1     110.535 125.704 134.632  0.00  0.00    +0.000 OA
ATOM      4  O   UNL     1     111.554 124.200 137.015  0.00  0.00    +0.000 OA
ATOM      5  C   UNL     1     111.487 125.597 136.594  0.00  0.00    +0.000 A 
ATOM      6  C   UNL     1     111.637 126.395 136.738  0.00  0.00    +0.000 A 
ATOM      7  C   UNL     1     112.247 126.061 138.051  0.00  0.00    +0.000 A 
ATOM      8  C   UNL     1     111.420 126.963 136.180  0.00  0.00    +0.000 A 
ATOM      9  C   UNL     1     111.119 125.366 135.892  0.00  0.00    +0.000 A 
ATOM     10  C   UNL     1     111.708 124.996 137.167  0.00  0.00    +0.000 A 
ATOM     11  C   UNL     1     111.053 126.733 135.479  0.00  0.00    +0.000 A 
ATOM     12  C   UNL     1     112.090 125.230 137.900  0.00  0.00    +0.000 A 
ATOM     13  C   UNL     1     110.903 125.934 135.334  0.00  0.00    +0.000 A 
ENDROOT
BRANCH   7  14
ATOM     14  C   UNL     1     112.614 126.294 138.752  0.00  0.00    +0.000 A 
ATOM     15  C   UNL     1     112.159 126.458 139.420  0.00  0.00    +0.000 A 
ATOM     16  C   UNL     1     113.435 126.363 138.784  0.00  0.00    +0.000 A 
ATOM     17  C   UNL     1     112.525 126.691 140.121  0.00  0.00    +0.000 A 
ATOM     18  C   UNL     1     113.347 126.761 140.155  0.00  0.00    +0.000 A 
ATOM     19  C   UNL     1     113.802 126.597 139.486  0.00  0.00    +0.000 A 
BRANCH  17  20
ATOM     20  O   UNL     1     112.071 126.856 140.789  0.00  0.00    +0.000 OA
ATOM     21  C   UNL     1     111.250 126.772 140.762  0.00  0.00    +0.000 C 
ENDBRANCH  17  20
BRANCH  18  22
ATOM     22  O   UNL     1     113.713 126.994 140.855  0.00  0.00    +0.000 OA
ATOM     23  C   UNL     1     114.529 127.116 140.873  0.00  0.00    +0.000 C 
ENDBRANCH  18  22
ENDBRANCH   7  14
BRANCH   8  24
ATOM     24  O   UNL     1     111.570 127.761 136.324  0.00  0.00    +0.000 OA
ATOM     25  C   UNL     1     112.187 128.143 135.932  0.00  0.00    +0.000 C 
ENDBRANCH   8  24
BRANCH  11  26
ATOM     26  O   UNL     1     110.836 127.300 134.920  0.00  0.00    +0.000 OA
ATOM     27  C   UNL     1     110.039 127.435 134.756  0.00  0.00    +0.000 C 
ENDBRANCH  11  26
TORSDOF 5
ENDMDL
MODEL 10
REMARK VINA RESULT:      -7.5     11.977     13.449
REMARK  Name = 632255
REMARK  5 active torsions:
REMARK  status: ('A' for Active; 'I' for Inactive)
REMARK    1  A    between atoms: O_2  and  C_12
REMARK    2  A    between atoms: O_3  and  C_16
REMARK    3  A    between atoms: O_7  and  C_21
REMARK    4  A    between atoms: O_8  and  C_22
REMARK    5  A    between atoms: C_11  and  C_14
REMARK                            x       y       z     vdW  Elec       q    Type
REMARK                         _______ _______ _______ _____ _____    ______ ____
ROOT
ATOM      1  O   UNL     1     112.368 127.659 137.074  0.00  0.00    +0.000 OA
ATOM      2  O   UNL     1     114.189 129.711 136.152  0.00  0.00    +0.000 OA
ATOM      3  O   UNL     1     113.441 130.816 137.123  0.00  0.00    +0.000 OA
ATOM      4  O   UNL     1     114.322 128.372 135.631  0.00  0.00    +0.000 OA
ATOM      5  C   UNL     1     113.288 128.699 136.609  0.00  0.00    +0.000 A 
ATOM      6  C   UNL     1     112.651 128.470 137.080  0.00  0.00    +0.000 A 
ATOM      7  C   UNL     1     112.753 127.079 136.570  0.00  0.00    +0.000 A 
ATOM      8  C   UNL     1     112.278 129.023 137.566  0.00  0.00    +0.000 A 
ATOM      9  C   UNL     1     113.552 129.482 136.623  0.00  0.00    +0.000 A 
ATOM     10  C   UNL     1     113.686 128.134 136.099  0.00  0.00    +0.000 A 
ATOM     11  C   UNL     1     112.540 129.804 137.580  0.00  0.00    +0.000 A 
ATOM     12  C   UNL     1     113.416 127.318 136.080  0.00  0.00    +0.000 A 
ATOM     13  C   UNL     1     113.177 130.033 137.109  0.00  0.00    +0.000 A 
ENDROOT
BRANCH   7  14
ATOM     14  C   UNL     1     112.488 126.298 136.558  0.00  0.00    +0.000 A 
ATOM     15  C   UNL     1     111.837 126.090 136.095  0.00  0.00    +0.000 A 
ATOM     16  C   UNL     1     112.873 125.724 137.008  0.00  0.00    +0.000 A 
ATOM     17  C   UNL     1     111.572 125.310 136.082  0.00  0.00    +0.000 A 
ATOM     18  C   UNL     1     111.957 124.735 136.532  0.00  0.00    +0.000 A 
ATOM     19  C   UNL     1     112.607 124.942 136.995  0.00  0.00    +0.000 A 
BRANCH  17  20
ATOM     20  O   UNL     1     110.921 125.103 135.619  0.00  0.00    +0.000 OA
ATOM     21  C   UNL     1     110.519 125.681 135.189  0.00  0.00    +0.000 C 
ENDBRANCH  17  20
BRANCH  18  22
ATOM     22  O   UNL     1     111.691 123.955 136.520  0.00  0.00    +0.000 OA
ATOM     23  C   UNL     1     112.058 123.387 136.993  0.00  0.00    +0.000 C 
ENDBRANCH  18  22
ENDBRANCH   7  14
BRANCH   8  24
ATOM     24  O   UNL     1     111.640 128.793 138.037  0.00  0.00    +0.000 OA
ATOM     25  C   UNL     1     111.745 128.681 138.847  0.00  0.00    +0.000 C 
ENDBRANCH   8  24
BRANCH  11  26
ATOM     26  O   UNL     1     112.167 130.357 138.066  0.00  0.00    +0.000 OA
ATOM     27  C   UNL     1     111.755 130.988 137.732  0.00  0.00    +0.000 C 
ENDBRANCH  11  26
TORSDOF 5
ENDMDL
