MODEL 1
REMARK VINA RESULT:     -10.9      0.000      0.000
REMARK  Name = 44257709
REMARK  7 active torsions:
REMARK  status: ('A' for Active; 'I' for Inactive)
REMARK    1  A    between atoms: O_1  and  C_16
REMARK    2  A    between atoms: O_1  and  C_21
REMARK    3  A    between atoms: O_9  and  C_27
REMARK    4  A    between atoms: O_9  and  C_37
REMARK    5  A    between atoms: C_18  and  C_26
REMARK    6  A    between atoms: C_20  and  C_27
REMARK    7  A    between atoms: C_35  and  C_38
REMARK                            x       y       z     vdW  Elec       q    Type
REMARK                         _______ _______ _______ _____ _____    ______ ____
ROOT
ATOM      1  O   UNL     1     113.326 127.456 136.762  0.00  0.00    +0.000 OA
ATOM      2  O   UNL     1     112.468 128.233 138.949  0.00  0.00    +0.000 OA
ATOM      3  O   UNL     1     113.002 129.328 137.836  0.00  0.00    +0.000 OA
ATOM      4  C   UNL     1     112.773 127.167 138.047  0.00  0.00    +0.000 C 
ATOM      5  C   UNL     1     112.754 127.974 138.220  0.00  0.00    +0.000 C 
ATOM      6  C   UNL     1     113.059 126.908 137.318  0.00  0.00    +0.000 C 
ATOM      7  C   UNL     1     113.021 128.521 137.664  0.00  0.00    +0.000 C 
ATOM      8  C   UNL     1     113.307 128.262 136.934  0.00  0.00    +0.000 C 
ENDROOT
BRANCH   6  13
ATOM      9  O   UNL     1     111.709 126.198 136.673  0.00  0.00    +0.000 OA
ATOM     10  O   UNL     1     114.427 126.034 137.616  0.00  0.00    +0.000 OA
ATOM     11  O   UNL     1     113.139 123.683 136.626  0.00  0.00    +0.000 OA
ATOM     12  O   UNL     1     111.779 123.723 136.145  0.00  0.00    +0.000 OA
ATOM     13  C   UNL     1     113.078 126.102 137.145  0.00  0.00    +0.000 A 
ATOM     14  C   UNL     1     112.415 125.732 136.823  0.00  0.00    +0.000 A 
ATOM     15  C   UNL     1     113.762 125.665 137.294  0.00  0.00    +0.000 A 
ATOM     16  C   UNL     1     112.435 124.926 136.650  0.00  0.00    +0.000 A 
ATOM     17  C   UNL     1     113.783 124.858 137.121  0.00  0.00    +0.000 A 
ATOM     18  C   UNL     1     113.118 124.489 136.799  0.00  0.00    +0.000 A 
ATOM     19  C   UNL     1     111.750 124.530 136.315  0.00  0.00    +0.000 A 
ATOM     20  C   UNL     1     111.014 125.819 136.338  0.00  0.00    +0.000 A 
ATOM     21  C   UNL     1     111.035 124.979 136.158  0.00  0.00    +0.000 A 
BRANCH  20  23
ATOM     22  O   UNL     1     108.285 127.577 135.746  0.00  0.00    +0.000 OA
ATOM     23  C   UNL     1     110.332 126.259 136.190  0.00  0.00    +0.000 A 
ATOM     24  C   UNL     1     109.757 126.338 136.777  0.00  0.00    +0.000 A 
ATOM     25  C   UNL     1     110.225 126.619 135.456  0.00  0.00    +0.000 A 
ATOM     26  C   UNL     1     109.075 126.777 136.628  0.00  0.00    +0.000 A 
ATOM     27  C   UNL     1     109.542 127.059 135.307  0.00  0.00    +0.000 A 
ATOM     28  C   UNL     1     108.967 127.138 135.894  0.00  0.00    +0.000 A 
ENDBRANCH  20  23
ENDBRANCH   6  13
BRANCH   4  29
ATOM     29  O   UNL     1     112.506 126.620 138.603  0.00  0.00    +0.000 OA
BRANCH  29  34
ATOM     30  O   UNL     1     113.490 126.947 139.587  0.00  0.00    +0.000 OA
ATOM     31  O   UNL     1     111.429 126.260 139.800  0.00  0.00    +0.000 OA
ATOM     32  O   UNL     1     111.873 126.408 141.382  0.00  0.00    +0.000 OA
ATOM     33  O   UNL     1     113.395 126.916 141.768  0.00  0.00    +0.000 OA
ATOM     34  C   UNL     1     112.729 126.694 139.395  0.00  0.00    +0.000 C 
ATOM     35  C   UNL     1     112.190 126.514 139.994  0.00  0.00    +0.000 C 
ATOM     36  C   UNL     1     112.412 126.588 140.784  0.00  0.00    +0.000 C 
ATOM     37  C   UNL     1     113.173 126.841 140.977  0.00  0.00    +0.000 C 
ATOM     38  C   UNL     1     113.711 127.021 140.378  0.00  0.00    +0.000 C 
ATOM     39  C   UNL     1     114.473 127.275 140.571  0.00  0.00    +0.000 C 
ENDBRANCH  29  34
ENDBRANCH   4  29
BRANCH   8  40
ATOM     40  C   UNL     1     113.574 128.810 136.378  0.00  0.00    +0.000 C 
BRANCH  40  41
ATOM     41  O   UNL     1     113.851 128.551 135.645  0.00  0.00    +0.000 OA
BRANCH  41  43
ATOM     42  O   UNL     1     113.465 129.477 134.627  0.00  0.00    +0.000 OA
ATOM     43  C   UNL     1     114.055 129.100 135.064  0.00  0.00    +0.000 C 
ATOM     44  C   UNL     1     114.848 129.272 134.920  0.00  0.00    +0.000 C 
ENDBRANCH  41  43
ENDBRANCH  40  41
ENDBRANCH   8  40
TORSDOF 7
ENDMDL
MODEL 2
REMARK VINA RESULT:     -10.4      1.444      3.556
REMARK  Name = 44257709
REMARK  7 active torsions:
REMARK  status: ('A' for Active; 'I' for Inactive)
REMARK    1  A    between atoms: O_1  and  C_16
REMARK    2  A    between atoms: O_1  and  C_21
REMARK    3  A    between atoms: O_9  and  C_27
REMARK    4  A    between atoms: O_9  and  C_37
REMARK    5  A    between atoms: C_18  and  C_26
REMARK    6  A    between atoms: C_20  and  C_27
REMARK    7  A    between atoms: C_35  and  C_38
REMARK                            x       y       z     vdW  Elec       q    Type
REMARK                         _______ _______ _______ _____ _____    ______ ____
ROOT
ATOM      1  O   UNL     1     111.712 126.665 139.220  0.00  0.00    +0.000 OA
ATOM      2  O   UNL     1     111.559 129.018 138.470  0.00  0.00    +0.000 OA
ATOM      3  O   UNL     1     110.395 128.390 139.456  0.00  0.00    +0.000 OA
ATOM      4  C   UNL     1     112.243 127.764 138.477  0.00  0.00    +0.000 C 
ATOM      5  C   UNL     1     111.610 128.234 138.720  0.00  0.00    +0.000 C 
ATOM      6  C   UNL     1     112.294 126.980 138.727  0.00  0.00    +0.000 C 
ATOM      7  C   UNL     1     111.028 127.920 139.213  0.00  0.00    +0.000 C 
ATOM      8  C   UNL     1     111.079 127.135 139.463  0.00  0.00    +0.000 C 
ENDROOT
BRANCH   6  13
ATOM      9  O   UNL     1     112.191 126.192 137.274  0.00  0.00    +0.000 OA
ATOM     10  O   UNL     1     113.629 126.837 139.685  0.00  0.00    +0.000 OA
ATOM     11  O   UNL     1     114.825 125.097 137.759  0.00  0.00    +0.000 OA
ATOM     12  O   UNL     1     114.138 124.749 136.539  0.00  0.00    +0.000 OA
ATOM     13  C   UNL     1     112.926 126.509 138.484  0.00  0.00    +0.000 A 
ATOM     14  C   UNL     1     112.892 126.110 137.764  0.00  0.00    +0.000 A 
ATOM     15  C   UNL     1     113.594 126.437 138.964  0.00  0.00    +0.000 A 
ATOM     16  C   UNL     1     113.524 125.639 137.521  0.00  0.00    +0.000 A 
ATOM     17  C   UNL     1     114.227 125.967 138.722  0.00  0.00    +0.000 A 
ATOM     18  C   UNL     1     114.192 125.567 138.001  0.00  0.00    +0.000 A 
ATOM     19  C   UNL     1     113.500 125.218 136.773  0.00  0.00    +0.000 A 
ATOM     20  C   UNL     1     112.148 125.778 136.521  0.00  0.00    +0.000 A 
ATOM     21  C   UNL     1     112.808 125.288 136.270  0.00  0.00    +0.000 A 
BRANCH  20  23
ATOM     22  O   UNL     1     109.472 126.071 134.613  0.00  0.00    +0.000 OA
ATOM     23  C   UNL     1     111.479 125.851 136.044  0.00  0.00    +0.000 A 
ATOM     24  C   UNL     1     110.841 125.339 136.148  0.00  0.00    +0.000 A 
ATOM     25  C   UNL     1     111.449 126.437 135.465  0.00  0.00    +0.000 A 
ATOM     26  C   UNL     1     110.172 125.413 135.670  0.00  0.00    +0.000 A 
ATOM     27  C   UNL     1     110.779 126.511 134.986  0.00  0.00    +0.000 A 
ATOM     28  C   UNL     1     110.141 125.998 135.090  0.00  0.00    +0.000 A 
ENDBRANCH  20  23
ENDBRANCH   6  13
BRANCH   4  29
ATOM     29  O   UNL     1     112.825 128.078 137.984  0.00  0.00    +0.000 OA
BRANCH  29  34
ATOM     30  O   UNL     1     113.297 129.033 138.936  0.00  0.00    +0.000 OA
ATOM     31  O   UNL     1     113.201 129.115 136.757  0.00  0.00    +0.000 OA
ATOM     32  O   UNL     1     113.861 130.589 137.096  0.00  0.00    +0.000 OA
ATOM     33  O   UNL     1     114.146 131.025 138.662  0.00  0.00    +0.000 OA
ATOM     34  C   UNL     1     113.155 128.815 138.154  0.00  0.00    +0.000 C 
ATOM     35  C   UNL     1     113.343 129.334 137.540  0.00  0.00    +0.000 C 
ATOM     36  C   UNL     1     113.673 130.070 137.709  0.00  0.00    +0.000 C 
ATOM     37  C   UNL     1     113.816 130.288 138.492  0.00  0.00    +0.000 C 
ATOM     38  C   UNL     1     113.628 129.770 139.105  0.00  0.00    +0.000 C 
ATOM     39  C   UNL     1     113.770 129.988 139.889  0.00  0.00    +0.000 C 
ENDBRANCH  29  34
ENDBRANCH   4  29
BRANCH   8  40
ATOM     40  C   UNL     1     110.497 126.821 139.956  0.00  0.00    +0.000 C 
BRANCH  40  41
ATOM     41  O   UNL     1     110.394 126.003 140.003  0.00  0.00    +0.000 OA
BRANCH  41  43
ATOM     42  O   UNL     1     110.087 125.618 141.345  0.00  0.00    +0.000 OA
ATOM     43  C   UNL     1     109.867 125.685 140.552  0.00  0.00    +0.000 C 
ATOM     44  C   UNL     1     109.119 125.434 140.310  0.00  0.00    +0.000 C 
ENDBRANCH  41  43
ENDBRANCH  40  41
ENDBRANCH   8  40
TORSDOF 7
ENDMDL
MODEL 3
REMARK VINA RESULT:     -10.2      1.634      3.311
REMARK  Name = 44257709
REMARK  7 active torsions:
REMARK  status: ('A' for Active; 'I' for Inactive)
REMARK    1  A    between atoms: O_1  and  C_16
REMARK    2  A    between atoms: O_1  and  C_21
REMARK    3  A    between atoms: O_9  and  C_27
REMARK    4  A    between atoms: O_9  and  C_37
REMARK    5  A    between atoms: C_18  and  C_26
REMARK    6  A    between atoms: C_20  and  C_27
REMARK    7  A    between atoms: C_35  and  C_38
REMARK                            x       y       z     vdW  Elec       q    Type
REMARK                         _______ _______ _______ _____ _____    ______ ____
ROOT
ATOM      1  O   UNL     1     112.349 128.518 135.867  0.00  0.00    +0.000 OA
ATOM      2  O   UNL     1     111.556 129.684 137.900  0.00  0.00    +0.000 OA
ATOM      3  O   UNL     1     113.032 130.053 137.261  0.00  0.00    +0.000 OA
ATOM      4  C   UNL     1     111.347 128.722 136.864  0.00  0.00    +0.000 C 
ATOM      5  C   UNL     1     111.820 129.296 137.223  0.00  0.00    +0.000 C 
ATOM      6  C   UNL     1     111.611 128.334 136.187  0.00  0.00    +0.000 C 
ATOM      7  C   UNL     1     112.558 129.480 136.903  0.00  0.00    +0.000 C 
ATOM      8  C   UNL     1     112.823 129.091 136.225  0.00  0.00    +0.000 C 
ENDROOT
BRANCH   6  13
ATOM      9  O   UNL     1     112.060 126.744 136.301  0.00  0.00    +0.000 OA
ATOM     10  O   UNL     1     110.247 128.782 135.375  0.00  0.00    +0.000 OA
ATOM     11  O   UNL     1     109.718 126.043 134.752  0.00  0.00    +0.000 OA
ATOM     12  O   UNL     1     110.601 124.993 135.197  0.00  0.00    +0.000 OA
ATOM     13  C   UNL     1     111.138 127.761 135.828  0.00  0.00    +0.000 A 
ATOM     14  C   UNL     1     111.347 126.964 135.876  0.00  0.00    +0.000 A 
ATOM     15  C   UNL     1     110.456 127.985 135.422  0.00  0.00    +0.000 A 
ATOM     16  C   UNL     1     110.874 126.391 135.517  0.00  0.00    +0.000 A 
ATOM     17  C   UNL     1     109.982 127.413 135.063  0.00  0.00    +0.000 A 
ATOM     18  C   UNL     1     110.192 126.615 135.111  0.00  0.00    +0.000 A 
ATOM     19  C   UNL     1     111.081 125.559 135.559  0.00  0.00    +0.000 A 
ATOM     20  C   UNL     1     112.283 125.915 136.354  0.00  0.00    +0.000 A 
ATOM     21  C   UNL     1     111.790 125.319 135.980  0.00  0.00    +0.000 A 
BRANCH  20  23
ATOM     22  O   UNL     1     115.014 125.030 137.982  0.00  0.00    +0.000 OA
ATOM     23  C   UNL     1     112.966 125.694 136.761  0.00  0.00    +0.000 A 
ATOM     24  C   UNL     1     113.699 125.725 136.384  0.00  0.00    +0.000 A 
ATOM     25  C   UNL     1     112.915 125.442 137.545  0.00  0.00    +0.000 A 
ATOM     26  C   UNL     1     114.381 125.503 136.791  0.00  0.00    +0.000 A 
ATOM     27  C   UNL     1     113.598 125.220 137.953  0.00  0.00    +0.000 A 
ATOM     28  C   UNL     1     114.331 125.251 137.575  0.00  0.00    +0.000 A 
ENDBRANCH  20  23
ENDBRANCH   6  13
BRANCH   4  29
ATOM     29  O   UNL     1     110.609 128.538 137.184  0.00  0.00    +0.000 OA
BRANCH  29  34
ATOM     30  O   UNL     1     111.123 128.048 138.424  0.00  0.00    +0.000 OA
ATOM     31  O   UNL     1     109.257 129.081 137.958  0.00  0.00    +0.000 OA
ATOM     32  O   UNL     1     109.095 128.863 139.586  0.00  0.00    +0.000 OA
ATOM     33  O   UNL     1     110.284 128.101 140.439  0.00  0.00    +0.000 OA
ATOM     34  C   UNL     1     110.528 128.429 137.999  0.00  0.00    +0.000 C 
ATOM     35  C   UNL     1     109.852 128.700 138.386  0.00  0.00    +0.000 C 
ATOM     36  C   UNL     1     109.771 128.591 139.199  0.00  0.00    +0.000 C 
ATOM     37  C   UNL     1     110.365 128.211 139.625  0.00  0.00    +0.000 C 
ATOM     38  C   UNL     1     111.041 127.939 139.238  0.00  0.00    +0.000 C 
ATOM     39  C   UNL     1     111.636 127.558 139.665  0.00  0.00    +0.000 C 
ENDBRANCH  29  34
ENDBRANCH   4  29
BRANCH   8  40
ATOM     40  C   UNL     1     113.561 129.275 135.905  0.00  0.00    +0.000 C 
BRANCH  40  41
ATOM     41  O   UNL     1     113.683 129.218 135.091  0.00  0.00    +0.000 OA
BRANCH  41  43
ATOM     42  O   UNL     1     114.636 130.170 134.612  0.00  0.00    +0.000 OA
ATOM     43  C   UNL     1     114.425 129.388 134.773  0.00  0.00    +0.000 C 
ATOM     44  C   UNL     1     114.956 128.777 134.615  0.00  0.00    +0.000 C 
ENDBRANCH  41  43
ENDBRANCH  40  41
ENDBRANCH   8  40
TORSDOF 7
ENDMDL
MODEL 4
REMARK VINA RESULT:     -10.2      1.318      4.784
REMARK  Name = 44257709
REMARK  7 active torsions:
REMARK  status: ('A' for Active; 'I' for Inactive)
REMARK    1  A    between atoms: O_1  and  C_16
REMARK    2  A    between atoms: O_1  and  C_21
REMARK    3  A    between atoms: O_9  and  C_27
REMARK    4  A    between atoms: O_9  and  C_37
REMARK    5  A    between atoms: C_18  and  C_26
REMARK    6  A    between atoms: C_20  and  C_27
REMARK    7  A    between atoms: C_35  and  C_38
REMARK                            x       y       z     vdW  Elec       q    Type
REMARK                         _______ _______ _______ _____ _____    ______ ____
ROOT
ATOM      1  O   UNL     1     112.075 128.262 138.746  0.00  0.00    +0.000 OA
ATOM      2  O   UNL     1     109.640 128.041 138.362  0.00  0.00    +0.000 OA
ATOM      3  O   UNL     1     110.313 127.454 139.749  0.00  0.00    +0.000 OA
ATOM      4  C   UNL     1     110.927 128.482 137.924  0.00  0.00    +0.000 C 
ATOM      5  C   UNL     1     110.452 128.115 138.490  0.00  0.00    +0.000 C 
ATOM      6  C   UNL     1     111.738 128.556 138.052  0.00  0.00    +0.000 C 
ATOM      7  C   UNL     1     110.788 127.821 139.183  0.00  0.00    +0.000 C 
ATOM      8  C   UNL     1     111.600 127.895 139.312  0.00  0.00    +0.000 C 
ENDROOT
BRANCH   6  13
ATOM      9  O   UNL     1     112.788 127.628 137.169  0.00  0.00    +0.000 OA
ATOM     10  O   UNL     1     111.633 130.186 137.820  0.00  0.00    +0.000 OA
ATOM     11  O   UNL     1     113.640 130.027 135.792  0.00  0.00    +0.000 OA
ATOM     12  O   UNL     1     114.244 128.765 135.436  0.00  0.00    +0.000 OA
ATOM     13  C   UNL     1     112.214 128.923 137.487  0.00  0.00    +0.000 A 
ATOM     14  C   UNL     1     112.742 128.476 137.038  0.00  0.00    +0.000 A 
ATOM     15  C   UNL     1     112.161 129.738 137.370  0.00  0.00    +0.000 A 
ATOM     16  C   UNL     1     113.218 128.844 136.473  0.00  0.00    +0.000 A 
ATOM     17  C   UNL     1     112.636 130.106 136.806  0.00  0.00    +0.000 A 
ATOM     18  C   UNL     1     113.165 129.659 136.357  0.00  0.00    +0.000 A 
ATOM     19  C   UNL     1     113.772 128.389 136.000  0.00  0.00    +0.000 A 
ATOM     20  C   UNL     1     113.337 127.156 136.704  0.00  0.00    +0.000 A 
ATOM     21  C   UNL     1     113.832 127.540 136.116  0.00  0.00    +0.000 A 
BRANCH  20  23
ATOM     22  O   UNL     1     113.540 123.897 137.179  0.00  0.00    +0.000 OA
ATOM     23  C   UNL     1     113.387 126.342 136.823  0.00  0.00    +0.000 A 
ATOM     24  C   UNL     1     112.932 125.829 136.364  0.00  0.00    +0.000 A 
ATOM     25  C   UNL     1     113.894 126.040 137.399  0.00  0.00    +0.000 A 
ATOM     26  C   UNL     1     112.983 125.014 136.483  0.00  0.00    +0.000 A 
ATOM     27  C   UNL     1     113.945 125.224 137.519  0.00  0.00    +0.000 A 
ATOM     28  C   UNL     1     113.490 124.712 137.060  0.00  0.00    +0.000 A 
ENDBRANCH  20  23
ENDBRANCH   6  13
BRANCH   4  29
ATOM     29  O   UNL     1     110.591 128.776 137.231  0.00  0.00    +0.000 OA
BRANCH  29  34
ATOM     30  O   UNL     1     110.168 127.514 136.710  0.00  0.00    +0.000 OA
ATOM     31  O   UNL     1     109.237 129.486 136.609  0.00  0.00    +0.000 OA
ATOM     32  O   UNL     1     108.138 128.579 135.778  0.00  0.00    +0.000 OA
ATOM     33  O   UNL     1     108.391 126.962 135.568  0.00  0.00    +0.000 OA
ATOM     34  C   UNL     1     110.040 128.322 136.815  0.00  0.00    +0.000 C 
ATOM     35  C   UNL     1     109.364 128.677 136.504  0.00  0.00    +0.000 C 
ATOM     36  C   UNL     1     108.814 128.224 136.089  0.00  0.00    +0.000 C 
ATOM     37  C   UNL     1     108.941 127.416 135.984  0.00  0.00    +0.000 C 
ATOM     38  C   UNL     1     109.618 127.061 136.294  0.00  0.00    +0.000 C 
ATOM     39  C   UNL     1     109.745 126.252 136.189  0.00  0.00    +0.000 C 
ENDBRANCH  29  34
ENDBRANCH   4  29
BRANCH   8  40
ATOM     40  C   UNL     1     111.937 127.602 140.006  0.00  0.00    +0.000 C 
BRANCH  40  41
ATOM     41  O   UNL     1     112.649 127.913 140.282  0.00  0.00    +0.000 OA
BRANCH  41  43
ATOM     42  O   UNL     1     112.703 127.793 141.705  0.00  0.00    +0.000 OA
ATOM     43  C   UNL     1     113.000 127.601 140.960  0.00  0.00    +0.000 C 
ATOM     44  C   UNL     1     113.649 127.095 140.893  0.00  0.00    +0.000 C 
ENDBRANCH  41  43
ENDBRANCH  40  41
ENDBRANCH   8  40
TORSDOF 7
ENDMDL
MODEL 5
REMARK VINA RESULT:     -10.1      1.848      4.811
REMARK  Name = 44257709
REMARK  7 active torsions:
REMARK  status: ('A' for Active; 'I' for Inactive)
REMARK    1  A    between atoms: O_1  and  C_16
REMARK    2  A    between atoms: O_1  and  C_21
REMARK    3  A    between atoms: O_9  and  C_27
REMARK    4  A    between atoms: O_9  and  C_37
REMARK    5  A    between atoms: C_18  and  C_26
REMARK    6  A    between atoms: C_20  and  C_27
REMARK    7  A    between atoms: C_35  and  C_38
REMARK                            x       y       z     vdW  Elec       q    Type
REMARK                         _______ _______ _______ _____ _____    ______ ____
ROOT
ATOM      1  O   UNL     1     111.443 128.058 138.955  0.00  0.00    +0.000 OA
ATOM      2  O   UNL     1     109.183 128.118 137.948  0.00  0.00    +0.000 OA
ATOM      3  O   UNL     1     109.390 127.532 139.477  0.00  0.00    +0.000 OA
ATOM      4  C   UNL     1     110.587 128.371 137.856  0.00  0.00    +0.000 C 
ATOM      5  C   UNL     1     109.936 128.098 138.284  0.00  0.00    +0.000 C 
ATOM      6  C   UNL     1     111.339 128.351 138.191  0.00  0.00    +0.000 C 
ATOM      7  C   UNL     1     110.039 127.805 139.048  0.00  0.00    +0.000 C 
ATOM      8  C   UNL     1     110.793 127.785 139.384  0.00  0.00    +0.000 C 
ENDROOT
BRANCH   6  13
ATOM      9  O   UNL     1     112.136 127.298 137.192  0.00  0.00    +0.000 OA
ATOM     10  O   UNL     1     111.824 129.921 138.340  0.00  0.00    +0.000 OA
ATOM     11  O   UNL     1     113.941 129.445 136.480  0.00  0.00    +0.000 OA
ATOM     12  O   UNL     1     114.131 128.145 135.883  0.00  0.00    +0.000 OA
ATOM     13  C   UNL     1     111.990 128.624 137.763  0.00  0.00    +0.000 A 
ATOM     14  C   UNL     1     112.398 128.113 137.261  0.00  0.00    +0.000 A 
ATOM     15  C   UNL     1     112.232 129.409 137.838  0.00  0.00    +0.000 A 
ATOM     16  C   UNL     1     113.049 128.386 136.833  0.00  0.00    +0.000 A 
ATOM     17  C   UNL     1     112.883 129.683 137.410  0.00  0.00    +0.000 A 
ATOM     18  C   UNL     1     113.291 129.171 136.908  0.00  0.00    +0.000 A 
ATOM     19  C   UNL     1     113.481 127.863 136.307  0.00  0.00    +0.000 A 
ATOM     20  C   UNL     1     112.557 126.759 136.670  0.00  0.00    +0.000 A 
ATOM     21  C   UNL     1     113.234 127.044 136.225  0.00  0.00    +0.000 A 
BRANCH  20  23
ATOM     22  O   UNL     1     111.579 123.621 136.380  0.00  0.00    +0.000 OA
ATOM     23  C   UNL     1     112.312 125.975 136.597  0.00  0.00    +0.000 A 
ATOM     24  C   UNL     1     111.752 125.768 136.028  0.00  0.00    +0.000 A 
ATOM     25  C   UNL     1     112.628 125.397 137.094  0.00  0.00    +0.000 A 
ATOM     26  C   UNL     1     111.508 124.983 135.956  0.00  0.00    +0.000 A 
ATOM     27  C   UNL     1     112.384 124.612 137.022  0.00  0.00    +0.000 A 
ATOM     28  C   UNL     1     111.824 124.405 136.453  0.00  0.00    +0.000 A 
ENDBRANCH  20  23
ENDBRANCH   6  13
BRANCH   4  29
ATOM     29  O   UNL     1     110.483 128.664 137.091  0.00  0.00    +0.000 OA
BRANCH  29  34
ATOM     30  O   UNL     1     109.703 129.799 137.470  0.00  0.00    +0.000 OA
ATOM     31  O   UNL     1     109.609 128.527 135.699  0.00  0.00    +0.000 OA
ATOM     32  O   UNL     1     108.390 129.594 135.382  0.00  0.00    +0.000 OA
ATOM     33  O   UNL     1     108.047 130.798 136.457  0.00  0.00    +0.000 OA
ATOM     34  C   UNL     1     109.874 129.198 136.932  0.00  0.00    +0.000 C 
ATOM     35  C   UNL     1     109.436 129.129 136.236  0.00  0.00    +0.000 C 
ATOM     36  C   UNL     1     108.828 129.663 136.078  0.00  0.00    +0.000 C 
ATOM     37  C   UNL     1     108.656 130.264 136.615  0.00  0.00    +0.000 C 
ATOM     38  C   UNL     1     109.094 130.332 137.311  0.00  0.00    +0.000 C 
ATOM     39  C   UNL     1     108.922 130.935 137.849  0.00  0.00    +0.000 C 
ENDBRANCH  29  34
ENDBRANCH   4  29
BRANCH   8  40
ATOM     40  C   UNL     1     110.896 127.492 140.149  0.00  0.00    +0.000 C 
BRANCH  40  41
ATOM     41  O   UNL     1     111.617 127.153 140.366  0.00  0.00    +0.000 OA
BRANCH  41  43
ATOM     42  O   UNL     1     111.485 126.127 141.353  0.00  0.00    +0.000 OA
ATOM     43  C   UNL     1     111.730 126.886 141.138  0.00  0.00    +0.000 C 
ATOM     44  C   UNL     1     112.087 127.377 141.697  0.00  0.00    +0.000 C 
ENDBRANCH  41  43
ENDBRANCH  40  41
ENDBRANCH   8  40
TORSDOF 7
ENDMDL
MODEL 6
REMARK VINA RESULT:     -10.1      1.666      3.453
REMARK  Name = 44257709
REMARK  7 active torsions:
REMARK  status: ('A' for Active; 'I' for Inactive)
REMARK    1  A    between atoms: O_1  and  C_16
REMARK    2  A    between atoms: O_1  and  C_21
REMARK    3  A    between atoms: O_9  and  C_27
REMARK    4  A    between atoms: O_9  and  C_37
REMARK    5  A    between atoms: C_18  and  C_26
REMARK    6  A    between atoms: C_20  and  C_27
REMARK    7  A    between atoms: C_35  and  C_38
REMARK                            x       y       z     vdW  Elec       q    Type
REMARK                         _______ _______ _______ _____ _____    ______ ____
ROOT
ATOM      1  O   UNL     1     111.499 128.261 137.837  0.00  0.00    +0.000 OA
ATOM      2  O   UNL     1     111.503 127.257 140.099  0.00  0.00    +0.000 OA
ATOM      3  O   UNL     1     112.418 128.595 139.789  0.00  0.00    +0.000 OA
ATOM      4  C   UNL     1     111.044 127.257 138.746  0.00  0.00    +0.000 C 
ATOM      5  C   UNL     1     111.502 127.591 139.345  0.00  0.00    +0.000 C 
ATOM      6  C   UNL     1     111.042 127.592 137.992  0.00  0.00    +0.000 C 
ATOM      7  C   UNL     1     111.959 128.260 139.190  0.00  0.00    +0.000 C 
ATOM      8  C   UNL     1     111.958 128.595 138.435  0.00  0.00    +0.000 C 
ENDROOT
BRANCH   6  13
ATOM      9  O   UNL     1     111.686 126.365 137.085  0.00  0.00    +0.000 OA
ATOM     10  O   UNL     1     109.514 128.149 137.716  0.00  0.00    +0.000 OA
ATOM     11  O   UNL     1     109.207 126.258 135.595  0.00  0.00    +0.000 OA
ATOM     12  O   UNL     1     110.271 125.347 135.248  0.00  0.00    +0.000 OA
ATOM     13  C   UNL     1     110.584 127.258 137.393  0.00  0.00    +0.000 A 
ATOM     14  C   UNL     1     110.889 126.646 136.932  0.00  0.00    +0.000 A 
ATOM     15  C   UNL     1     109.820 127.537 137.255  0.00  0.00    +0.000 A 
ATOM     16  C   UNL     1     110.430 126.312 136.332  0.00  0.00    +0.000 A 
ATOM     17  C   UNL     1     109.361 127.204 136.656  0.00  0.00    +0.000 A 
ATOM     18  C   UNL     1     109.666 126.591 136.194  0.00  0.00    +0.000 A 
ATOM     19  C   UNL     1     110.737 125.675 135.846  0.00  0.00    +0.000 A 
ATOM     20  C   UNL     1     112.010 125.727 136.608  0.00  0.00    +0.000 A 
ATOM     21  C   UNL     1     111.532 125.380 135.984  0.00  0.00    +0.000 A 
BRANCH  20  23
ATOM     22  O   UNL     1     115.067 124.619 137.170  0.00  0.00    +0.000 OA
ATOM     23  C   UNL     1     112.774 125.450 136.748  0.00  0.00    +0.000 A 
ATOM     24  C   UNL     1     113.425 125.894 136.503  0.00  0.00    +0.000 A 
ATOM     25  C   UNL     1     112.887 124.730 137.134  0.00  0.00    +0.000 A 
ATOM     26  C   UNL     1     114.189 125.617 136.644  0.00  0.00    +0.000 A 
ATOM     27  C   UNL     1     113.652 124.452 137.274  0.00  0.00    +0.000 A 
ATOM     28  C   UNL     1     114.303 124.896 137.029  0.00  0.00    +0.000 A 
ENDBRANCH  20  23
ENDBRANCH   6  13
BRANCH   4  29
ATOM     29  O   UNL     1     110.586 126.589 138.901  0.00  0.00    +0.000 OA
BRANCH  29  34
ATOM     30  O   UNL     1     109.757 127.232 139.871  0.00  0.00    +0.000 OA
ATOM     31  O   UNL     1     110.411 125.156 139.700  0.00  0.00    +0.000 OA
ATOM     32  O   UNL     1     109.494 125.083 141.070  0.00  0.00    +0.000 OA
ATOM     33  O   UNL     1     108.752 126.442 141.640  0.00  0.00    +0.000 OA
ATOM     34  C   UNL     1     110.127 126.552 139.586  0.00  0.00    +0.000 C 
ATOM     35  C   UNL     1     110.040 125.835 139.986  0.00  0.00    +0.000 C 
ATOM     36  C   UNL     1     109.581 125.799 140.670  0.00  0.00    +0.000 C 
ATOM     37  C   UNL     1     109.211 126.478 140.955  0.00  0.00    +0.000 C 
ATOM     38  C   UNL     1     109.299 127.194 140.556  0.00  0.00    +0.000 C 
ATOM     39  C   UNL     1     108.928 127.875 140.841  0.00  0.00    +0.000 C 
ENDBRANCH  29  34
ENDBRANCH   4  29
BRANCH   8  40
ATOM     40  C   UNL     1     112.415 129.264 138.280  0.00  0.00    +0.000 C 
BRANCH  40  41
ATOM     41  O   UNL     1     112.591 129.472 137.501  0.00  0.00    +0.000 OA
BRANCH  41  43
ATOM     42  O   UNL     1     112.785 130.887 137.561  0.00  0.00    +0.000 OA
ATOM     43  C   UNL     1     113.054 130.137 137.346  0.00  0.00    +0.000 C 
ATOM     44  C   UNL     1     113.786 130.053 136.977  0.00  0.00    +0.000 C 
ENDBRANCH  41  43
ENDBRANCH  40  41
ENDBRANCH   8  40
TORSDOF 7
ENDMDL
MODEL 7
REMARK VINA RESULT:     -10.0      1.628      3.826
REMARK  Name = 44257709
REMARK  7 active torsions:
REMARK  status: ('A' for Active; 'I' for Inactive)
REMARK    1  A    between atoms: O_1  and  C_16
REMARK    2  A    between atoms: O_1  and  C_21
REMARK    3  A    between atoms: O_9  and  C_27
REMARK    4  A    between atoms: O_9  and  C_37
REMARK    5  A    between atoms: C_18  and  C_26
REMARK    6  A    between atoms: C_20  and  C_27
REMARK    7  A    between atoms: C_35  and  C_38
REMARK                            x       y       z     vdW  Elec       q    Type
REMARK                         _______ _______ _______ _____ _____    ______ ____
ROOT
ATOM      1  O   UNL     1     110.865 128.893 137.051  0.00  0.00    +0.000 OA
ATOM      2  O   UNL     1     110.826 129.339 139.484  0.00  0.00    +0.000 OA
ATOM      3  O   UNL     1     109.491 128.719 138.738  0.00  0.00    +0.000 OA
ATOM      4  C   UNL     1     111.519 129.352 138.235  0.00  0.00    +0.000 C 
ATOM      5  C   UNL     1     110.839 129.191 138.673  0.00  0.00    +0.000 C 
ATOM      6  C   UNL     1     111.532 129.203 137.424  0.00  0.00    +0.000 C 
ATOM      7  C   UNL     1     110.171 128.881 138.300  0.00  0.00    +0.000 C 
ATOM      8  C   UNL     1     110.184 128.732 137.488  0.00  0.00    +0.000 C 
ENDROOT
BRANCH   6  13
ATOM      9  O   UNL     1     112.446 127.936 136.874  0.00  0.00    +0.000 OA
ATOM     10  O   UNL     1     111.958 130.766 137.109  0.00  0.00    +0.000 OA
ATOM     11  O   UNL     1     114.251 129.850 135.669  0.00  0.00    +0.000 OA
ATOM     12  O   UNL     1     114.530 128.442 135.529  0.00  0.00    +0.000 OA
ATOM     13  C   UNL     1     112.212 129.364 136.985  0.00  0.00    +0.000 A 
ATOM     14  C   UNL     1     112.678 128.746 136.704  0.00  0.00    +0.000 A 
ATOM     15  C   UNL     1     112.425 130.146 136.828  0.00  0.00    +0.000 A 
ATOM     16  C   UNL     1     113.358 128.907 136.265  0.00  0.00    +0.000 A 
ATOM     17  C   UNL     1     113.105 130.308 136.389  0.00  0.00    +0.000 A 
ATOM     18  C   UNL     1     113.571 129.688 136.108  0.00  0.00    +0.000 A 
ATOM     19  C   UNL     1     113.852 128.270 135.967  0.00  0.00    +0.000 A 
ATOM     20  C   UNL     1     112.928 127.286 136.584  0.00  0.00    +0.000 A 
ATOM     21  C   UNL     1     113.636 127.455 136.127  0.00  0.00    +0.000 A 
BRANCH  20  23
ATOM     22  O   UNL     1     112.065 124.165 137.219  0.00  0.00    +0.000 OA
ATOM     23  C   UNL     1     112.712 126.506 136.743  0.00  0.00    +0.000 A 
ATOM     24  C   UNL     1     113.083 126.091 137.353  0.00  0.00    +0.000 A 
ATOM     25  C   UNL     1     112.126 126.141 136.293  0.00  0.00    +0.000 A 
ATOM     26  C   UNL     1     112.867 125.311 137.511  0.00  0.00    +0.000 A 
ATOM     27  C   UNL     1     111.909 125.359 136.451  0.00  0.00    +0.000 A 
ATOM     28  C   UNL     1     112.280 124.945 137.060  0.00  0.00    +0.000 A 
ENDBRANCH  20  23
ENDBRANCH   6  13
BRANCH   4  29
ATOM     29  O   UNL     1     112.186 129.662 138.608  0.00  0.00    +0.000 OA
BRANCH  29  34
ATOM     30  O   UNL     1     112.401 128.533 139.457  0.00  0.00    +0.000 OA
ATOM     31  O   UNL     1     112.775 130.658 139.784  0.00  0.00    +0.000 OA
ATOM     32  O   UNL     1     113.284 130.027 141.221  0.00  0.00    +0.000 OA
ATOM     33  O   UNL     1     113.204 128.400 141.482  0.00  0.00    +0.000 OA
ATOM     34  C   UNL     1     112.441 129.346 139.327  0.00  0.00    +0.000 C 
ATOM     35  C   UNL     1     112.735 129.844 139.915  0.00  0.00    +0.000 C 
ATOM     36  C   UNL     1     112.990 129.529 140.633  0.00  0.00    +0.000 C 
ATOM     37  C   UNL     1     112.950 128.716 140.764  0.00  0.00    +0.000 C 
ATOM     38  C   UNL     1     112.655 128.218 140.176  0.00  0.00    +0.000 C 
ATOM     39  C   UNL     1     112.615 127.404 140.306  0.00  0.00    +0.000 C 
ENDBRANCH  29  34
ENDBRANCH   4  29
BRANCH   8  40
ATOM     40  C   UNL     1     109.517 128.422 137.115  0.00  0.00    +0.000 C 
BRANCH  40  41
ATOM     41  O   UNL     1     109.432 128.493 136.297  0.00  0.00    +0.000 OA
BRANCH  41  43
ATOM     42  O   UNL     1     108.107 128.667 135.789  0.00  0.00    +0.000 OA
ATOM     43  C   UNL     1     108.764 128.185 135.924  0.00  0.00    +0.000 C 
ATOM     44  C   UNL     1     108.751 127.396 135.686  0.00  0.00    +0.000 C 
ENDBRANCH  41  43
ENDBRANCH  40  41
ENDBRANCH   8  40
TORSDOF 7
ENDMDL
MODEL 8
REMARK VINA RESULT:     -10.0      2.424      5.102
REMARK  Name = 44257709
REMARK  7 active torsions:
REMARK  status: ('A' for Active; 'I' for Inactive)
REMARK    1  A    between atoms: O_1  and  C_16
REMARK    2  A    between atoms: O_1  and  C_21
REMARK    3  A    between atoms: O_9  and  C_27
REMARK    4  A    between atoms: O_9  and  C_37
REMARK    5  A    between atoms: C_18  and  C_26
REMARK    6  A    between atoms: C_20  and  C_27
REMARK    7  A    between atoms: C_35  and  C_38
REMARK                            x       y       z     vdW  Elec       q    Type
REMARK                         _______ _______ _______ _____ _____    ______ ____
ROOT
ATOM      1  O   UNL     1     113.182 129.970 138.371  0.00  0.00    +0.000 OA
ATOM      2  O   UNL     1     110.742 130.139 137.997  0.00  0.00    +0.000 OA
ATOM      3  O   UNL     1     111.328 129.889 139.519  0.00  0.00    +0.000 OA
ATOM      4  C   UNL     1     112.076 130.151 137.485  0.00  0.00    +0.000 C 
ATOM      5  C   UNL     1     111.555 130.082 138.121  0.00  0.00    +0.000 C 
ATOM      6  C   UNL     1     112.889 130.095 137.610  0.00  0.00    +0.000 C 
ATOM      7  C   UNL     1     111.848 129.958 138.882  0.00  0.00    +0.000 C 
ATOM      8  C   UNL     1     112.662 129.901 139.007  0.00  0.00    +0.000 C 
ENDROOT
BRANCH   6  13
ATOM      9  O   UNL     1     113.275 128.737 136.744  0.00  0.00    +0.000 OA
ATOM     10  O   UNL     1     113.526 131.567 137.221  0.00  0.00    +0.000 OA
ATOM     11  O   UNL     1     114.974 130.372 135.067  0.00  0.00    +0.000 OA
ATOM     12  O   UNL     1     114.876 128.958 134.795  0.00  0.00    +0.000 OA
ATOM     13  C   UNL     1     113.410 130.163 136.974  0.00  0.00    +0.000 A 
ATOM     14  C   UNL     1     113.613 129.497 136.532  0.00  0.00    +0.000 A 
ATOM     15  C   UNL     1     113.729 130.899 136.780  0.00  0.00    +0.000 A 
ATOM     16  C   UNL     1     114.134 129.566 135.896  0.00  0.00    +0.000 A 
ATOM     17  C   UNL     1     114.250 130.969 136.144  0.00  0.00    +0.000 A 
ATOM     18  C   UNL     1     114.453 130.302 135.702  0.00  0.00    +0.000 A 
ATOM     19  C   UNL     1     114.353 128.880 135.429  0.00  0.00    +0.000 A 
ATOM     20  C   UNL     1     113.483 128.038 136.288  0.00  0.00    +0.000 A 
ATOM     21  C   UNL     1     114.025 128.110 135.626  0.00  0.00    +0.000 A 
BRANCH  20  23
ATOM     22  O   UNL     1     112.204 125.099 137.075  0.00  0.00    +0.000 OA
ATOM     23  C   UNL     1     113.163 127.303 136.485  0.00  0.00    +0.000 A 
ATOM     24  C   UNL     1     112.461 127.051 136.132  0.00  0.00    +0.000 A 
ATOM     25  C   UNL     1     113.545 126.821 137.034  0.00  0.00    +0.000 A 
ATOM     26  C   UNL     1     112.142 126.316 136.329  0.00  0.00    +0.000 A 
ATOM     27  C   UNL     1     113.226 126.085 137.231  0.00  0.00    +0.000 A 
ATOM     28  C   UNL     1     112.524 125.834 136.878  0.00  0.00    +0.000 A 
ENDBRANCH  20  23
ENDBRANCH   6  13
BRANCH   4  29
ATOM     29  O   UNL     1     111.783 130.276 136.724  0.00  0.00    +0.000 OA
BRANCH  29  34
ATOM     30  O   UNL     1     111.210 131.557 136.993  0.00  0.00    +0.000 OA
ATOM     31  O   UNL     1     110.550 129.944 135.679  0.00  0.00    +0.000 OA
ATOM     32  O   UNL     1     109.360 131.059 135.426  0.00  0.00    +0.000 OA
ATOM     33  O   UNL     1     109.404 132.506 136.217  0.00  0.00    +0.000 OA
ATOM     34  C   UNL     1     111.188 130.834 136.597  0.00  0.00    +0.000 C 
ATOM     35  C   UNL     1     110.571 130.668 136.075  0.00  0.00    +0.000 C 
ATOM     36  C   UNL     1     109.977 131.225 135.948  0.00  0.00    +0.000 C 
ATOM     37  C   UNL     1     109.998 131.948 136.344  0.00  0.00    +0.000 C 
ATOM     38  C   UNL     1     110.615 132.114 136.866  0.00  0.00    +0.000 C 
ATOM     39  C   UNL     1     110.637 132.838 137.262  0.00  0.00    +0.000 C 
ENDBRANCH  29  34
ENDBRANCH   4  29
BRANCH   8  40
ATOM     40  C   UNL     1     112.955 129.776 139.768  0.00  0.00    +0.000 C 
BRANCH  40  41
ATOM     41  O   UNL     1     113.734 129.525 139.874  0.00  0.00    +0.000 OA
BRANCH  41  43
ATOM     42  O   UNL     1     114.027 129.902 141.221  0.00  0.00    +0.000 OA
ATOM     43  C   UNL     1     114.005 129.329 140.628  0.00  0.00    +0.000 C 
ATOM     44  C   UNL     1     114.253 128.559 140.790  0.00  0.00    +0.000 C 
ENDBRANCH  41  43
ENDBRANCH  40  41
ENDBRANCH   8  40
TORSDOF 7
ENDMDL
MODEL 9
REMARK VINA RESULT:     -10.0      2.226      3.884
REMARK  Name = 44257709
REMARK  7 active torsions:
REMARK  status: ('A' for Active; 'I' for Inactive)
REMARK    1  A    between atoms: O_1  and  C_16
REMARK    2  A    between atoms: O_1  and  C_21
REMARK    3  A    between atoms: O_9  and  C_27
REMARK    4  A    between atoms: O_9  and  C_37
REMARK    5  A    between atoms: C_18  and  C_26
REMARK    6  A    between atoms: C_20  and  C_27
REMARK    7  A    between atoms: C_35  and  C_38
REMARK                            x       y       z     vdW  Elec       q    Type
REMARK                         _______ _______ _______ _____ _____    ______ ____
ROOT
ATOM      1  O   UNL     1     111.965 130.884 137.791  0.00  0.00    +0.000 OA
ATOM      2  O   UNL     1     111.613 128.961 139.308  0.00  0.00    +0.000 OA
ATOM      3  O   UNL     1     110.551 130.224 139.317  0.00  0.00    +0.000 OA
ATOM      4  C   UNL     1     112.379 129.612 138.292  0.00  0.00    +0.000 C 
ATOM      5  C   UNL     1     111.731 129.602 138.802  0.00  0.00    +0.000 C 
ATOM      6  C   UNL     1     112.496 130.252 137.786  0.00  0.00    +0.000 C 
ATOM      7  C   UNL     1     111.200 130.233 138.807  0.00  0.00    +0.000 C 
ATOM      8  C   UNL     1     111.317 130.875 138.300  0.00  0.00    +0.000 C 
ENDROOT
BRANCH   6  13
ATOM      9  O   UNL     1     112.366 129.501 136.316  0.00  0.00    +0.000 OA
ATOM     10  O   UNL     1     113.889 131.013 138.238  0.00  0.00    +0.000 OA
ATOM     11  O   UNL     1     115.090 130.294 135.746  0.00  0.00    +0.000 OA
ATOM     12  O   UNL     1     114.361 129.538 134.758  0.00  0.00    +0.000 OA
ATOM     13  C   UNL     1     113.145 130.262 137.276  0.00  0.00    +0.000 A 
ATOM     14  C   UNL     1     113.097 129.893 136.540  0.00  0.00    +0.000 A 
ATOM     15  C   UNL     1     113.841 130.643 137.502  0.00  0.00    +0.000 A 
ATOM     16  C   UNL     1     113.745 129.903 136.030  0.00  0.00    +0.000 A 
ATOM     17  C   UNL     1     114.490 130.653 136.992  0.00  0.00    +0.000 A 
ATOM     18  C   UNL     1     114.441 130.283 136.256  0.00  0.00    +0.000 A 
ATOM     19  C   UNL     1     113.707 129.522 135.261  0.00  0.00    +0.000 A 
ATOM     20  C   UNL     1     112.309 129.113 135.551  0.00  0.00    +0.000 A 
ATOM     21  C   UNL     1     112.985 129.124 135.020  0.00  0.00    +0.000 A 
BRANCH  20  23
ATOM     22  O   UNL     1     109.519 127.595 134.658  0.00  0.00    +0.000 OA
ATOM     23  C   UNL     1     111.612 128.734 135.327  0.00  0.00    +0.000 A 
ATOM     24  C   UNL     1     110.988 129.171 135.011  0.00  0.00    +0.000 A 
ATOM     25  C   UNL     1     111.539 127.918 135.420  0.00  0.00    +0.000 A 
ATOM     26  C   UNL     1     110.290 128.791 134.788  0.00  0.00    +0.000 A 
ATOM     27  C   UNL     1     110.841 127.537 135.197  0.00  0.00    +0.000 A 
ATOM     28  C   UNL     1     110.217 127.974 134.881  0.00  0.00    +0.000 A 
ENDBRANCH  20  23
ENDBRANCH   6  13
BRANCH   4  29
ATOM     29  O   UNL     1     112.910 128.980 138.288  0.00  0.00    +0.000 OA
BRANCH  29  34
ATOM     30  O   UNL     1     113.384 129.186 139.620  0.00  0.00    +0.000 OA
ATOM     31  O   UNL     1     113.100 127.352 138.471  0.00  0.00    +0.000 OA
ATOM     32  O   UNL     1     113.670 126.743 139.895  0.00  0.00    +0.000 OA
ATOM     33  O   UNL     1     114.048 127.763 141.136  0.00  0.00    +0.000 OA
ATOM     34  C   UNL     1     113.195 128.676 139.000  0.00  0.00    +0.000 C 
ATOM     35  C   UNL     1     113.290 127.861 139.092  0.00  0.00    +0.000 C 
ATOM     36  C   UNL     1     113.574 127.557 139.803  0.00  0.00    +0.000 C 
ATOM     37  C   UNL     1     113.764 128.066 140.423  0.00  0.00    +0.000 C 
ATOM     38  C   UNL     1     113.668 128.881 140.332  0.00  0.00    +0.000 C 
ATOM     39  C   UNL     1     113.858 129.391 140.952  0.00  0.00    +0.000 C 
ENDBRANCH  29  34
ENDBRANCH   4  29
BRANCH   8  40
ATOM     40  C   UNL     1     110.786 131.507 138.305  0.00  0.00    +0.000 C 
BRANCH  40  41
ATOM     41  O   UNL     1     110.915 132.156 137.813  0.00  0.00    +0.000 OA
BRANCH  41  43
ATOM     42  O   UNL     1     110.147 133.204 138.410  0.00  0.00    +0.000 OA
ATOM     43  C   UNL     1     110.342 132.746 137.751  0.00  0.00    +0.000 C 
ATOM     44  C   UNL     1     109.963 132.880 137.031  0.00  0.00    +0.000 C 
ENDBRANCH  41  43
ENDBRANCH  40  41
ENDBRANCH   8  40
TORSDOF 7
ENDMDL
MODEL 10
REMARK VINA RESULT:     -10.0      1.608      4.905
REMARK  Name = 44257709
REMARK  7 active torsions:
REMARK  status: ('A' for Active; 'I' for Inactive)
REMARK    1  A    between atoms: O_1  and  C_16
REMARK    2  A    between atoms: O_1  and  C_21
REMARK    3  A    between atoms: O_9  and  C_27
REMARK    4  A    between atoms: O_9  and  C_37
REMARK    5  A    between atoms: C_18  and  C_26
REMARK    6  A    between atoms: C_20  and  C_27
REMARK    7  A    between atoms: C_35  and  C_38
REMARK                            x       y       z     vdW  Elec       q    Type
REMARK                         _______ _______ _______ _____ _____    ______ ____
ROOT
ATOM      1  O   UNL     1     113.299 127.515 136.772  0.00  0.00    +0.000 OA
ATOM      2  O   UNL     1     111.171 127.564 135.509  0.00  0.00    +0.000 OA
ATOM      3  O   UNL     1     111.965 126.135 135.733  0.00  0.00    +0.000 OA
ATOM      4  C   UNL     1     112.193 128.246 136.239  0.00  0.00    +0.000 C 
ATOM      5  C   UNL     1     111.880 127.548 135.930  0.00  0.00    +0.000 C 
ATOM      6  C   UNL     1     112.902 128.230 136.660  0.00  0.00    +0.000 C 
ATOM      7  C   UNL     1     112.277 126.833 136.042  0.00  0.00    +0.000 C 
ATOM      8  C   UNL     1     112.987 126.817 136.463  0.00  0.00    +0.000 C 
ENDROOT
BRANCH   6  13
ATOM      9  O   UNL     1     112.876 128.458 138.300  0.00  0.00    +0.000 OA
ATOM     10  O   UNL     1     113.538 129.366 135.647  0.00  0.00    +0.000 OA
ATOM     11  O   UNL     1     114.155 131.022 137.893  0.00  0.00    +0.000 OA
ATOM     12  O   UNL     1     113.840 130.604 139.238  0.00  0.00    +0.000 OA
ATOM     13  C   UNL     1     113.215 128.928 136.969  0.00  0.00    +0.000 A 
ATOM     14  C   UNL     1     113.210 129.058 137.783  0.00  0.00    +0.000 A 
ATOM     15  C   UNL     1     113.533 129.496 136.462  0.00  0.00    +0.000 A 
ATOM     16  C   UNL     1     113.524 129.756 138.092  0.00  0.00    +0.000 A 
ATOM     17  C   UNL     1     113.847 130.194 136.770  0.00  0.00    +0.000 A 
ATOM     18  C   UNL     1     113.842 130.324 137.586  0.00  0.00    +0.000 A 
ATOM     19  C   UNL     1     113.524 129.902 138.938  0.00  0.00    +0.000 A 
ATOM     20  C   UNL     1     112.868 128.587 139.150  0.00  0.00    +0.000 A 
ATOM     21  C   UNL     1     113.194 129.315 139.471  0.00  0.00    +0.000 A 
BRANCH  20  23
ATOM     22  O   UNL     1     111.593 126.307 141.165  0.00  0.00    +0.000 OA
ATOM     23  C   UNL     1     112.549 128.017 139.654  0.00  0.00    +0.000 A 
ATOM     24  C   UNL     1     111.771 128.090 139.918  0.00  0.00    +0.000 A 
ATOM     25  C   UNL     1     113.009 127.376 139.892  0.00  0.00    +0.000 A 
ATOM     26  C   UNL     1     111.453 127.519 140.422  0.00  0.00    +0.000 A 
ATOM     27  C   UNL     1     112.690 126.804 140.397  0.00  0.00    +0.000 A 
ATOM     28  C   UNL     1     111.912 126.877 140.662  0.00  0.00    +0.000 A 
ENDBRANCH  20  23
ENDBRANCH   6  13
BRANCH   4  29
ATOM     29  O   UNL     1     111.796 128.960 136.127  0.00  0.00    +0.000 OA
BRANCH  29  34
ATOM     30  O   UNL     1     110.630 128.604 136.872  0.00  0.00    +0.000 OA
ATOM     31  O   UNL     1     110.863 129.835 135.084  0.00  0.00    +0.000 OA
ATOM     32  O   UNL     1     109.231 129.916 135.308  0.00  0.00    +0.000 OA
ATOM     33  O   UNL     1     108.531 129.122 136.574  0.00  0.00    +0.000 OA
ATOM     34  C   UNL     1     110.979 129.001 136.239  0.00  0.00    +0.000 C 
ATOM     35  C   UNL     1     110.513 129.438 135.717  0.00  0.00    +0.000 C 
ATOM     36  C   UNL     1     109.697 129.478 135.829  0.00  0.00    +0.000 C 
ATOM     37  C   UNL     1     109.347 129.082 136.461  0.00  0.00    +0.000 C 
ATOM     38  C   UNL     1     109.814 128.645 136.983  0.00  0.00    +0.000 C 
ATOM     39  C   UNL     1     109.464 128.248 137.617  0.00  0.00    +0.000 C 
ENDBRANCH  29  34
ENDBRANCH   4  29
BRANCH   8  40
ATOM     40  C   UNL     1     113.384 126.102 136.575  0.00  0.00    +0.000 C 
BRANCH  40  41
ATOM     41  O   UNL     1     114.190 126.102 136.750  0.00  0.00    +0.000 OA
BRANCH  41  43
ATOM     42  O   UNL     1     114.991 125.071 136.167  0.00  0.00    +0.000 OA
ATOM     43  C   UNL     1     114.596 125.387 136.820  0.00  0.00    +0.000 C 
ATOM     44  C   UNL     1     114.608 124.988 137.541  0.00  0.00    +0.000 C 
ENDBRANCH  41  43
ENDBRANCH  40  41
ENDBRANCH   8  40
TORSDOF 7
ENDMDL
