MODEL 1
REMARK VINA RESULT:     -10.4      0.000      0.000
REMARK  Name = 131831501
REMARK  12 active torsions:
REMARK  status: ('A' for Active; 'I' for Inactive)
REMARK    1  A    between atoms: O_1  and  C_22
REMARK    2  A    between atoms: O_1  and  C_24
REMARK    3  A    between atoms: O_4  and  C_21
REMARK    4  A    between atoms: O_4  and  C_32
REMARK    5  A    between atoms: O_7  and  C_28
REMARK    6  A    between atoms: O_7  and  C_35
REMARK    7  A    between atoms: O_12  and  C_37
REMARK    8  A    between atoms: O_12  and  C_48
REMARK    9  A    between atoms: C_21  and  C_30
REMARK   10  A    between atoms: C_29  and  C_31
REMARK   11  A    between atoms: C_38  and  C_46
REMARK   12  A    between atoms: C_42  and  C_43
REMARK                            x       y       z     vdW  Elec       q    Type
REMARK                         _______ _______ _______ _____ _____    ______ ____
ROOT
ATOM      1  C   UNL     1     112.724 130.254 141.041  0.00  0.00    +0.000 A 
ATOM      2  C   UNL     1     113.412 129.842 140.846  0.00  0.00    +0.000 A 
ATOM      3  C   UNL     1     112.156 130.405 140.462  0.00  0.00    +0.000 A 
ATOM      4  C   UNL     1     112.963 129.733 139.494  0.00  0.00    +0.000 A 
ATOM      5  C   UNL     1     113.531 129.581 140.072  0.00  0.00    +0.000 A 
ATOM      6  C   UNL     1     112.276 130.145 139.689  0.00  0.00    +0.000 A 
ENDROOT
BRANCH   4   9
ATOM      7  O   UNL     1     112.715 128.781 138.456  0.00  0.00    +0.000 OA
ATOM      8  O   UNL     1     114.174 130.070 136.928  0.00  0.00    +0.000 OA
ATOM      9  C   UNL     1     113.082 129.472 138.721  0.00  0.00    +0.000 C 
ATOM     10  C   UNL     1     113.568 129.900 138.210  0.00  0.00    +0.000 C 
ATOM     11  C   UNL     1     112.567 127.523 136.616  0.00  0.00    +0.000 A 
ATOM     12  C   UNL     1     112.834 128.520 137.683  0.00  0.00    +0.000 A 
ATOM     13  C   UNL     1     113.321 128.950 137.174  0.00  0.00    +0.000 A 
ATOM     14  C   UNL     1     113.688 129.640 137.437  0.00  0.00    +0.000 C 
ATOM     15  C   UNL     1     112.446 127.800 137.420  0.00  0.00    +0.000 A 
ATOM     16  C   UNL     1     113.073 127.970 136.085  0.00  0.00    +0.000 A 
ATOM     17  C   UNL     1     113.453 128.688 136.365  0.00  0.00    +0.000 A 
BRANCH  11  18
ATOM     18  O   UNL     1     112.199 126.833 136.355  0.00  0.00    +0.000 OA
BRANCH  18  26
ATOM     19  O   UNL     1     113.336 126.005 136.606  0.00  0.00    +0.000 OA
ATOM     20  O   UNL     1     111.843 124.073 137.002  0.00  0.00    +0.000 OA
ATOM     21  O   UNL     1     111.204 125.544 136.619  0.00  0.00    +0.000 OA
ATOM     22  O   UNL     1     113.478 123.889 137.122  0.00  0.00    +0.000 OA
ATOM     23  C   UNL     1     112.341 124.717 136.870  0.00  0.00    +0.000 C 
ATOM     24  C   UNL     1     112.021 125.453 136.678  0.00  0.00    +0.000 C 
ATOM     25  C   UNL     1     113.159 124.625 136.930  0.00  0.00    +0.000 C 
ATOM     26  C   UNL     1     112.518 126.097 136.546  0.00  0.00    +0.000 C 
ATOM     27  C   UNL     1     113.657 125.269 136.798  0.00  0.00    +0.000 C 
BRANCH  27  30
ATOM     28  O   UNL     1     114.929 125.075 136.177  0.00  0.00    +0.000 OA
ATOM     29  O   UNL     1     114.837 125.191 137.599  0.00  0.00    +0.000 OA
ATOM     30  C   UNL     1     114.474 125.179 136.858  0.00  0.00    +0.000 C 
ENDBRANCH  27  30
ENDBRANCH  18  26
ENDBRANCH  11  18
ENDBRANCH   4   9
BRANCH   1  31
ATOM     31  O   UNL     1     112.605 130.515 141.815  0.00  0.00    +0.000 OA
BRANCH  31  38
ATOM     32  O   UNL     1     112.078 129.297 142.345  0.00  0.00    +0.000 OA
ATOM     33  O   UNL     1     110.456 130.587 143.698  0.00  0.00    +0.000 OA
ATOM     34  O   UNL     1     110.471 128.939 143.776  0.00  0.00    +0.000 OA
ATOM     35  C   UNL     1     111.531 130.551 142.756  0.00  0.00    +0.000 C 
ATOM     36  C   UNL     1     110.997 130.157 143.247  0.00  0.00    +0.000 C 
ATOM     37  C   UNL     1     111.005 129.333 143.286  0.00  0.00    +0.000 C 
ATOM     38  C   UNL     1     112.072 130.121 142.305  0.00  0.00    +0.000 C 
ATOM     39  C   UNL     1     111.545 128.903 142.835  0.00  0.00    +0.000 C 
BRANCH  39  41
ATOM     40  O   UNL     1     111.231 127.633 142.259  0.00  0.00    +0.000 OA
ATOM     41  C   UNL     1     111.552 128.080 142.874  0.00  0.00    +0.000 C 
ENDBRANCH  39  41
BRANCH  35  42
ATOM     42  O   UNL     1     111.523 131.375 142.717  0.00  0.00    +0.000 OA
BRANCH  42  47
ATOM     43  O   UNL     1     112.260 131.518 143.981  0.00  0.00    +0.000 OA
ATOM     44  O   UNL     1     111.629 133.166 142.780  0.00  0.00    +0.000 OA
ATOM     45  C   UNL     1     112.339 132.850 144.028  0.00  0.00    +0.000 C 
ATOM     46  C   UNL     1     111.933 132.642 143.340  0.00  0.00    +0.000 C 
ATOM     47  C   UNL     1     111.885 131.819 143.312  0.00  0.00    +0.000 C 
ATOM     48  C   UNL     1     112.541 132.155 144.424  0.00  0.00    +0.000 C 
BRANCH  45  50
ATOM     49  O   UNL     1     113.438 133.069 144.914  0.00  0.00    +0.000 OA
ATOM     50  C   UNL     1     112.700 133.294 144.622  0.00  0.00    +0.000 C 
ENDBRANCH  45  50
BRANCH  45  51
ATOM     51  O   UNL     1     112.258 133.648 143.835  0.00  0.00    +0.000 OA
BRANCH  51  53
ATOM     52  O   UNL     1     111.197 133.885 144.762  0.00  0.00    +0.000 OA
ATOM     53  C   UNL     1     111.854 134.156 144.343  0.00  0.00    +0.000 C 
ATOM     54  C   UNL     1     112.108 134.936 144.433  0.00  0.00    +0.000 C 
ENDBRANCH  51  53
ENDBRANCH  45  51
ENDBRANCH  42  47
ENDBRANCH  35  42
ENDBRANCH  31  38
ENDBRANCH   1  31
TORSDOF 12
ENDMDL
MODEL 2
REMARK VINA RESULT:     -10.1      7.125     10.704
REMARK  Name = 131831501
REMARK  12 active torsions:
REMARK  status: ('A' for Active; 'I' for Inactive)
REMARK    1  A    between atoms: O_1  and  C_22
REMARK    2  A    between atoms: O_1  and  C_24
REMARK    3  A    between atoms: O_4  and  C_21
REMARK    4  A    between atoms: O_4  and  C_32
REMARK    5  A    between atoms: O_7  and  C_28
REMARK    6  A    between atoms: O_7  and  C_35
REMARK    7  A    between atoms: O_12  and  C_37
REMARK    8  A    between atoms: O_12  and  C_48
REMARK    9  A    between atoms: C_21  and  C_30
REMARK   10  A    between atoms: C_29  and  C_31
REMARK   11  A    between atoms: C_38  and  C_46
REMARK   12  A    between atoms: C_42  and  C_43
REMARK                            x       y       z     vdW  Elec       q    Type
REMARK                         _______ _______ _______ _____ _____    ______ ____
ROOT
ATOM      1  C   UNL     1     104.758 128.312 142.608  0.00  0.00    +0.000 A 
ATOM      2  C   UNL     1     104.615 128.899 143.171  0.00  0.00    +0.000 A 
ATOM      3  C   UNL     1     104.404 128.361 141.864  0.00  0.00    +0.000 A 
ATOM      4  C   UNL     1     103.767 129.581 142.245  0.00  0.00    +0.000 A 
ATOM      5  C   UNL     1     104.120 129.533 142.990  0.00  0.00    +0.000 A 
ATOM      6  C   UNL     1     103.909 128.995 141.683  0.00  0.00    +0.000 A 
ENDROOT
BRANCH   4   9
ATOM      7  O   UNL     1     103.515 130.988 142.226  0.00  0.00    +0.000 OA
ATOM      8  O   UNL     1     101.302 130.575 141.196  0.00  0.00    +0.000 OA
ATOM      9  C   UNL     1     103.272 130.215 142.064  0.00  0.00    +0.000 C 
ATOM     10  C   UNL     1     102.535 130.079 141.720  0.00  0.00    +0.000 C 
ATOM     11  C   UNL     1     102.772 133.086 142.031  0.00  0.00    +0.000 A 
ATOM     12  C   UNL     1     103.019 131.622 142.044  0.00  0.00    +0.000 A 
ATOM     13  C   UNL     1     102.282 131.484 141.701  0.00  0.00    +0.000 A 
ATOM     14  C   UNL     1     102.039 130.713 141.539  0.00  0.00    +0.000 C 
ATOM     15  C   UNL     1     103.283 132.422 142.218  0.00  0.00    +0.000 A 
ATOM     16  C   UNL     1     102.004 132.943 141.674  0.00  0.00    +0.000 A 
ATOM     17  C   UNL     1     101.757 132.138 141.507  0.00  0.00    +0.000 A 
BRANCH  11  18
ATOM     18  O   UNL     1     103.017 133.857 142.194  0.00  0.00    +0.000 OA
BRANCH  18  26
ATOM     19  O   UNL     1     103.368 134.215 140.856  0.00  0.00    +0.000 OA
ATOM     20  O   UNL     1     105.296 135.511 141.709  0.00  0.00    +0.000 OA
ATOM     21  O   UNL     1     104.302 134.721 142.762  0.00  0.00    +0.000 OA
ATOM     22  O   UNL     1     105.004 135.437 140.086  0.00  0.00    +0.000 OA
ATOM     23  C   UNL     1     104.653 135.079 141.424  0.00  0.00    +0.000 C 
ATOM     24  C   UNL     1     104.156 134.684 141.951  0.00  0.00    +0.000 C 
ATOM     25  C   UNL     1     104.507 135.042 140.613  0.00  0.00    +0.000 C 
ATOM     26  C   UNL     1     103.514 134.252 141.668  0.00  0.00    +0.000 C 
ATOM     27  C   UNL     1     103.865 134.610 140.329  0.00  0.00    +0.000 C 
BRANCH  27  30
ATOM     28  O   UNL     1     104.081 133.991 139.059  0.00  0.00    +0.000 OA
ATOM     29  O   UNL     1     103.208 135.118 139.166  0.00  0.00    +0.000 OA
ATOM     30  C   UNL     1     103.718 134.573 139.518  0.00  0.00    +0.000 C 
ENDBRANCH  27  30
ENDBRANCH  18  26
ENDBRANCH  11  18
ENDBRANCH   4   9
BRANCH   1  31
ATOM     31  O   UNL     1     105.253 127.678 142.789  0.00  0.00    +0.000 OA
BRANCH  31  38
ATOM     32  O   UNL     1     106.377 128.396 142.278  0.00  0.00    +0.000 OA
ATOM     33  O   UNL     1     107.767 126.357 142.471  0.00  0.00    +0.000 OA
ATOM     34  O   UNL     1     108.428 127.755 141.896  0.00  0.00    +0.000 OA
ATOM     35  C   UNL     1     106.509 127.018 142.630  0.00  0.00    +0.000 C 
ATOM     36  C   UNL     1     107.304 127.037 142.407  0.00  0.00    +0.000 C 
ATOM     37  C   UNL     1     107.634 127.736 142.119  0.00  0.00    +0.000 C 
ATOM     38  C   UNL     1     106.046 127.697 142.566  0.00  0.00    +0.000 C 
ATOM     39  C   UNL     1     107.171 128.416 142.055  0.00  0.00    +0.000 C 
BRANCH  39  41
ATOM     40  O   UNL     1     107.315 129.378 141.008  0.00  0.00    +0.000 OA
ATOM     41  C   UNL     1     107.501 129.114 141.768  0.00  0.00    +0.000 C 
ENDBRANCH  39  41
BRANCH  35  42
ATOM     42  O   UNL     1     106.179 126.318 142.917  0.00  0.00    +0.000 OA
BRANCH  42  47
ATOM     43  O   UNL     1     106.732 126.514 144.266  0.00  0.00    +0.000 OA
ATOM     44  O   UNL     1     105.351 124.967 143.760  0.00  0.00    +0.000 OA
ATOM     45  C   UNL     1     106.116 125.509 144.892  0.00  0.00    +0.000 C 
ATOM     46  C   UNL     1     105.878 125.502 144.102  0.00  0.00    +0.000 C 
ATOM     47  C   UNL     1     106.259 126.123 143.716  0.00  0.00    +0.000 C 
ATOM     48  C   UNL     1     106.644 126.135 144.993  0.00  0.00    +0.000 C 
BRANCH  45  50
ATOM     49  O   UNL     1     106.941 125.311 146.042  0.00  0.00    +0.000 OA
ATOM     50  C   UNL     1     106.195 125.314 145.690  0.00  0.00    +0.000 C 
ENDBRANCH  45  50
BRANCH  45  51
ATOM     51  O   UNL     1     105.638 124.853 145.043  0.00  0.00    +0.000 OA
BRANCH  51  53
ATOM     52  O   UNL     1     104.575 125.572 145.671  0.00  0.00    +0.000 OA
ATOM     53  C   UNL     1     105.047 124.898 145.616  0.00  0.00    +0.000 C 
ATOM     54  C   UNL     1     104.926 124.267 146.133  0.00  0.00    +0.000 C 
ENDBRANCH  51  53
ENDBRANCH  45  51
ENDBRANCH  42  47
ENDBRANCH  35  42
ENDBRANCH  31  38
ENDBRANCH   1  31
TORSDOF 12
ENDMDL
MODEL 3
REMARK VINA RESULT:     -10.0      0.640      1.400
REMARK  Name = 131831501
REMARK  12 active torsions:
REMARK  status: ('A' for Active; 'I' for Inactive)
REMARK    1  A    between atoms: O_1  and  C_22
REMARK    2  A    between atoms: O_1  and  C_24
REMARK    3  A    between atoms: O_4  and  C_21
REMARK    4  A    between atoms: O_4  and  C_32
REMARK    5  A    between atoms: O_7  and  C_28
REMARK    6  A    between atoms: O_7  and  C_35
REMARK    7  A    between atoms: O_12  and  C_37
REMARK    8  A    between atoms: O_12  and  C_48
REMARK    9  A    between atoms: C_21  and  C_30
REMARK   10  A    between atoms: C_29  and  C_31
REMARK   11  A    between atoms: C_38  and  C_46
REMARK   12  A    between atoms: C_42  and  C_43
REMARK                            x       y       z     vdW  Elec       q    Type
REMARK                         _______ _______ _______ _____ _____    ______ ____
ROOT
ATOM      1  C   UNL     1     112.704 130.235 140.971  0.00  0.00    +0.000 A 
ATOM      2  C   UNL     1     113.422 129.871 140.788  0.00  0.00    +0.000 A 
ATOM      3  C   UNL     1     112.134 130.340 140.384  0.00  0.00    +0.000 A 
ATOM      4  C   UNL     1     112.998 129.718 139.432  0.00  0.00    +0.000 A 
ATOM      5  C   UNL     1     113.569 129.612 140.018  0.00  0.00    +0.000 A 
ATOM      6  C   UNL     1     112.281 130.081 139.614  0.00  0.00    +0.000 A 
ENDROOT
BRANCH   4   9
ATOM      7  O   UNL     1     113.126 128.652 138.487  0.00  0.00    +0.000 OA
ATOM      8  O   UNL     1     113.626 130.295 136.704  0.00  0.00    +0.000 OA
ATOM      9  C   UNL     1     113.146 129.459 138.662  0.00  0.00    +0.000 C 
ATOM     10  C   UNL     1     113.312 130.006 138.068  0.00  0.00    +0.000 C 
ATOM     11  C   UNL     1     113.403 127.277 136.749  0.00  0.00    +0.000 A 
ATOM     12  C   UNL     1     113.274 128.394 137.718  0.00  0.00    +0.000 A 
ATOM     13  C   UNL     1     113.440 128.942 137.124  0.00  0.00    +0.000 A 
ATOM     14  C   UNL     1     113.459 129.747 137.298  0.00  0.00    +0.000 C 
ATOM     15  C   UNL     1     113.251 127.552 137.548  0.00  0.00    +0.000 A 
ATOM     16  C   UNL     1     113.577 127.846 136.129  0.00  0.00    +0.000 A 
ATOM     17  C   UNL     1     113.595 128.685 136.318  0.00  0.00    +0.000 A 
BRANCH  11  18
ATOM     18  O   UNL     1     113.384 126.470 136.577  0.00  0.00    +0.000 OA
BRANCH  18  26
ATOM     19  O   UNL     1     112.073 126.479 136.006  0.00  0.00    +0.000 OA
ATOM     20  O   UNL     1     111.672 124.203 136.891  0.00  0.00    +0.000 OA
ATOM     21  O   UNL     1     113.115 124.953 137.166  0.00  0.00    +0.000 OA
ATOM     22  O   UNL     1     110.496 124.971 136.025  0.00  0.00    +0.000 OA
ATOM     23  C   UNL     1     111.806 124.962 136.596  0.00  0.00    +0.000 C 
ATOM     24  C   UNL     1     112.528 125.337 136.733  0.00  0.00    +0.000 C 
ATOM     25  C   UNL     1     111.218 125.346 136.163  0.00  0.00    +0.000 C 
ATOM     26  C   UNL     1     112.662 126.095 136.439  0.00  0.00    +0.000 C 
ATOM     27  C   UNL     1     111.351 126.105 135.868  0.00  0.00    +0.000 C 
BRANCH  27  30
ATOM     28  O   UNL     1     110.196 126.944 135.823  0.00  0.00    +0.000 OA
ATOM     29  O   UNL     1     110.745 126.418 134.612  0.00  0.00    +0.000 OA
ATOM     30  C   UNL     1     110.764 126.489 135.435  0.00  0.00    +0.000 C 
ENDBRANCH  27  30
ENDBRANCH  18  26
ENDBRANCH  11  18
ENDBRANCH   4   9
BRANCH   1  31
ATOM     31  O   UNL     1     112.557 130.494 141.740  0.00  0.00    +0.000 OA
BRANCH  31  38
ATOM     32  O   UNL     1     112.078 129.246 142.247  0.00  0.00    +0.000 OA
ATOM     33  O   UNL     1     110.426 130.448 143.644  0.00  0.00    +0.000 OA
ATOM     34  O   UNL     1     110.498 128.800 143.684  0.00  0.00    +0.000 OA
ATOM     35  C   UNL     1     111.492 130.471 142.692  0.00  0.00    +0.000 C 
ATOM     36  C   UNL     1     110.977 130.047 143.178  0.00  0.00    +0.000 C 
ATOM     37  C   UNL     1     111.013 129.223 143.198  0.00  0.00    +0.000 C 
ATOM     38  C   UNL     1     112.042 130.070 142.226  0.00  0.00    +0.000 C 
ATOM     39  C   UNL     1     111.564 128.823 142.732  0.00  0.00    +0.000 C 
BRANCH  39  41
ATOM     40  O   UNL     1     111.326 127.558 142.111  0.00  0.00    +0.000 OA
ATOM     41  C   UNL     1     111.599 128.000 142.753  0.00  0.00    +0.000 C 
ENDBRANCH  39  41
BRANCH  35  42
ATOM     42  O   UNL     1     111.455 131.295 142.672  0.00  0.00    +0.000 OA
BRANCH  42  47
ATOM     43  O   UNL     1     112.216 131.435 143.923  0.00  0.00    +0.000 OA
ATOM     44  O   UNL     1     111.546 133.086 142.747  0.00  0.00    +0.000 OA
ATOM     45  C   UNL     1     112.283 132.768 143.978  0.00  0.00    +0.000 C 
ATOM     46  C   UNL     1     111.865 132.561 143.297  0.00  0.00    +0.000 C 
ATOM     47  C   UNL     1     111.824 131.738 143.263  0.00  0.00    +0.000 C 
ATOM     48  C   UNL     1     112.500 132.071 144.365  0.00  0.00    +0.000 C 
BRANCH  45  50
ATOM     49  O   UNL     1     113.368 132.955 144.889  0.00  0.00    +0.000 OA
ATOM     50  C   UNL     1     112.652 133.210 144.569  0.00  0.00    +0.000 C 
ENDBRANCH  45  50
BRANCH  45  51
ATOM     51  O   UNL     1     112.191 133.566 143.793  0.00  0.00    +0.000 OA
BRANCH  51  53
ATOM     52  O   UNL     1     111.110 133.864 144.678  0.00  0.00    +0.000 OA
ATOM     53  C   UNL     1     111.828 134.075 144.331  0.00  0.00    +0.000 C 
ATOM     54  C   UNL     1     112.182 134.795 144.521  0.00  0.00    +0.000 C 
ENDBRANCH  51  53
ENDBRANCH  45  51
ENDBRANCH  42  47
ENDBRANCH  35  42
ENDBRANCH  31  38
ENDBRANCH   1  31
TORSDOF 12
ENDMDL
MODEL 4
REMARK VINA RESULT:      -9.9      6.682     10.000
REMARK  Name = 131831501
REMARK  12 active torsions:
REMARK  status: ('A' for Active; 'I' for Inactive)
REMARK    1  A    between atoms: O_1  and  C_22
REMARK    2  A    between atoms: O_1  and  C_24
REMARK    3  A    between atoms: O_4  and  C_21
REMARK    4  A    between atoms: O_4  and  C_32
REMARK    5  A    between atoms: O_7  and  C_28
REMARK    6  A    between atoms: O_7  and  C_35
REMARK    7  A    between atoms: O_12  and  C_37
REMARK    8  A    between atoms: O_12  and  C_48
REMARK    9  A    between atoms: C_21  and  C_30
REMARK   10  A    between atoms: C_29  and  C_31
REMARK   11  A    between atoms: C_38  and  C_46
REMARK   12  A    between atoms: C_42  and  C_43
REMARK                            x       y       z     vdW  Elec       q    Type
REMARK                         _______ _______ _______ _____ _____    ______ ____
ROOT
ATOM      1  C   UNL     1     107.457 128.838 145.857  0.00  0.00    +0.000 A 
ATOM      2  C   UNL     1     108.245 128.703 145.654  0.00  0.00    +0.000 A 
ATOM      3  C   UNL     1     107.157 129.607 145.858  0.00  0.00    +0.000 A 
ATOM      4  C   UNL     1     108.433 130.105 145.453  0.00  0.00    +0.000 A 
ATOM      5  C   UNL     1     108.734 129.337 145.452  0.00  0.00    +0.000 A 
ATOM      6  C   UNL     1     107.646 130.240 145.656  0.00  0.00    +0.000 A 
ENDROOT
BRANCH   4   9
ATOM      7  O   UNL     1     109.222 131.232 145.841  0.00  0.00    +0.000 OA
ATOM      8  O   UNL     1     109.786 131.653 143.468  0.00  0.00    +0.000 OA
ATOM      9  C   UNL     1     108.922 130.739 145.252  0.00  0.00    +0.000 C 
ATOM     10  C   UNL     1     109.110 130.879 144.461  0.00  0.00    +0.000 C 
ATOM     11  C   UNL     1     110.526 133.034 146.058  0.00  0.00    +0.000 A 
ATOM     12  C   UNL     1     109.711 131.866 145.639  0.00  0.00    +0.000 A 
ATOM     13  C   UNL     1     109.899 132.006 144.848  0.00  0.00    +0.000 A 
ATOM     14  C   UNL     1     109.598 131.513 144.259  0.00  0.00    +0.000 C 
ATOM     15  C   UNL     1     110.017 132.373 146.262  0.00  0.00    +0.000 A 
ATOM     16  C   UNL     1     110.722 133.180 145.234  0.00  0.00    +0.000 A 
ATOM     17  C   UNL     1     110.407 132.663 144.625  0.00  0.00    +0.000 A 
BRANCH  11  18
ATOM     18  O   UNL     1     110.826 133.525 146.649  0.00  0.00    +0.000 OA
BRANCH  18  26
ATOM     19  O   UNL     1     112.028 132.788 146.877  0.00  0.00    +0.000 OA
ATOM     20  O   UNL     1     111.896 133.317 149.290  0.00  0.00    +0.000 OA
ATOM     21  O   UNL     1     110.739 133.878 148.258  0.00  0.00    +0.000 OA
ATOM     22  O   UNL     1     113.143 132.403 148.713  0.00  0.00    +0.000 OA
ATOM     23  C   UNL     1     111.940 133.140 148.485  0.00  0.00    +0.000 C 
ATOM     24  C   UNL     1     111.361 133.421 147.969  0.00  0.00    +0.000 C 
ATOM     25  C   UNL     1     112.564 132.683 148.197  0.00  0.00    +0.000 C 
ATOM     26  C   UNL     1     111.405 133.245 147.165  0.00  0.00    +0.000 C 
ATOM     27  C   UNL     1     112.608 132.507 147.392  0.00  0.00    +0.000 C 
BRANCH  27  30
ATOM     28  O   UNL     1     113.156 131.229 147.059  0.00  0.00    +0.000 OA
ATOM     29  O   UNL     1     113.930 132.414 146.857  0.00  0.00    +0.000 OA
ATOM     30  C   UNL     1     113.230 132.050 147.103  0.00  0.00    +0.000 C 
ENDBRANCH  27  30
ENDBRANCH  18  26
ENDBRANCH  11  18
ENDBRANCH   4   9
BRANCH   1  31
ATOM     31  O   UNL     1     106.968 128.205 146.059  0.00  0.00    +0.000 OA
BRANCH  31  38
ATOM     32  O   UNL     1     106.182 128.132 144.868  0.00  0.00    +0.000 OA
ATOM     33  O   UNL     1     106.376 125.664 144.891  0.00  0.00    +0.000 OA
ATOM     34  O   UNL     1     105.526 126.414 143.693  0.00  0.00    +0.000 OA
ATOM     35  C   UNL     1     106.672 126.935 145.476  0.00  0.00    +0.000 C 
ATOM     36  C   UNL     1     106.311 126.487 144.883  0.00  0.00    +0.000 C 
ATOM     37  C   UNL     1     105.887 126.862 144.284  0.00  0.00    +0.000 C 
ATOM     38  C   UNL     1     106.608 127.757 145.468  0.00  0.00    +0.000 C 
ATOM     39  C   UNL     1     105.822 127.685 144.276  0.00  0.00    +0.000 C 
BRANCH  39  41
ATOM     40  O   UNL     1     104.787 128.581 143.867  0.00  0.00    +0.000 OA
ATOM     41  C   UNL     1     105.397 128.059 143.677  0.00  0.00    +0.000 C 
ENDBRANCH  39  41
BRANCH  35  42
ATOM     42  O   UNL     1     107.097 126.560 146.075  0.00  0.00    +0.000 OA
BRANCH  42  47
ATOM     43  O   UNL     1     105.911 126.413 146.931  0.00  0.00    +0.000 OA
ATOM     44  O   UNL     1     107.837 125.638 147.426  0.00  0.00    +0.000 OA
ATOM     45  C   UNL     1     106.461 125.727 147.936  0.00  0.00    +0.000 C 
ATOM     46  C   UNL     1     107.048 125.874 147.374  0.00  0.00    +0.000 C 
ATOM     47  C   UNL     1     106.708 126.297 146.754  0.00  0.00    +0.000 C 
ATOM     48  C   UNL     1     105.757 126.061 147.661  0.00  0.00    +0.000 C 
BRANCH  45  50
ATOM     49  O   UNL     1     105.509 125.946 148.979  0.00  0.00    +0.000 OA
ATOM     50  C   UNL     1     106.071 125.465 148.614  0.00  0.00    +0.000 C 
ENDBRANCH  45  50
BRANCH  45  51
ATOM     51  O   UNL     1     107.009 125.329 148.406  0.00  0.00    +0.000 OA
BRANCH  51  53
ATOM     52  O   UNL     1     106.494 124.024 148.135  0.00  0.00    +0.000 OA
ATOM     53  C   UNL     1     106.859 124.556 148.649  0.00  0.00    +0.000 C 
ATOM     54  C   UNL     1     107.074 124.314 149.408  0.00  0.00    +0.000 C 
ENDBRANCH  51  53
ENDBRANCH  45  51
ENDBRANCH  42  47
ENDBRANCH  35  42
ENDBRANCH  31  38
ENDBRANCH   1  31
TORSDOF 12
ENDMDL
MODEL 5
REMARK VINA RESULT:      -9.8      6.299     10.009
REMARK  Name = 131831501
REMARK  12 active torsions:
REMARK  status: ('A' for Active; 'I' for Inactive)
REMARK    1  A    between atoms: O_1  and  C_22
REMARK    2  A    between atoms: O_1  and  C_24
REMARK    3  A    between atoms: O_4  and  C_21
REMARK    4  A    between atoms: O_4  and  C_32
REMARK    5  A    between atoms: O_7  and  C_28
REMARK    6  A    between atoms: O_7  and  C_35
REMARK    7  A    between atoms: O_12  and  C_37
REMARK    8  A    between atoms: O_12  and  C_48
REMARK    9  A    between atoms: C_21  and  C_30
REMARK   10  A    between atoms: C_29  and  C_31
REMARK   11  A    between atoms: C_38  and  C_46
REMARK   12  A    between atoms: C_42  and  C_43
REMARK                            x       y       z     vdW  Elec       q    Type
REMARK                         _______ _______ _______ _____ _____    ______ ____
ROOT
ATOM      1  C   UNL     1     106.213 126.783 146.420  0.00  0.00    +0.000 A 
ATOM      2  C   UNL     1     106.232 127.425 146.939  0.00  0.00    +0.000 A 
ATOM      3  C   UNL     1     106.599 126.829 145.693  0.00  0.00    +0.000 A 
ATOM      4  C   UNL     1     107.022 128.158 146.001  0.00  0.00    +0.000 A 
ATOM      5  C   UNL     1     106.637 128.112 146.729  0.00  0.00    +0.000 A 
ATOM      6  C   UNL     1     107.004 127.517 145.483  0.00  0.00    +0.000 A 
ENDROOT
BRANCH   4   9
ATOM      7  O   UNL     1     108.244 128.824 145.673  0.00  0.00    +0.000 OA
ATOM      8  O   UNL     1     107.010 130.952 145.402  0.00  0.00    +0.000 OA
ATOM      9  C   UNL     1     107.427 128.845 145.792  0.00  0.00    +0.000 C 
ATOM     10  C   UNL     1     107.017 129.555 145.702  0.00  0.00    +0.000 C 
ATOM     11  C   UNL     1     109.926 130.188 145.124  0.00  0.00    +0.000 A 
ATOM     12  C   UNL     1     108.649 129.511 145.463  0.00  0.00    +0.000 A 
ATOM     13  C   UNL     1     108.237 130.221 145.373  0.00  0.00    +0.000 A 
ATOM     14  C   UNL     1     107.422 130.243 145.492  0.00  0.00    +0.000 C 
ATOM     15  C   UNL     1     109.499 129.475 145.342  0.00  0.00    +0.000 A 
ATOM     16  C   UNL     1     109.498 130.927 145.030  0.00  0.00    +0.000 A 
ATOM     17  C   UNL     1     108.648 130.944 145.155  0.00  0.00    +0.000 A 
BRANCH  11  18
ATOM     18  O   UNL     1     110.742 130.163 145.005  0.00  0.00    +0.000 OA
BRANCH  18  26
ATOM     19  O   UNL     1     110.771 129.432 143.778  0.00  0.00    +0.000 OA
ATOM     20  O   UNL     1     112.503 130.968 142.904  0.00  0.00    +0.000 OA
ATOM     21  O   UNL     1     111.897 131.187 144.422  0.00  0.00    +0.000 OA
ATOM     22  O   UNL     1     111.955 129.725 141.968  0.00  0.00    +0.000 OA
ATOM     23  C   UNL     1     111.926 130.456 143.195  0.00  0.00    +0.000 C 
ATOM     24  C   UNL     1     111.622 130.565 143.955  0.00  0.00    +0.000 C 
ATOM     25  C   UNL     1     111.652 129.834 142.727  0.00  0.00    +0.000 C 
ATOM     26  C   UNL     1     111.045 130.054 144.246  0.00  0.00    +0.000 C 
ATOM     27  C   UNL     1     111.074 129.322 143.018  0.00  0.00    +0.000 C 
BRANCH  27  30
ATOM     28  O   UNL     1     110.199 128.831 142.001  0.00  0.00    +0.000 OA
ATOM     29  O   UNL     1     111.127 127.947 142.634  0.00  0.00    +0.000 OA
ATOM     30  C   UNL     1     110.800 128.701 142.551  0.00  0.00    +0.000 C 
ENDBRANCH  27  30
ENDBRANCH  18  26
ENDBRANCH  11  18
ENDBRANCH   4   9
BRANCH   1  31
ATOM     31  O   UNL     1     105.808 126.095 146.630  0.00  0.00    +0.000 OA
BRANCH  31  38
ATOM     32  O   UNL     1     106.910 125.564 147.368  0.00  0.00    +0.000 OA
ATOM     33  O   UNL     1     105.342 124.267 148.777  0.00  0.00    +0.000 OA
ATOM     34  O   UNL     1     106.966 124.169 149.045  0.00  0.00    +0.000 OA
ATOM     35  C   UNL     1     105.575 125.182 147.703  0.00  0.00    +0.000 C 
ATOM     36  C   UNL     1     105.865 124.700 148.307  0.00  0.00    +0.000 C 
ATOM     37  C   UNL     1     106.677 124.650 148.441  0.00  0.00    +0.000 C 
ATOM     38  C   UNL     1     106.097 125.614 147.233  0.00  0.00    +0.000 C 
ATOM     39  C   UNL     1     107.200 125.083 147.971  0.00  0.00    +0.000 C 
BRANCH  39  41
ATOM     40  O   UNL     1     108.537 125.044 147.469  0.00  0.00    +0.000 OA
ATOM     41  C   UNL     1     108.012 125.033 148.105  0.00  0.00    +0.000 C 
ENDBRANCH  39  41
BRANCH  35  42
ATOM     42  O   UNL     1     104.762 125.231 147.569  0.00  0.00    +0.000 OA
BRANCH  42  47
ATOM     43  O   UNL     1     104.758 124.051 146.691  0.00  0.00    +0.000 OA
ATOM     44  O   UNL     1     103.013 125.184 147.169  0.00  0.00    +0.000 OA
ATOM     45  C   UNL     1     103.457 124.017 146.393  0.00  0.00    +0.000 C 
ATOM     46  C   UNL     1     103.587 124.658 146.897  0.00  0.00    +0.000 C 
ATOM     47  C   UNL     1     104.391 124.678 147.081  0.00  0.00    +0.000 C 
ATOM     48  C   UNL     1     104.182 123.642 146.266  0.00  0.00    +0.000 C 
BRANCH  45  50
ATOM     49  O   UNL     1     103.438 123.241 145.193  0.00  0.00    +0.000 OA
ATOM     50  C   UNL     1     103.086 123.465 145.905  0.00  0.00    +0.000 C 
ENDBRANCH  45  50
BRANCH  45  51
ATOM     51  O   UNL     1     102.654 124.202 146.363  0.00  0.00    +0.000 OA
BRANCH  51  53
ATOM     52  O   UNL     1     102.214 123.152 147.226  0.00  0.00    +0.000 OA
ATOM     53  C   UNL     1     102.092 123.635 146.569  0.00  0.00    +0.000 C 
ATOM     54  C   UNL     1     101.407 123.551 146.118  0.00  0.00    +0.000 C 
ENDBRANCH  51  53
ENDBRANCH  45  51
ENDBRANCH  42  47
ENDBRANCH  35  42
ENDBRANCH  31  38
ENDBRANCH   1  31
TORSDOF 12
ENDMDL
MODEL 6
REMARK VINA RESULT:      -9.8      5.160      7.448
REMARK  Name = 131831501
REMARK  12 active torsions:
REMARK  status: ('A' for Active; 'I' for Inactive)
REMARK    1  A    between atoms: O_1  and  C_22
REMARK    2  A    between atoms: O_1  and  C_24
REMARK    3  A    between atoms: O_4  and  C_21
REMARK    4  A    between atoms: O_4  and  C_32
REMARK    5  A    between atoms: O_7  and  C_28
REMARK    6  A    between atoms: O_7  and  C_35
REMARK    7  A    between atoms: O_12  and  C_37
REMARK    8  A    between atoms: O_12  and  C_48
REMARK    9  A    between atoms: C_21  and  C_30
REMARK   10  A    between atoms: C_29  and  C_31
REMARK   11  A    between atoms: C_38  and  C_46
REMARK   12  A    between atoms: C_42  and  C_43
REMARK                            x       y       z     vdW  Elec       q    Type
REMARK                         _______ _______ _______ _____ _____    ______ ____
ROOT
ATOM      1  C   UNL     1     107.067 127.812 142.649  0.00  0.00    +0.000 A 
ATOM      2  C   UNL     1     107.864 127.663 142.493  0.00  0.00    +0.000 A 
ATOM      3  C   UNL     1     106.707 128.488 142.342  0.00  0.00    +0.000 A 
ATOM      4  C   UNL     1     107.938 128.865 141.724  0.00  0.00    +0.000 A 
ATOM      5  C   UNL     1     108.300 128.190 142.030  0.00  0.00    +0.000 A 
ATOM      6  C   UNL     1     107.142 129.014 141.879  0.00  0.00    +0.000 A 
ENDROOT
BRANCH   4   9
ATOM      7  O   UNL     1     108.589 129.184 140.491  0.00  0.00    +0.000 OA
ATOM      8  O   UNL     1     109.249 131.385 141.411  0.00  0.00    +0.000 OA
ATOM      9  C   UNL     1     108.373 129.391 141.261  0.00  0.00    +0.000 C 
ATOM     10  C   UNL     1     108.594 130.125 141.567  0.00  0.00    +0.000 C 
ATOM     11  C   UNL     1     109.695 130.027 138.743  0.00  0.00    +0.000 A 
ATOM     12  C   UNL     1     109.024 129.710 140.028  0.00  0.00    +0.000 A 
ATOM     13  C   UNL     1     109.244 130.444 140.335  0.00  0.00    +0.000 A 
ATOM     14  C   UNL     1     109.029 130.652 141.104  0.00  0.00    +0.000 C 
ATOM     15  C   UNL     1     109.242 129.483 139.229  0.00  0.00    +0.000 A 
ATOM     16  C   UNL     1     109.924 130.791 139.061  0.00  0.00    +0.000 A 
ATOM     17  C   UNL     1     109.698 131.001 139.863  0.00  0.00    +0.000 A 
BRANCH  11  18
ATOM     18  O   UNL     1     109.909 129.817 137.974  0.00  0.00    +0.000 OA
BRANCH  18  26
ATOM     19  O   UNL     1     109.044 130.714 137.273  0.00  0.00    +0.000 OA
ATOM     20  O   UNL     1     108.557 128.946 135.611  0.00  0.00    +0.000 OA
ATOM     21  O   UNL     1     109.583 128.639 136.865  0.00  0.00    +0.000 OA
ATOM     22  O   UNL     1     107.856 130.432 135.464  0.00  0.00    +0.000 OA
ATOM     23  C   UNL     1     108.720 129.536 136.165  0.00  0.00    +0.000 C 
ATOM     24  C   UNL     1     109.233 129.382 136.793  0.00  0.00    +0.000 C 
ATOM     25  C   UNL     1     108.369 130.279 136.092  0.00  0.00    +0.000 C 
ATOM     26  C   UNL     1     109.395 129.970 137.346  0.00  0.00    +0.000 C 
ATOM     27  C   UNL     1     108.531 130.868 136.646  0.00  0.00    +0.000 C 
BRANCH  27  30
ATOM     28  O   UNL     1     107.441 131.754 136.909  0.00  0.00    +0.000 OA
ATOM     29  O   UNL     1     108.571 132.213 136.164  0.00  0.00    +0.000 OA
ATOM     30  C   UNL     1     108.181 131.611 136.573  0.00  0.00    +0.000 C 
ENDBRANCH  27  30
ENDBRANCH  18  26
ENDBRANCH  11  18
ENDBRANCH   4   9
BRANCH   1  31
ATOM     31  O   UNL     1     106.632 127.286 143.112  0.00  0.00    +0.000 OA
BRANCH  31  38
ATOM     32  O   UNL     1     106.077 126.548 142.022  0.00  0.00    +0.000 OA
ATOM     33  O   UNL     1     106.193 124.474 143.367  0.00  0.00    +0.000 OA
ATOM     34  O   UNL     1     105.599 124.427 141.829  0.00  0.00    +0.000 OA
ATOM     35  C   UNL     1     106.413 125.881 143.240  0.00  0.00    +0.000 C 
ATOM     36  C   UNL     1     106.155 125.165 142.919  0.00  0.00    +0.000 C 
ATOM     37  C   UNL     1     105.857 125.142 142.150  0.00  0.00    +0.000 C 
ATOM     38  C   UNL     1     106.374 126.572 142.791  0.00  0.00    +0.000 C 
ATOM     39  C   UNL     1     105.818 125.833 141.701  0.00  0.00    +0.000 C 
BRANCH  39  41
ATOM     40  O   UNL     1     104.979 126.379 140.681  0.00  0.00    +0.000 OA
ATOM     41  C   UNL     1     105.521 125.810 140.932  0.00  0.00    +0.000 C 
ENDBRANCH  39  41
BRANCH  35  42
ATOM     42  O   UNL     1     106.710 125.903 144.009  0.00  0.00    +0.000 OA
BRANCH  42  47
ATOM     43  O   UNL     1     105.382 126.078 144.615  0.00  0.00    +0.000 OA
ATOM     44  O   UNL     1     107.145 125.622 145.727  0.00  0.00    +0.000 OA
ATOM     45  C   UNL     1     105.706 125.869 145.893  0.00  0.00    +0.000 C 
ATOM     46  C   UNL     1     106.392 125.795 145.440  0.00  0.00    +0.000 C 
ATOM     47  C   UNL     1     106.191 125.924 144.651  0.00  0.00    +0.000 C 
ATOM     48  C   UNL     1     105.081 126.044 145.382  0.00  0.00    +0.000 C 
BRANCH  45  50
ATOM     49  O   UNL     1     104.598 126.467 146.570  0.00  0.00    +0.000 OA
ATOM     50  C   UNL     1     105.187 125.890 146.534  0.00  0.00    +0.000 C 
ENDBRANCH  45  50
BRANCH  45  51
ATOM     51  O   UNL     1     106.139 125.709 146.576  0.00  0.00    +0.000 OA
BRANCH  51  53
ATOM     52  O   UNL     1     105.708 124.356 146.736  0.00  0.00    +0.000 OA
ATOM     53  C   UNL     1     105.920 125.082 147.066  0.00  0.00    +0.000 C 
ATOM     54  C   UNL     1     105.914 125.181 147.884  0.00  0.00    +0.000 C 
ENDBRANCH  51  53
ENDBRANCH  45  51
ENDBRANCH  42  47
ENDBRANCH  35  42
ENDBRANCH  31  38
ENDBRANCH   1  31
TORSDOF 12
ENDMDL
MODEL 7
REMARK VINA RESULT:      -9.7      4.674      6.743
REMARK  Name = 131831501
REMARK  12 active torsions:
REMARK  status: ('A' for Active; 'I' for Inactive)
REMARK    1  A    between atoms: O_1  and  C_22
REMARK    2  A    between atoms: O_1  and  C_24
REMARK    3  A    between atoms: O_4  and  C_21
REMARK    4  A    between atoms: O_4  and  C_32
REMARK    5  A    between atoms: O_7  and  C_28
REMARK    6  A    between atoms: O_7  and  C_35
REMARK    7  A    between atoms: O_12  and  C_37
REMARK    8  A    between atoms: O_12  and  C_48
REMARK    9  A    between atoms: C_21  and  C_30
REMARK   10  A    between atoms: C_29  and  C_31
REMARK   11  A    between atoms: C_38  and  C_46
REMARK   12  A    between atoms: C_42  and  C_43
REMARK                            x       y       z     vdW  Elec       q    Type
REMARK                         _______ _______ _______ _____ _____    ______ ____
ROOT
ATOM      1  C   UNL     1     108.089 126.414 141.716  0.00  0.00    +0.000 A 
ATOM      2  C   UNL     1     107.793 125.942 141.106  0.00  0.00    +0.000 A 
ATOM      3  C   UNL     1     108.810 126.803 141.622  0.00  0.00    +0.000 A 
ATOM      4  C   UNL     1     108.939 126.251 140.311  0.00  0.00    +0.000 A 
ATOM      5  C   UNL     1     108.218 125.861 140.404  0.00  0.00    +0.000 A 
ATOM      6  C   UNL     1     109.235 126.722 140.919  0.00  0.00    +0.000 A 
ENDROOT
BRANCH   4   9
ATOM      7  O   UNL     1     109.094 126.533 138.918  0.00  0.00    +0.000 OA
ATOM      8  O   UNL     1     111.178 125.198 138.880  0.00  0.00    +0.000 OA
ATOM      9  C   UNL     1     109.364 126.169 139.608  0.00  0.00    +0.000 C 
ATOM     10  C   UNL     1     110.058 125.725 139.595  0.00  0.00    +0.000 C 
ATOM     11  C   UNL     1     109.665 126.754 136.769  0.00  0.00    +0.000 A 
ATOM     12  C   UNL     1     109.519 126.452 138.215  0.00  0.00    +0.000 A 
ATOM     13  C   UNL     1     110.213 126.007 138.203  0.00  0.00    +0.000 A 
ATOM     14  C   UNL     1     110.483 125.643 138.892  0.00  0.00    +0.000 C 
ATOM     15  C   UNL     1     109.227 126.836 137.504  0.00  0.00    +0.000 A 
ATOM     16  C   UNL     1     110.389 126.291 136.756  0.00  0.00    +0.000 A 
ATOM     17  C   UNL     1     110.665 125.914 137.477  0.00  0.00    +0.000 A 
BRANCH  11  18
ATOM     18  O   UNL     1     109.393 127.119 136.081  0.00  0.00    +0.000 OA
BRANCH  18  26
ATOM     19  O   UNL     1     110.241 128.269 136.051  0.00  0.00    +0.000 OA
ATOM     20  O   UNL     1     108.290 129.695 135.524  0.00  0.00    +0.000 OA
ATOM     21  O   UNL     1     108.093 128.071 135.730  0.00  0.00    +0.000 OA
ATOM     22  O   UNL     1     109.789 130.369 135.669  0.00  0.00    +0.000 OA
ATOM     23  C   UNL     1     108.941 129.219 135.699  0.00  0.00    +0.000 C 
ATOM     24  C   UNL     1     108.842 128.407 135.802  0.00  0.00    +0.000 C 
ATOM     25  C   UNL     1     109.690 129.557 135.772  0.00  0.00    +0.000 C 
ATOM     26  C   UNL     1     109.492 127.931 135.978  0.00  0.00    +0.000 C 
ATOM     27  C   UNL     1     110.341 129.081 135.948  0.00  0.00    +0.000 C 
BRANCH  27  30
ATOM     28  O   UNL     1     111.338 129.723 136.746  0.00  0.00    +0.000 OA
ATOM     29  O   UNL     1     111.594 129.448 135.367  0.00  0.00    +0.000 OA
ATOM     30  C   UNL     1     111.091 129.417 136.021  0.00  0.00    +0.000 C 
ENDBRANCH  27  30
ENDBRANCH  18  26
ENDBRANCH  11  18
ENDBRANCH   4   9
BRANCH   1  31
ATOM     31  O   UNL     1     107.665 126.495 142.418  0.00  0.00    +0.000 OA
BRANCH  31  38
ATOM     32  O   UNL     1     107.215 127.834 142.199  0.00  0.00    +0.000 OA
ATOM     33  O   UNL     1     105.037 127.271 143.231  0.00  0.00    +0.000 OA
ATOM     34  O   UNL     1     105.313 128.796 142.667  0.00  0.00    +0.000 OA
ATOM     35  C   UNL     1     106.351 126.883 142.824  0.00  0.00    +0.000 C 
ATOM     36  C   UNL     1     105.763 127.458 142.887  0.00  0.00    +0.000 C 
ATOM     37  C   UNL     1     105.901 128.221 142.605  0.00  0.00    +0.000 C 
ATOM     38  C   UNL     1     107.077 127.070 142.480  0.00  0.00    +0.000 C 
ATOM     39  C   UNL     1     106.627 128.409 142.261  0.00  0.00    +0.000 C 
BRANCH  39  41
ATOM     40  O   UNL     1     106.826 129.307 141.168  0.00  0.00    +0.000 OA
ATOM     41  C   UNL     1     106.765 129.171 141.979  0.00  0.00    +0.000 C 
ENDBRANCH  39  41
BRANCH  35  42
ATOM     42  O   UNL     1     106.212 126.120 143.106  0.00  0.00    +0.000 OA
BRANCH  42  47
ATOM     43  O   UNL     1     106.709 126.406 144.460  0.00  0.00    +0.000 OA
ATOM     44  O   UNL     1     105.468 124.738 143.977  0.00  0.00    +0.000 OA
ATOM     45  C   UNL     1     106.156 125.378 145.108  0.00  0.00    +0.000 C 
ATOM     46  C   UNL     1     105.942 125.324 144.312  0.00  0.00    +0.000 C 
ATOM     47  C   UNL     1     106.284 125.959 143.913  0.00  0.00    +0.000 C 
ATOM     48  C   UNL     1     106.630 126.047 145.199  0.00  0.00    +0.000 C 
BRANCH  45  50
ATOM     49  O   UNL     1     106.964 125.269 146.281  0.00  0.00    +0.000 OA
ATOM     50  C   UNL     1     106.227 125.218 145.914  0.00  0.00    +0.000 C 
ENDBRANCH  45  50
BRANCH  45  51
ATOM     51  O   UNL     1     105.726 124.692 145.270  0.00  0.00    +0.000 OA
BRANCH  51  53
ATOM     52  O   UNL     1     104.512 125.278 145.743  0.00  0.00    +0.000 OA
ATOM     53  C   UNL     1     105.109 124.712 145.815  0.00  0.00    +0.000 C 
ATOM     54  C   UNL     1     105.087 124.167 146.434  0.00  0.00    +0.000 C 
ENDBRANCH  51  53
ENDBRANCH  45  51
ENDBRANCH  42  47
ENDBRANCH  35  42
ENDBRANCH  31  38
ENDBRANCH   1  31
TORSDOF 12
ENDMDL
MODEL 8
REMARK VINA RESULT:      -9.7      7.668     11.247
REMARK  Name = 131831501
REMARK  12 active torsions:
REMARK  status: ('A' for Active; 'I' for Inactive)
REMARK    1  A    between atoms: O_1  and  C_22
REMARK    2  A    between atoms: O_1  and  C_24
REMARK    3  A    between atoms: O_4  and  C_21
REMARK    4  A    between atoms: O_4  and  C_32
REMARK    5  A    between atoms: O_7  and  C_28
REMARK    6  A    between atoms: O_7  and  C_35
REMARK    7  A    between atoms: O_12  and  C_37
REMARK    8  A    between atoms: O_12  and  C_48
REMARK    9  A    between atoms: C_21  and  C_30
REMARK   10  A    between atoms: C_29  and  C_31
REMARK   11  A    between atoms: C_38  and  C_46
REMARK   12  A    between atoms: C_42  and  C_43
REMARK                            x       y       z     vdW  Elec       q    Type
REMARK                         _______ _______ _______ _____ _____    ______ ____
ROOT
ATOM      1  C   UNL     1     106.237 126.834 146.404  0.00  0.00    +0.000 A 
ATOM      2  C   UNL     1     106.660 126.933 145.703  0.00  0.00    +0.000 A 
ATOM      3  C   UNL     1     106.190 127.453 146.948  0.00  0.00    +0.000 A 
ATOM      4  C   UNL     1     106.990 128.268 146.090  0.00  0.00    +0.000 A 
ATOM      5  C   UNL     1     107.037 127.650 145.546  0.00  0.00    +0.000 A 
ATOM      6  C   UNL     1     106.567 128.170 146.791  0.00  0.00    +0.000 A 
ENDROOT
BRANCH   4   9
ATOM      7  O   UNL     1     106.946 129.694 145.989  0.00  0.00    +0.000 OA
ATOM      8  O   UNL     1     109.338 129.721 145.351  0.00  0.00    +0.000 OA
ATOM      9  C   UNL     1     107.367 128.985 145.933  0.00  0.00    +0.000 C 
ATOM     10  C   UNL     1     108.164 128.995 145.720  0.00  0.00    +0.000 C 
ATOM     11  C   UNL     1     107.261 131.890 145.731  0.00  0.00    +0.000 A 
ATOM     12  C   UNL     1     107.323 130.411 145.832  0.00  0.00    +0.000 A 
ATOM     13  C   UNL     1     108.120 130.419 145.619  0.00  0.00    +0.000 A 
ATOM     14  C   UNL     1     108.540 129.712 145.563  0.00  0.00    +0.000 C 
ATOM     15  C   UNL     1     106.874 131.141 145.894  0.00  0.00    +0.000 A 
ATOM     16  C   UNL     1     108.092 131.900 145.509  0.00  0.00    +0.000 A 
ATOM     17  C   UNL     1     108.524 131.160 145.453  0.00  0.00    +0.000 A 
BRANCH  11  18
ATOM     18  O   UNL     1     106.839 132.597 145.788  0.00  0.00    +0.000 OA
BRANCH  18  26
ATOM     19  O   UNL     1     106.309 132.584 144.461  0.00  0.00    +0.000 OA
ATOM     20  O   UNL     1     106.563 135.042 144.336  0.00  0.00    +0.000 OA
ATOM     21  O   UNL     1     107.008 134.235 145.703  0.00  0.00    +0.000 OA
ATOM     22  O   UNL     1     105.948 134.210 143.050  0.00  0.00    +0.000 OA
ATOM     23  C   UNL     1     106.478 134.222 144.377  0.00  0.00    +0.000 C 
ATOM     24  C   UNL     1     106.701 133.819 145.061  0.00  0.00    +0.000 C 
ATOM     25  C   UNL     1     106.171 133.806 143.734  0.00  0.00    +0.000 C 
ATOM     26  C   UNL     1     106.616 133.000 145.103  0.00  0.00    +0.000 C 
ATOM     27  C   UNL     1     106.086 132.987 143.776  0.00  0.00    +0.000 C 
BRANCH  27  30
ATOM     28  O   UNL     1     104.973 132.394 143.103  0.00  0.00    +0.000 OA
ATOM     29  O   UNL     1     106.278 132.330 142.521  0.00  0.00    +0.000 OA
ATOM     30  C   UNL     1     105.779 132.570 143.134  0.00  0.00    +0.000 C 
ENDBRANCH  27  30
ENDBRANCH  18  26
ENDBRANCH  11  18
ENDBRANCH   4   9
BRANCH   1  31
ATOM     31  O   UNL     1     105.860 126.117 146.561  0.00  0.00    +0.000 OA
BRANCH  31  38
ATOM     32  O   UNL     1     106.943 125.579 147.323  0.00  0.00    +0.000 OA
ATOM     33  O   UNL     1     105.338 124.280 148.688  0.00  0.00    +0.000 OA
ATOM     34  O   UNL     1     106.956 124.176 148.993  0.00  0.00    +0.000 OA
ATOM     35  C   UNL     1     105.599 125.199 147.624  0.00  0.00    +0.000 C 
ATOM     36  C   UNL     1     105.873 124.713 148.233  0.00  0.00    +0.000 C 
ATOM     37  C   UNL     1     106.682 124.661 148.385  0.00  0.00    +0.000 C 
ATOM     38  C   UNL     1     106.134 125.632 147.169  0.00  0.00    +0.000 C 
ATOM     39  C   UNL     1     107.217 125.094 147.930  0.00  0.00    +0.000 C 
BRANCH  39  41
ATOM     40  O   UNL     1     108.568 125.114 147.466  0.00  0.00    +0.000 OA
ATOM     41  C   UNL     1     108.025 125.042 148.083  0.00  0.00    +0.000 C 
ENDBRANCH  39  41
BRANCH  35  42
ATOM     42  O   UNL     1     104.790 125.251 147.472  0.00  0.00    +0.000 OA
BRANCH  42  47
ATOM     43  O   UNL     1     104.803 124.081 146.582  0.00  0.00    +0.000 OA
ATOM     44  O   UNL     1     103.033 125.147 147.118  0.00  0.00    +0.000 OA
ATOM     45  C   UNL     1     103.497 124.003 146.319  0.00  0.00    +0.000 C 
ATOM     46  C   UNL     1     103.618 124.643 146.825  0.00  0.00    +0.000 C 
ATOM     47  C   UNL     1     104.425 124.691 146.988  0.00  0.00    +0.000 C 
ATOM     48  C   UNL     1     104.230 123.655 146.168  0.00  0.00    +0.000 C 
BRANCH  45  50
ATOM     49  O   UNL     1     103.473 123.237 145.112  0.00  0.00    +0.000 OA
ATOM     50  C   UNL     1     103.132 123.443 145.835  0.00  0.00    +0.000 C 
ENDBRANCH  45  50
BRANCH  45  51
ATOM     51  O   UNL     1     102.687 124.161 146.312  0.00  0.00    +0.000 OA
BRANCH  51  53
ATOM     52  O   UNL     1     102.309 123.090 147.180  0.00  0.00    +0.000 OA
ATOM     53  C   UNL     1     102.151 123.573 146.530  0.00  0.00    +0.000 C 
ATOM     54  C   UNL     1     101.457 123.467 146.096  0.00  0.00    +0.000 C 
ENDBRANCH  51  53
ENDBRANCH  45  51
ENDBRANCH  42  47
ENDBRANCH  35  42
ENDBRANCH  31  38
ENDBRANCH   1  31
TORSDOF 12
ENDMDL
MODEL 9
REMARK VINA RESULT:      -9.6      4.046      7.214
REMARK  Name = 131831501
REMARK  12 active torsions:
REMARK  status: ('A' for Active; 'I' for Inactive)
REMARK    1  A    between atoms: O_1  and  C_22
REMARK    2  A    between atoms: O_1  and  C_24
REMARK    3  A    between atoms: O_4  and  C_21
REMARK    4  A    between atoms: O_4  and  C_32
REMARK    5  A    between atoms: O_7  and  C_28
REMARK    6  A    between atoms: O_7  and  C_35
REMARK    7  A    between atoms: O_12  and  C_37
REMARK    8  A    between atoms: O_12  and  C_48
REMARK    9  A    between atoms: C_21  and  C_30
REMARK   10  A    between atoms: C_29  and  C_31
REMARK   11  A    between atoms: C_38  and  C_46
REMARK   12  A    between atoms: C_42  and  C_43
REMARK                            x       y       z     vdW  Elec       q    Type
REMARK                         _______ _______ _______ _____ _____    ______ ____
ROOT
ATOM      1  C   UNL     1     109.785 130.308 143.319  0.00  0.00    +0.000 A 
ATOM      2  C   UNL     1     109.293 130.243 142.659  0.00  0.00    +0.000 A 
ATOM      3  C   UNL     1     109.568 129.952 144.031  0.00  0.00    +0.000 A 
ATOM      4  C   UNL     1     108.369 129.468 143.425  0.00  0.00    +0.000 A 
ATOM      5  C   UNL     1     108.585 129.823 142.712  0.00  0.00    +0.000 A 
ATOM      6  C   UNL     1     108.860 129.533 144.084  0.00  0.00    +0.000 A 
ENDROOT
BRANCH   4   9
ATOM      7  O   UNL     1     107.673 128.229 143.579  0.00  0.00    +0.000 OA
ATOM      8  O   UNL     1     105.511 129.426 143.439  0.00  0.00    +0.000 OA
ATOM      9  C   UNL     1     107.661 129.048 143.479  0.00  0.00    +0.000 C 
ATOM     10  C   UNL     1     106.940 129.447 143.432  0.00  0.00    +0.000 C 
ATOM     11  C   UNL     1     106.257 126.514 143.792  0.00  0.00    +0.000 A 
ATOM     12  C   UNL     1     106.965 127.809 143.632  0.00  0.00    +0.000 A 
ATOM     13  C   UNL     1     106.244 128.209 143.585  0.00  0.00    +0.000 A 
ATOM     14  C   UNL     1     106.232 129.027 143.485  0.00  0.00    +0.000 C 
ATOM     15  C   UNL     1     106.991 126.956 143.736  0.00  0.00    +0.000 A 
ATOM     16  C   UNL     1     105.506 126.929 143.744  0.00  0.00    +0.000 A 
ATOM     17  C   UNL     1     105.499 127.782 143.640  0.00  0.00    +0.000 A 
BRANCH  11  18
ATOM     18  O   UNL     1     106.272 125.695 143.892  0.00  0.00    +0.000 OA
BRANCH  18  26
ATOM     19  O   UNL     1     106.600 125.648 145.282  0.00  0.00    +0.000 OA
ATOM     20  O   UNL     1     104.951 123.832 145.610  0.00  0.00    +0.000 OA
ATOM     21  O   UNL     1     105.173 124.485 144.111  0.00  0.00    +0.000 OA
ATOM     22  O   UNL     1     105.829 124.390 146.891  0.00  0.00    +0.000 OA
ATOM     23  C   UNL     1     105.501 124.438 145.501  0.00  0.00    +0.000 C 
ATOM     24  C   UNL     1     105.612 124.764 144.751  0.00  0.00    +0.000 C 
ATOM     25  C   UNL     1     105.940 124.717 146.141  0.00  0.00    +0.000 C 
ATOM     26  C   UNL     1     106.161 125.369 144.642  0.00  0.00    +0.000 C 
ATOM     27  C   UNL     1     106.490 125.322 146.032  0.00  0.00    +0.000 C 
BRANCH  27  30
ATOM     28  O   UNL     1     106.621 126.193 147.158  0.00  0.00    +0.000 OA
ATOM     29  O   UNL     1     107.678 125.288 146.826  0.00  0.00    +0.000 OA
ATOM     30  C   UNL     1     106.929 125.601 146.672  0.00  0.00    +0.000 C 
ENDBRANCH  27  30
ENDBRANCH  18  26
ENDBRANCH  11  18
ENDBRANCH   4   9
BRANCH   1  31
ATOM     31  O   UNL     1     110.494 130.727 143.265  0.00  0.00    +0.000 OA
BRANCH  31  38
ATOM     32  O   UNL     1     111.218 129.571 142.842  0.00  0.00    +0.000 OA
ATOM     33  O   UNL     1     112.951 131.024 141.837  0.00  0.00    +0.000 OA
ATOM     34  O   UNL     1     113.098 129.384 141.749  0.00  0.00    +0.000 OA
ATOM     35  C   UNL     1     111.722 130.876 142.551  0.00  0.00    +0.000 C 
ATOM     36  C   UNL     1     112.373 130.540 142.172  0.00  0.00    +0.000 C 
ATOM     37  C   UNL     1     112.446 129.719 142.128  0.00  0.00    +0.000 C 
ATOM     38  C   UNL     1     111.144 130.391 142.887  0.00  0.00    +0.000 C 
ATOM     39  C   UNL     1     111.869 129.235 142.464  0.00  0.00    +0.000 C 
BRANCH  39  41
ATOM     40  O   UNL     1     111.788 127.950 143.083  0.00  0.00    +0.000 OA
ATOM     41  C   UNL     1     111.943 128.415 142.420  0.00  0.00    +0.000 C 
ENDBRANCH  39  41
BRANCH  35  42
ATOM     42  O   UNL     1     111.649 131.696 142.595  0.00  0.00    +0.000 OA
BRANCH  42  47
ATOM     43  O   UNL     1     112.386 131.773 143.865  0.00  0.00    +0.000 OA
ATOM     44  O   UNL     1     111.694 133.481 142.787  0.00  0.00    +0.000 OA
ATOM     45  C   UNL     1     112.420 133.100 144.007  0.00  0.00    +0.000 C 
ATOM     46  C   UNL     1     112.018 132.928 143.307  0.00  0.00    +0.000 C 
ATOM     47  C   UNL     1     111.998 132.109 143.220  0.00  0.00    +0.000 C 
ATOM     48  C   UNL     1     112.648 132.385 144.352  0.00  0.00    +0.000 C 
BRANCH  45  50
ATOM     49  O   UNL     1     113.495 133.264 144.934  0.00  0.00    +0.000 OA
ATOM     50  C   UNL     1     112.769 133.512 144.631  0.00  0.00    +0.000 C 
ENDBRANCH  45  50
BRANCH  45  51
ATOM     51  O   UNL     1     112.311 133.907 143.872  0.00  0.00    +0.000 OA
BRANCH  51  53
ATOM     52  O   UNL     1     111.209 134.046 144.771  0.00  0.00    +0.000 OA
ATOM     53  C   UNL     1     111.881 134.360 144.410  0.00  0.00    +0.000 C 
ATOM     54  C   UNL     1     112.124 135.128 144.589  0.00  0.00    +0.000 C 
ENDBRANCH  51  53
ENDBRANCH  45  51
ENDBRANCH  42  47
ENDBRANCH  35  42
ENDBRANCH  31  38
ENDBRANCH   1  31
TORSDOF 12
ENDMDL
MODEL 10
REMARK VINA RESULT:      -9.6      1.658      2.705
REMARK  Name = 131831501
REMARK  12 active torsions:
REMARK  status: ('A' for Active; 'I' for Inactive)
REMARK    1  A    between atoms: O_1  and  C_22
REMARK    2  A    between atoms: O_1  and  C_24
REMARK    3  A    between atoms: O_4  and  C_21
REMARK    4  A    between atoms: O_4  and  C_32
REMARK    5  A    between atoms: O_7  and  C_28
REMARK    6  A    between atoms: O_7  and  C_35
REMARK    7  A    between atoms: O_12  and  C_37
REMARK    8  A    between atoms: O_12  and  C_48
REMARK    9  A    between atoms: C_21  and  C_30
REMARK   10  A    between atoms: C_29  and  C_31
REMARK   11  A    between atoms: C_38  and  C_46
REMARK   12  A    between atoms: C_42  and  C_43
REMARK                            x       y       z     vdW  Elec       q    Type
REMARK                         _______ _______ _______ _____ _____    ______ ____
ROOT
ATOM      1  C   UNL     1     112.239 129.649 142.393  0.00  0.00    +0.000 A 
ATOM      2  C   UNL     1     112.719 129.905 141.772  0.00  0.00    +0.000 A 
ATOM      3  C   UNL     1     112.050 128.849 142.464  0.00  0.00    +0.000 A 
ATOM      4  C   UNL     1     112.820 128.561 141.296  0.00  0.00    +0.000 A 
ATOM      5  C   UNL     1     113.010 129.361 141.224  0.00  0.00    +0.000 A 
ATOM      6  C   UNL     1     112.340 128.305 141.916  0.00  0.00    +0.000 A 
ENDROOT
BRANCH   4   9
ATOM      7  O   UNL     1     112.700 127.882 140.044  0.00  0.00    +0.000 OA
ATOM      8  O   UNL     1     114.801 126.658 140.509  0.00  0.00    +0.000 OA
ATOM      9  C   UNL     1     113.110 128.018 140.748  0.00  0.00    +0.000 C 
ATOM     10  C   UNL     1     113.810 127.609 140.902  0.00  0.00    +0.000 C 
ATOM     11  C   UNL     1     112.852 126.642 138.192  0.00  0.00    +0.000 A 
ATOM     12  C   UNL     1     112.991 127.339 139.495  0.00  0.00    +0.000 A 
ATOM     13  C   UNL     1     113.691 126.931 139.651  0.00  0.00    +0.000 A 
ATOM     14  C   UNL     1     114.100 127.066 140.353  0.00  0.00    +0.000 C 
ATOM     15  C   UNL     1     112.555 127.207 138.766  0.00  0.00    +0.000 A 
ATOM     16  C   UNL     1     113.581 126.217 138.353  0.00  0.00    +0.000 A 
ATOM     17  C   UNL     1     114.004 126.362 139.087  0.00  0.00    +0.000 A 
BRANCH  11  18
ATOM     18  O   UNL     1     112.441 126.508 137.489  0.00  0.00    +0.000 OA
BRANCH  18  26
ATOM     19  O   UNL     1     113.150 127.493 136.735  0.00  0.00    +0.000 OA
ATOM     20  O   UNL     1     111.119 127.927 135.391  0.00  0.00    +0.000 OA
ATOM     21  O   UNL     1     111.087 126.799 136.592  0.00  0.00    +0.000 OA
ATOM     22  O   UNL     1     112.506 128.767 135.084  0.00  0.00    +0.000 OA
ATOM     23  C   UNL     1     111.796 127.783 135.839  0.00  0.00    +0.000 C 
ATOM     24  C   UNL     1     111.780 127.218 136.440  0.00  0.00    +0.000 C 
ATOM     25  C   UNL     1     112.490 128.203 135.686  0.00  0.00    +0.000 C 
ATOM     26  C   UNL     1     112.457 127.073 136.888  0.00  0.00    +0.000 C 
ATOM     27  C   UNL     1     113.167 128.058 136.134  0.00  0.00    +0.000 C 
BRANCH  27  30
ATOM     28  O   UNL     1     114.442 128.152 135.495  0.00  0.00    +0.000 OA
ATOM     29  O   UNL     1     113.973 129.224 136.316  0.00  0.00    +0.000 OA
ATOM     30  C   UNL     1     113.861 128.477 135.981  0.00  0.00    +0.000 C 
ENDBRANCH  27  30
ENDBRANCH  18  26
ENDBRANCH  11  18
ENDBRANCH   4   9
BRANCH   1  31
ATOM     31  O   UNL     1     111.949 130.192 142.941  0.00  0.00    +0.000 OA
BRANCH  31  38
ATOM     32  O   UNL     1     110.765 130.462 142.188  0.00  0.00    +0.000 OA
ATOM     33  O   UNL     1     109.570 131.046 144.276  0.00  0.00    +0.000 OA
ATOM     34  O   UNL     1     108.785 131.121 142.827  0.00  0.00    +0.000 OA
ATOM     35  C   UNL     1     110.760 130.619 143.608  0.00  0.00    +0.000 C 
ATOM     36  C   UNL     1     109.968 130.851 143.580  0.00  0.00    +0.000 C 
ATOM     37  C   UNL     1     109.576 130.889 142.855  0.00  0.00    +0.000 C 
ATOM     38  C   UNL     1     111.158 130.424 142.913  0.00  0.00    +0.000 C 
ATOM     39  C   UNL     1     109.974 130.694 142.159  0.00  0.00    +0.000 C 
BRANCH  39  41
ATOM     40  O   UNL     1     109.812 131.285 140.869  0.00  0.00    +0.000 OA
ATOM     41  C   UNL     1     109.581 130.732 141.436  0.00  0.00    +0.000 C 
ENDBRANCH  39  41
BRANCH  35  42
ATOM     42  O   UNL     1     111.152 130.581 144.333  0.00  0.00    +0.000 OA
BRANCH  42  47
ATOM     43  O   UNL     1     111.535 132.000 144.286  0.00  0.00    +0.000 OA
ATOM     44  O   UNL     1     112.094 130.669 145.858  0.00  0.00    +0.000 OA
ATOM     45  C   UNL     1     112.236 132.065 145.421  0.00  0.00    +0.000 C 
ATOM     46  C   UNL     1     111.960 131.292 145.334  0.00  0.00    +0.000 C 
ATOM     47  C   UNL     1     111.527 131.253 144.634  0.00  0.00    +0.000 C 
ATOM     48  C   UNL     1     111.973 132.503 144.772  0.00  0.00    +0.000 C 
BRANCH  45  50
ATOM     49  O   UNL     1     113.029 133.237 145.215  0.00  0.00    +0.000 OA
ATOM     50  C   UNL     1     112.611 132.736 145.721  0.00  0.00    +0.000 C 
ENDBRANCH  45  50
BRANCH  45  51
ATOM     51  O   UNL     1     112.602 131.856 146.130  0.00  0.00    +0.000 OA
BRANCH  51  53
ATOM     52  O   UNL     1     111.679 132.598 146.930  0.00  0.00    +0.000 OA
ATOM     53  C   UNL     1     112.429 132.272 146.821  0.00  0.00    +0.000 C 
ATOM     54  C   UNL     1     113.007 132.363 147.402  0.00  0.00    +0.000 C 
ENDBRANCH  51  53
ENDBRANCH  45  51
ENDBRANCH  42  47
ENDBRANCH  35  42
ENDBRANCH  31  38
ENDBRANCH   1  31
TORSDOF 12
ENDMDL
