MODEL 1
REMARK VINA RESULT:      -8.8      0.000      0.000
REMARK  Name = 44258588
REMARK  2 active torsions:
REMARK  status: ('A' for Active; 'I' for Inactive)
REMARK    1  A    between atoms: O_6  and  C_21
REMARK    2  A    between atoms: C_9  and  C_10
REMARK                            x       y       z     vdW  Elec       q    Type
REMARK                         _______ _______ _______ _____ _____    ______ ____
ROOT
ATOM      1  O   UNL     1     105.568 124.475 147.830  0.00  0.00    +0.000 OA
ATOM      2  O   UNL     1     108.136 125.511 146.993  0.00  0.00    +0.000 OA
ATOM      3  O   UNL     1     106.243 124.093 149.294  0.00  0.00    +0.000 OA
ATOM      4  O   UNL     1     107.028 125.562 146.071  0.00  0.00    +0.000 OA
ATOM      5  O   UNL     1     107.831 124.409 149.612  0.00  0.00    +0.000 OA
ATOM      6  C   UNL     1     106.870 124.999 147.409  0.00  0.00    +0.000 A 
ATOM      7  C   UNL     1     106.396 124.644 147.984  0.00  0.00    +0.000 A 
ATOM      8  C   UNL     1     105.228 124.677 147.067  0.00  0.00    +0.000 A 
ATOM      9  C   UNL     1     106.547 125.208 146.640  0.00  0.00    +0.000 A 
ATOM     10  C   UNL     1     105.721 125.046 146.469  0.00  0.00    +0.000 A 
ATOM     11  C   UNL     1     107.663 125.156 147.568  0.00  0.00    +0.000 A 
ATOM     12  C   UNL     1     106.716 124.448 148.718  0.00  0.00    +0.000 A 
ATOM     13  C   UNL     1     107.510 124.606 148.877  0.00  0.00    +0.000 A 
ATOM     14  C   UNL     1     107.984 124.960 148.302  0.00  0.00    +0.000 A 
ENDROOT
BRANCH   8  15
ATOM     15  C   UNL     1     104.434 124.518 146.911  0.00  0.00    +0.000 A 
ATOM     16  C   UNL     1     103.850 125.037 147.173  0.00  0.00    +0.000 A 
ATOM     17  C   UNL     1     104.224 123.839 146.492  0.00  0.00    +0.000 A 
ATOM     18  C   UNL     1     103.055 124.878 147.016  0.00  0.00    +0.000 A 
ATOM     19  C   UNL     1     103.430 123.679 146.335  0.00  0.00    +0.000 A 
ATOM     20  C   UNL     1     102.845 124.199 146.597  0.00  0.00    +0.000 A 
BRANCH  20  21
ATOM     21  O   UNL     1     102.051 124.040 146.441  0.00  0.00    +0.000 OA
ATOM     22  C   UNL     1     101.475 124.227 147.000  0.00  0.00    +0.000 C 
ENDBRANCH  20  21
ENDBRANCH   8  15
TORSDOF 2
ENDMDL
MODEL 2
REMARK VINA RESULT:      -8.3      7.619      8.708
REMARK  Name = 44258588
REMARK  2 active torsions:
REMARK  status: ('A' for Active; 'I' for Inactive)
REMARK    1  A    between atoms: O_6  and  C_21
REMARK    2  A    between atoms: C_9  and  C_10
REMARK                            x       y       z     vdW  Elec       q    Type
REMARK                         _______ _______ _______ _____ _____    ______ ____
ROOT
ATOM      1  O   UNL     1     104.434 124.600 139.122  0.00  0.00    +0.000 OA
ATOM      2  O   UNL     1     106.348 123.807 141.141  0.00  0.00    +0.000 OA
ATOM      3  O   UNL     1     104.483 126.138 139.736  0.00  0.00    +0.000 OA
ATOM      4  O   UNL     1     105.869 122.818 140.207  0.00  0.00    +0.000 OA
ATOM      5  O   UNL     1     105.441 126.514 141.025  0.00  0.00    +0.000 OA
ATOM      6  C   UNL     1     105.403 124.201 140.146  0.00  0.00    +0.000 A 
ATOM      7  C   UNL     1     104.937 124.784 139.794  0.00  0.00    +0.000 A 
ATOM      8  C   UNL     1     104.416 123.799 138.812  0.00  0.00    +0.000 A 
ATOM      9  C   UNL     1     105.399 123.394 139.849  0.00  0.00    +0.000 A 
ATOM     10  C   UNL     1     104.902 123.193 139.178  0.00  0.00    +0.000 A 
ATOM     11  C   UNL     1     105.882 124.390 140.790  0.00  0.00    +0.000 A 
ATOM     12  C   UNL     1     104.949 125.555 140.087  0.00  0.00    +0.000 A 
ATOM     13  C   UNL     1     105.428 125.743 140.732  0.00  0.00    +0.000 A 
ATOM     14  C   UNL     1     105.895 125.160 141.083  0.00  0.00    +0.000 A 
ENDROOT
BRANCH   8  15
ATOM     15  C   UNL     1     103.936 123.614 138.168  0.00  0.00    +0.000 A 
ATOM     16  C   UNL     1     104.276 123.428 137.440  0.00  0.00    +0.000 A 
ATOM     17  C   UNL     1     103.115 123.614 138.251  0.00  0.00    +0.000 A 
ATOM     18  C   UNL     1     103.796 123.243 136.795  0.00  0.00    +0.000 A 
ATOM     19  C   UNL     1     102.634 123.429 137.606  0.00  0.00    +0.000 A 
ATOM     20  C   UNL     1     102.975 123.243 136.878  0.00  0.00    +0.000 A 
BRANCH  20  21
ATOM     21  O   UNL     1     102.495 123.057 136.233  0.00  0.00    +0.000 OA
ATOM     22  C   UNL     1     102.817 123.024 135.475  0.00  0.00    +0.000 C 
ENDBRANCH  20  21
ENDBRANCH   8  15
TORSDOF 2
ENDMDL
MODEL 3
REMARK VINA RESULT:      -8.2      7.947      8.910
REMARK  Name = 44258588
REMARK  2 active torsions:
REMARK  status: ('A' for Active; 'I' for Inactive)
REMARK    1  A    between atoms: O_6  and  C_21
REMARK    2  A    between atoms: C_9  and  C_10
REMARK                            x       y       z     vdW  Elec       q    Type
REMARK                         _______ _______ _______ _____ _____    ______ ____
ROOT
ATOM      1  O   UNL     1     102.990 130.456 142.212  0.00  0.00    +0.000 OA
ATOM      2  O   UNL     1     103.829 128.257 140.528  0.00  0.00    +0.000 OA
ATOM      3  O   UNL     1     103.962 129.856 143.412  0.00  0.00    +0.000 OA
ATOM      4  O   UNL     1     102.895 129.222 140.003  0.00  0.00    +0.000 OA
ATOM      5  O   UNL     1     104.854 128.486 143.187  0.00  0.00    +0.000 OA
ATOM      6  C   UNL     1     103.417 129.341 141.362  0.00  0.00    +0.000 A 
ATOM      7  C   UNL     1     103.450 129.741 142.082  0.00  0.00    +0.000 A 
ATOM      8  C   UNL     1     102.490 130.758 141.582  0.00  0.00    +0.000 A 
ATOM      9  C   UNL     1     102.922 129.628 140.720  0.00  0.00    +0.000 A 
ATOM     10  C   UNL     1     102.455 130.341 140.832  0.00  0.00    +0.000 A 
ATOM     11  C   UNL     1     103.862 128.657 141.249  0.00  0.00    +0.000 A 
ATOM     12  C   UNL     1     103.929 129.457 142.691  0.00  0.00    +0.000 A 
ATOM     13  C   UNL     1     104.374 128.772 142.578  0.00  0.00    +0.000 A 
ATOM     14  C   UNL     1     104.341 128.372 141.857  0.00  0.00    +0.000 A 
ENDROOT
BRANCH   8  15
ATOM     15  C   UNL     1     102.045 131.443 141.697  0.00  0.00    +0.000 A 
ATOM     16  C   UNL     1     102.373 132.181 141.531  0.00  0.00    +0.000 A 
ATOM     17  C   UNL     1     101.272 131.390 141.980  0.00  0.00    +0.000 A 
ATOM     18  C   UNL     1     101.928 132.866 141.646  0.00  0.00    +0.000 A 
ATOM     19  C   UNL     1     100.826 132.075 142.095  0.00  0.00    +0.000 A 
ATOM     20  C   UNL     1     101.155 132.813 141.928  0.00  0.00    +0.000 A 
BRANCH  20  21
ATOM     21  O   UNL     1     100.710 133.499 142.044  0.00  0.00    +0.000 OA
ATOM     22  C   UNL     1     100.915 134.195 141.652  0.00  0.00    +0.000 C 
ENDBRANCH  20  21
ENDBRANCH   8  15
TORSDOF 2
ENDMDL
MODEL 4
REMARK VINA RESULT:      -8.0     11.989     12.822
REMARK  Name = 44258588
REMARK  2 active torsions:
REMARK  status: ('A' for Active; 'I' for Inactive)
REMARK    1  A    between atoms: O_6  and  C_21
REMARK    2  A    between atoms: C_9  and  C_10
REMARK                            x       y       z     vdW  Elec       q    Type
REMARK                         _______ _______ _______ _____ _____    ______ ____
ROOT
ATOM      1  O   UNL     1     112.052 125.871 136.358  0.00  0.00    +0.000 OA
ATOM      2  O   UNL     1     113.328 123.377 137.081  0.00  0.00    +0.000 OA
ATOM      3  O   UNL     1     113.546 126.585 136.339  0.00  0.00    +0.000 OA
ATOM      4  O   UNL     1     111.894 123.409 136.928  0.00  0.00    +0.000 OA
ATOM      5  O   UNL     1     114.911 125.723 136.682  0.00  0.00    +0.000 OA
ATOM      6  C   UNL     1     112.701 124.609 136.724  0.00  0.00    +0.000 A 
ATOM      7  C   UNL     1     112.756 125.411 136.538  0.00  0.00    +0.000 A 
ATOM      8  C   UNL     1     111.282 125.490 136.370  0.00  0.00    +0.000 A 
ATOM      9  C   UNL     1     111.939 124.212 136.741  0.00  0.00    +0.000 A 
ATOM     10  C   UNL     1     111.225 124.655 136.563  0.00  0.00    +0.000 A 
ATOM     11  C   UNL     1     113.383 124.179 136.895  0.00  0.00    +0.000 A 
ATOM     12  C   UNL     1     113.492 125.783 136.524  0.00  0.00    +0.000 A 
ATOM     13  C   UNL     1     114.174 125.351 136.696  0.00  0.00    +0.000 A 
ATOM     14  C   UNL     1     114.119 124.549 136.881  0.00  0.00    +0.000 A 
ENDROOT
BRANCH   8  15
ATOM     15  C   UNL     1     110.602 125.924 136.198  0.00  0.00    +0.000 A 
ATOM     16  C   UNL     1     110.328 125.972 135.422  0.00  0.00    +0.000 A 
ATOM     17  C   UNL     1     110.194 126.309 136.803  0.00  0.00    +0.000 A 
ATOM     18  C   UNL     1     109.647 126.405 135.250  0.00  0.00    +0.000 A 
ATOM     19  C   UNL     1     109.513 126.743 136.632  0.00  0.00    +0.000 A 
ATOM     20  C   UNL     1     109.240 126.791 135.855  0.00  0.00    +0.000 A 
BRANCH  20  21
ATOM     21  O   UNL     1     108.559 127.224 135.683  0.00  0.00    +0.000 OA
ATOM     22  C   UNL     1     108.567 128.047 135.742  0.00  0.00    +0.000 C 
ENDBRANCH  20  21
ENDBRANCH   8  15
TORSDOF 2
ENDMDL
MODEL 5
REMARK VINA RESULT:      -8.0      1.369      2.580
REMARK  Name = 44258588
REMARK  2 active torsions:
REMARK  status: ('A' for Active; 'I' for Inactive)
REMARK    1  A    between atoms: O_6  and  C_21
REMARK    2  A    between atoms: C_9  and  C_10
REMARK                            x       y       z     vdW  Elec       q    Type
REMARK                         _______ _______ _______ _____ _____    ______ ____
ROOT
ATOM      1  O   UNL     1     104.404 124.548 145.763  0.00  0.00    +0.000 OA
ATOM      2  O   UNL     1     106.562 125.196 147.579  0.00  0.00    +0.000 OA
ATOM      3  O   UNL     1     105.248 125.301 144.553  0.00  0.00    +0.000 OA
ATOM      4  O   UNL     1     105.420 124.472 148.081  0.00  0.00    +0.000 OA
ATOM      5  O   UNL     1     106.720 125.990 144.838  0.00  0.00    +0.000 OA
ATOM      6  C   UNL     1     105.498 124.877 146.680  0.00  0.00    +0.000 A 
ATOM      7  C   UNL     1     105.170 124.904 145.924  0.00  0.00    +0.000 A 
ATOM      8  C   UNL     1     103.975 124.160 146.398  0.00  0.00    +0.000 A 
ATOM      9  C   UNL     1     105.083 124.494 147.328  0.00  0.00    +0.000 A 
ATOM     10  C   UNL     1     104.317 124.133 147.186  0.00  0.00    +0.000 A 
ATOM     11  C   UNL     1     106.233 125.222 146.822  0.00  0.00    +0.000 A 
ATOM     12  C   UNL     1     105.577 125.274 145.310  0.00  0.00    +0.000 A 
ATOM     13  C   UNL     1     106.312 125.619 145.453  0.00  0.00    +0.000 A 
ATOM     14  C   UNL     1     106.641 125.593 146.209  0.00  0.00    +0.000 A 
ENDROOT
BRANCH   8  15
ATOM     15  C   UNL     1     103.239 123.816 146.253  0.00  0.00    +0.000 A 
ATOM     16  C   UNL     1     102.549 124.204 146.485  0.00  0.00    +0.000 A 
ATOM     17  C   UNL     1     103.193 123.084 145.876  0.00  0.00    +0.000 A 
ATOM     18  C   UNL     1     101.813 123.860 146.340  0.00  0.00    +0.000 A 
ATOM     19  C   UNL     1     102.458 122.739 145.730  0.00  0.00    +0.000 A 
ATOM     20  C   UNL     1     101.768 123.128 145.962  0.00  0.00    +0.000 A 
BRANCH  20  21
ATOM     21  O   UNL     1     101.032 122.784 145.817  0.00  0.00    +0.000 OA
ATOM     22  C   UNL     1     100.734 122.754 145.049  0.00  0.00    +0.000 C 
ENDBRANCH  20  21
ENDBRANCH   8  15
TORSDOF 2
ENDMDL
MODEL 6
REMARK VINA RESULT:      -7.9      1.095      4.530
REMARK  Name = 44258588
REMARK  2 active torsions:
REMARK  status: ('A' for Active; 'I' for Inactive)
REMARK    1  A    between atoms: O_6  and  C_21
REMARK    2  A    between atoms: C_9  and  C_10
REMARK                            x       y       z     vdW  Elec       q    Type
REMARK                         _______ _______ _______ _____ _____    ______ ____
ROOT
ATOM      1  O   UNL     1     104.581 123.995 146.794  0.00  0.00    +0.000 OA
ATOM      2  O   UNL     1     101.774 124.627 147.097  0.00  0.00    +0.000 OA
ATOM      3  O   UNL     1     104.174 122.950 145.576  0.00  0.00    +0.000 OA
ATOM      4  O   UNL     1     102.733 125.278 147.956  0.00  0.00    +0.000 OA
ATOM      5  O   UNL     1     102.603 122.739 145.118  0.00  0.00    +0.000 OA
ATOM      6  C   UNL     1     103.159 124.313 146.945  0.00  0.00    +0.000 A 
ATOM      7  C   UNL     1     103.759 123.894 146.565  0.00  0.00    +0.000 A 
ATOM      8  C   UNL     1     104.781 124.540 147.427  0.00  0.00    +0.000 A 
ATOM      9  C   UNL     1     103.340 124.863 147.581  0.00  0.00    +0.000 A 
ATOM     10  C   UNL     1     104.156 124.977 147.824  0.00  0.00    +0.000 A 
ATOM     11  C   UNL     1     102.374 124.208 146.717  0.00  0.00    +0.000 A 
ATOM     12  C   UNL     1     103.574 123.369 145.956  0.00  0.00    +0.000 A 
ATOM     13  C   UNL     1     102.788 123.264 145.728  0.00  0.00    +0.000 A 
ATOM     14  C   UNL     1     102.188 123.683 146.108  0.00  0.00    +0.000 A 
ENDROOT
BRANCH   8  15
ATOM     15  C   UNL     1     105.567 124.644 147.654  0.00  0.00    +0.000 A 
ATOM     16  C   UNL     1     105.852 124.278 148.336  0.00  0.00    +0.000 A 
ATOM     17  C   UNL     1     106.069 125.114 147.198  0.00  0.00    +0.000 A 
ATOM     18  C   UNL     1     106.638 124.382 148.562  0.00  0.00    +0.000 A 
ATOM     19  C   UNL     1     106.856 125.218 147.424  0.00  0.00    +0.000 A 
ATOM     20  C   UNL     1     107.141 124.852 148.107  0.00  0.00    +0.000 A 
BRANCH  20  21
ATOM     21  O   UNL     1     107.927 124.955 148.333  0.00  0.00    +0.000 OA
ATOM     22  C   UNL     1     108.218 124.573 149.003  0.00  0.00    +0.000 C 
ENDBRANCH  20  21
ENDBRANCH   8  15
TORSDOF 2
ENDMDL
MODEL 7
REMARK VINA RESULT:      -7.9     12.033     13.199
REMARK  Name = 44258588
REMARK  2 active torsions:
REMARK  status: ('A' for Active; 'I' for Inactive)
REMARK    1  A    between atoms: O_6  and  C_21
REMARK    2  A    between atoms: C_9  and  C_10
REMARK                            x       y       z     vdW  Elec       q    Type
REMARK                         _______ _______ _______ _____ _____    ______ ____
ROOT
ATOM      1  O   UNL     1     110.590 127.326 135.767  0.00  0.00    +0.000 OA
ATOM      2  O   UNL     1     108.072 128.751 135.766  0.00  0.00    +0.000 OA
ATOM      3  O   UNL     1     111.322 128.699 135.199  0.00  0.00    +0.000 OA
ATOM      4  O   UNL     1     108.096 127.376 136.199  0.00  0.00    +0.000 OA
ATOM      5  O   UNL     1     110.458 130.076 134.917  0.00  0.00    +0.000 OA
ATOM      6  C   UNL     1     109.316 128.050 135.765  0.00  0.00    +0.000 A 
ATOM      7  C   UNL     1     110.129 128.037 135.624  0.00  0.00    +0.000 A 
ATOM      8  C   UNL     1     110.200 126.620 136.061  0.00  0.00    +0.000 A 
ATOM      9  C   UNL     1     108.909 127.353 136.060  0.00  0.00    +0.000 A 
ATOM     10  C   UNL     1     109.354 126.634 136.209  0.00  0.00    +0.000 A 
ATOM     11  C   UNL     1     108.884 128.738 135.624  0.00  0.00    +0.000 A 
ATOM     12  C   UNL     1     110.510 128.712 135.341  0.00  0.00    +0.000 A 
ATOM     13  C   UNL     1     110.077 129.400 135.200  0.00  0.00    +0.000 A 
ATOM     14  C   UNL     1     109.264 129.413 135.342  0.00  0.00    +0.000 A 
ENDROOT
BRANCH   8  15
ATOM     15  C   UNL     1     110.634 125.933 136.202  0.00  0.00    +0.000 A 
ATOM     16  C   UNL     1     110.922 125.773 136.958  0.00  0.00    +0.000 A 
ATOM     17  C   UNL     1     110.782 125.405 135.585  0.00  0.00    +0.000 A 
ATOM     18  C   UNL     1     111.356 125.086 137.098  0.00  0.00    +0.000 A 
ATOM     19  C   UNL     1     111.217 124.718 135.724  0.00  0.00    +0.000 A 
ATOM     20  C   UNL     1     111.504 124.559 136.481  0.00  0.00    +0.000 A 
BRANCH  20  21
ATOM     21  O   UNL     1     111.939 123.872 136.622  0.00  0.00    +0.000 OA
ATOM     22  C   UNL     1     112.740 123.921 136.812  0.00  0.00    +0.000 C 
ENDBRANCH  20  21
ENDBRANCH   8  15
TORSDOF 2
ENDMDL
MODEL 8
REMARK VINA RESULT:      -7.8     13.008     13.966
REMARK  Name = 44258588
REMARK  2 active torsions:
REMARK  status: ('A' for Active; 'I' for Inactive)
REMARK    1  A    between atoms: O_6  and  C_21
REMARK    2  A    between atoms: C_9  and  C_10
REMARK                            x       y       z     vdW  Elec       q    Type
REMARK                         _______ _______ _______ _____ _____    ______ ____
ROOT
ATOM      1  O   UNL     1     112.811 126.429 136.357  0.00  0.00    +0.000 OA
ATOM      2  O   UNL     1     113.977 123.958 137.309  0.00  0.00    +0.000 OA
ATOM      3  O   UNL     1     111.475 125.571 135.886  0.00  0.00    +0.000 OA
ATOM      4  O   UNL     1     114.726 125.183 137.448  0.00  0.00    +0.000 OA
ATOM      5  O   UNL     1     111.380 123.940 136.116  0.00  0.00    +0.000 OA
ATOM      6  C   UNL     1     113.399 125.176 136.838  0.00  0.00    +0.000 A 
ATOM      7  C   UNL     1     112.774 125.579 136.482  0.00  0.00    +0.000 A 
ATOM      8  C   UNL     1     113.509 126.864 136.606  0.00  0.00    +0.000 A 
ATOM      9  C   UNL     1     114.105 125.595 137.093  0.00  0.00    +0.000 A 
ATOM     10  C   UNL     1     114.160 126.444 136.976  0.00  0.00    +0.000 A 
ATOM     11  C   UNL     1     113.352 124.361 136.953  0.00  0.00    +0.000 A 
ATOM     12  C   UNL     1     112.101 125.168 136.242  0.00  0.00    +0.000 A 
ATOM     13  C   UNL     1     112.054 124.352 136.357  0.00  0.00    +0.000 A 
ATOM     14  C   UNL     1     112.679 123.949 136.713  0.00  0.00    +0.000 A 
ENDROOT
BRANCH   8  15
ATOM     15  C   UNL     1     113.554 127.679 136.490  0.00  0.00    +0.000 A 
ATOM     16  C   UNL     1     113.232 128.194 137.047  0.00  0.00    +0.000 A 
ATOM     17  C   UNL     1     113.921 127.980 135.815  0.00  0.00    +0.000 A 
ATOM     18  C   UNL     1     113.277 129.010 136.931  0.00  0.00    +0.000 A 
ATOM     19  C   UNL     1     113.966 128.796 135.698  0.00  0.00    +0.000 A 
ATOM     20  C   UNL     1     113.643 129.311 136.256  0.00  0.00    +0.000 A 
BRANCH  20  21
ATOM     21  O   UNL     1     113.688 130.126 136.140  0.00  0.00    +0.000 OA
ATOM     22  C   UNL     1     114.335 130.549 136.426  0.00  0.00    +0.000 C 
ENDBRANCH  20  21
ENDBRANCH   8  15
TORSDOF 2
ENDMDL
MODEL 9
REMARK VINA RESULT:      -7.7     10.607     12.342
REMARK  Name = 44258588
REMARK  2 active torsions:
REMARK  status: ('A' for Active; 'I' for Inactive)
REMARK    1  A    between atoms: O_6  and  C_21
REMARK    2  A    between atoms: C_9  and  C_10
REMARK                            x       y       z     vdW  Elec       q    Type
REMARK                         _______ _______ _______ _____ _____    ______ ____
ROOT
ATOM      1  O   UNL     1     112.677 125.998 138.445  0.00  0.00    +0.000 OA
ATOM      2  O   UNL     1     114.098 124.278 136.602  0.00  0.00    +0.000 OA
ATOM      3  O   UNL     1     111.254 125.422 137.823  0.00  0.00    +0.000 OA
ATOM      4  O   UNL     1     114.855 125.114 137.502  0.00  0.00    +0.000 OA
ATOM      5  O   UNL     1     111.241 124.298 136.615  0.00  0.00    +0.000 OA
ATOM      6  C   UNL     1     113.394 125.126 137.510  0.00  0.00    +0.000 A 
ATOM      7  C   UNL     1     112.683 125.412 137.815  0.00  0.00    +0.000 A 
ATOM      8  C   UNL     1     113.422 126.289 138.759  0.00  0.00    +0.000 A 
ATOM      9  C   UNL     1     114.149 125.406 137.813  0.00  0.00    +0.000 A 
ATOM     10  C   UNL     1     114.162 125.991 138.442  0.00  0.00    +0.000 A 
ATOM     11  C   UNL     1     113.387 124.564 136.907  0.00  0.00    +0.000 A 
ATOM     12  C   UNL     1     111.965 125.136 137.517  0.00  0.00    +0.000 A 
ATOM     13  C   UNL     1     111.959 124.574 136.914  0.00  0.00    +0.000 A 
ATOM     14  C   UNL     1     112.670 124.288 136.609  0.00  0.00    +0.000 A 
ENDROOT
BRANCH   8  15
ATOM     15  C   UNL     1     113.426 126.851 139.363  0.00  0.00    +0.000 A 
ATOM     16  C   UNL     1     113.516 126.614 140.148  0.00  0.00    +0.000 A 
ATOM     17  C   UNL     1     113.339 127.651 139.182  0.00  0.00    +0.000 A 
ATOM     18  C   UNL     1     113.520 127.176 140.752  0.00  0.00    +0.000 A 
ATOM     19  C   UNL     1     113.342 128.214 139.786  0.00  0.00    +0.000 A 
ATOM     20  C   UNL     1     113.433 127.976 140.571  0.00  0.00    +0.000 A 
BRANCH  20  21
ATOM     21  O   UNL     1     113.437 128.539 141.174  0.00  0.00    +0.000 OA
ATOM     22  C   UNL     1     112.725 128.832 141.470  0.00  0.00    +0.000 C 
ENDBRANCH  20  21
ENDBRANCH   8  15
TORSDOF 2
ENDMDL
MODEL 10
REMARK VINA RESULT:      -7.7      1.591      2.972
REMARK  Name = 44258588
REMARK  2 active torsions:
REMARK  status: ('A' for Active; 'I' for Inactive)
REMARK    1  A    between atoms: O_6  and  C_21
REMARK    2  A    between atoms: C_9  and  C_10
REMARK                            x       y       z     vdW  Elec       q    Type
REMARK                         _______ _______ _______ _____ _____    ______ ____
ROOT
ATOM      1  O   UNL     1     106.817 125.215 146.803  0.00  0.00    +0.000 OA
ATOM      2  O   UNL     1     105.683 124.328 149.312  0.00  0.00    +0.000 OA
ATOM      3  O   UNL     1     108.319 125.130 147.496  0.00  0.00    +0.000 OA
ATOM      4  O   UNL     1     104.800 124.598 148.204  0.00  0.00    +0.000 OA
ATOM      5  O   UNL     1     108.511 124.654 149.065  0.00  0.00    +0.000 OA
ATOM      6  C   UNL     1     106.245 124.766 148.075  0.00  0.00    +0.000 A 
ATOM      7  C   UNL     1     106.904 124.966 147.621  0.00  0.00    +0.000 A 
ATOM      8  C   UNL     1     106.033 125.256 146.454  0.00  0.00    +0.000 A 
ATOM      9  C   UNL     1     105.453 124.801 147.742  0.00  0.00    +0.000 A 
ATOM     10  C   UNL     1     105.347 125.047 146.926  0.00  0.00    +0.000 A 
ATOM     11  C   UNL     1     106.342 124.528 148.858  0.00  0.00    +0.000 A 
ATOM     12  C   UNL     1     107.660 124.929 147.950  0.00  0.00    +0.000 A 
ATOM     13  C   UNL     1     107.755 124.692 148.734  0.00  0.00    +0.000 A 
ATOM     14  C   UNL     1     107.096 124.491 149.188  0.00  0.00    +0.000 A 
ENDROOT
BRANCH   8  15
ATOM     15  C   UNL     1     105.940 125.494 145.669  0.00  0.00    +0.000 A 
ATOM     16  C   UNL     1     105.916 124.931 145.067  0.00  0.00    +0.000 A 
ATOM     17  C   UNL     1     105.870 126.296 145.487  0.00  0.00    +0.000 A 
ATOM     18  C   UNL     1     105.822 125.169 144.282  0.00  0.00    +0.000 A 
ATOM     19  C   UNL     1     105.777 126.535 144.702  0.00  0.00    +0.000 A 
ATOM     20  C   UNL     1     105.753 125.971 144.100  0.00  0.00    +0.000 A 
BRANCH  20  21
ATOM     21  O   UNL     1     105.660 126.209 143.316  0.00  0.00    +0.000 OA
ATOM     22  C   UNL     1     106.322 126.361 142.849  0.00  0.00    +0.000 C 
ENDBRANCH  20  21
ENDBRANCH   8  15
TORSDOF 2
ENDMDL
