MODEL 1
REMARK VINA RESULT:      -8.7      0.000      0.000
REMARK  Name = 44258730
REMARK  2 active torsions:
REMARK  status: ('A' for Active; 'I' for Inactive)
REMARK    1  A    between atoms: O_2  and  C_11
REMARK    2  A    between atoms: C_9  and  C_14
REMARK                            x       y       z     vdW  Elec       q    Type
REMARK                         _______ _______ _______ _____ _____    ______ ____
ROOT
ATOM      1  O   UNL     1     105.586 124.507 147.836  0.00  0.00    +0.000 OA
ATOM      2  O   UNL     1     108.123 125.538 146.916  0.00  0.00    +0.000 OA
ATOM      3  O   UNL     1     107.893 124.440 149.612  0.00  0.00    +0.000 OA
ATOM      4  O   UNL     1     106.960 125.555 146.063  0.00  0.00    +0.000 OA
ATOM      5  C   UNL     1     106.383 124.667 147.973  0.00  0.00    +0.000 A 
ATOM      6  C   UNL     1     106.841 125.016 147.382  0.00  0.00    +0.000 A 
ATOM      7  C   UNL     1     106.726 124.466 148.735  0.00  0.00    +0.000 A 
ATOM      8  C   UNL     1     105.246 124.696 147.108  0.00  0.00    +0.000 A 
ATOM      9  C   UNL     1     106.501 125.205 146.655  0.00  0.00    +0.000 A 
ATOM     10  C   UNL     1     105.704 125.045 146.517  0.00  0.00    +0.000 A 
ATOM     11  C   UNL     1     107.673 125.188 147.513  0.00  0.00    +0.000 A 
ATOM     12  C   UNL     1     107.556 124.630 148.883  0.00  0.00    +0.000 A 
ATOM     13  C   UNL     1     108.032 124.994 148.268  0.00  0.00    +0.000 A 
ATOM     14  C   UNL     1     106.260 124.117 149.320  0.00  0.00    +0.000 C 
ENDROOT
BRANCH   8  15
ATOM     15  C   UNL     1     104.449 124.536 146.971  0.00  0.00    +0.000 A 
ATOM     16  C   UNL     1     104.227 123.845 146.578  0.00  0.00    +0.000 A 
ATOM     17  C   UNL     1     103.871 125.068 147.227  0.00  0.00    +0.000 A 
ATOM     18  C   UNL     1     103.430 123.685 146.441  0.00  0.00    +0.000 A 
ATOM     19  C   UNL     1     103.073 124.907 147.090  0.00  0.00    +0.000 A 
ATOM     20  C   UNL     1     102.853 124.217 146.697  0.00  0.00    +0.000 A 
ENDBRANCH   8  15
BRANCH  10  21
ATOM     21  O   UNL     1     105.364 125.234 145.790  0.00  0.00    +0.000 OA
ATOM     22  C   UNL     1     105.680 125.846 145.334  0.00  0.00    +0.000 C 
ENDBRANCH  10  21
TORSDOF 2
ENDMDL
MODEL 2
REMARK VINA RESULT:      -8.6     12.390     13.380
REMARK  Name = 44258730
REMARK  2 active torsions:
REMARK  status: ('A' for Active; 'I' for Inactive)
REMARK    1  A    between atoms: O_2  and  C_11
REMARK    2  A    between atoms: C_9  and  C_14
REMARK                            x       y       z     vdW  Elec       q    Type
REMARK                         _______ _______ _______ _____ _____    ______ ____
ROOT
ATOM      1  O   UNL     1     112.458 126.400 136.216  0.00  0.00    +0.000 OA
ATOM      2  O   UNL     1     109.980 125.413 135.107  0.00  0.00    +0.000 OA
ATOM      3  O   UNL     1     110.630 128.253 134.911  0.00  0.00    +0.000 OA
ATOM      4  O   UNL     1     110.909 124.524 135.761  0.00  0.00    +0.000 OA
ATOM      5  C   UNL     1     111.749 126.539 135.819  0.00  0.00    +0.000 A 
ATOM      6  C   UNL     1     111.233 125.913 135.667  0.00  0.00    +0.000 A 
ATOM      7  C   UNL     1     111.559 127.339 135.568  0.00  0.00    +0.000 A 
ATOM      8  C   UNL     1     112.653 125.637 136.461  0.00  0.00    +0.000 A 
ATOM      9  C   UNL     1     111.426 125.150 135.912  0.00  0.00    +0.000 A 
ATOM     10  C   UNL     1     112.136 125.011 136.310  0.00  0.00    +0.000 A 
ATOM     11  C   UNL     1     110.490 126.045 135.255  0.00  0.00    +0.000 A 
ATOM     12  C   UNL     1     110.821 127.489 135.155  0.00  0.00    +0.000 A 
ATOM     13  C   UNL     1     110.283 126.838 134.997  0.00  0.00    +0.000 A 
ATOM     14  C   UNL     1     112.081 127.958 135.725  0.00  0.00    +0.000 C 
ENDROOT
BRANCH   8  15
ATOM     15  C   UNL     1     113.362 125.498 136.858  0.00  0.00    +0.000 A 
ATOM     16  C   UNL     1     114.025 125.238 136.441  0.00  0.00    +0.000 A 
ATOM     17  C   UNL     1     113.409 125.620 137.674  0.00  0.00    +0.000 A 
ATOM     18  C   UNL     1     114.734 125.100 136.837  0.00  0.00    +0.000 A 
ATOM     19  C   UNL     1     114.119 125.481 138.070  0.00  0.00    +0.000 A 
ATOM     20  C   UNL     1     114.781 125.222 137.653  0.00  0.00    +0.000 A 
ENDBRANCH   8  15
BRANCH  10  21
ATOM     21  O   UNL     1     112.330 124.248 136.555  0.00  0.00    +0.000 OA
ATOM     22  C   UNL     1     111.734 123.687 136.667  0.00  0.00    +0.000 C 
ENDBRANCH  10  21
TORSDOF 2
ENDMDL
MODEL 3
REMARK VINA RESULT:      -8.4     12.512     13.479
REMARK  Name = 44258730
REMARK  2 active torsions:
REMARK  status: ('A' for Active; 'I' for Inactive)
REMARK    1  A    between atoms: O_2  and  C_11
REMARK    2  A    between atoms: C_9  and  C_14
REMARK                            x       y       z     vdW  Elec       q    Type
REMARK                         _______ _______ _______ _____ _____    ______ ____
ROOT
ATOM      1  O   UNL     1     112.115 125.860 136.184  0.00  0.00    +0.000 OA
ATOM      2  O   UNL     1     110.946 128.238 135.034  0.00  0.00    +0.000 OA
ATOM      3  O   UNL     1     109.571 125.675 134.778  0.00  0.00    +0.000 OA
ATOM      4  O   UNL     1     112.204 128.293 135.736  0.00  0.00    +0.000 OA
ATOM      5  C   UNL     1     111.506 126.224 135.764  0.00  0.00    +0.000 A 
ATOM      6  C   UNL     1     111.536 127.035 135.615  0.00  0.00    +0.000 A 
ATOM      7  C   UNL     1     110.846 125.749 135.486  0.00  0.00    +0.000 A 
ATOM      8  C   UNL     1     112.754 126.305 136.455  0.00  0.00    +0.000 A 
ATOM      9  C   UNL     1     112.174 127.481 135.886  0.00  0.00    +0.000 A 
ATOM     10  C   UNL     1     112.784 127.116 136.306  0.00  0.00    +0.000 A 
ATOM     11  C   UNL     1     110.907 127.427 135.178  0.00  0.00    +0.000 A 
ATOM     12  C   UNL     1     110.209 126.123 135.048  0.00  0.00    +0.000 A 
ATOM     13  C   UNL     1     110.240 126.968 134.893  0.00  0.00    +0.000 A 
ATOM     14  C   UNL     1     110.824 124.939 135.640  0.00  0.00    +0.000 C 
ENDROOT
BRANCH   8  15
ATOM     15  C   UNL     1     113.362 125.941 136.875  0.00  0.00    +0.000 A 
ATOM     16  C   UNL     1     113.982 125.574 136.472  0.00  0.00    +0.000 A 
ATOM     17  C   UNL     1     113.353 125.943 137.701  0.00  0.00    +0.000 A 
ATOM     18  C   UNL     1     114.590 125.210 136.892  0.00  0.00    +0.000 A 
ATOM     19  C   UNL     1     113.962 125.578 138.121  0.00  0.00    +0.000 A 
ATOM     20  C   UNL     1     114.580 125.212 137.717  0.00  0.00    +0.000 A 
ENDBRANCH   8  15
BRANCH  10  21
ATOM     21  O   UNL     1     113.422 127.562 136.577  0.00  0.00    +0.000 OA
ATOM     22  C   UNL     1     113.615 128.275 136.208  0.00  0.00    +0.000 C 
ENDBRANCH  10  21
TORSDOF 2
ENDMDL
MODEL 4
REMARK VINA RESULT:      -8.3     11.088     12.442
REMARK  Name = 44258730
REMARK  2 active torsions:
REMARK  status: ('A' for Active; 'I' for Inactive)
REMARK    1  A    between atoms: O_2  and  C_11
REMARK    2  A    between atoms: C_9  and  C_14
REMARK                            x       y       z     vdW  Elec       q    Type
REMARK                         _______ _______ _______ _____ _____    ______ ____
ROOT
ATOM      1  O   UNL     1     112.438 125.654 136.407  0.00  0.00    +0.000 OA
ATOM      2  O   UNL     1     113.295 126.646 138.982  0.00  0.00    +0.000 OA
ATOM      3  O   UNL     1     114.948 124.714 137.546  0.00  0.00    +0.000 OA
ATOM      4  O   UNL     1     112.058 127.090 138.387  0.00  0.00    +0.000 OA
ATOM      5  C   UNL     1     112.989 125.665 137.020  0.00  0.00    +0.000 A 
ATOM      6  C   UNL     1     112.863 126.144 137.680  0.00  0.00    +0.000 A 
ATOM      7  C   UNL     1     113.692 125.174 136.960  0.00  0.00    +0.000 A 
ATOM      8  C   UNL     1     111.760 126.121 136.453  0.00  0.00    +0.000 A 
ATOM      9  C   UNL     1     112.185 126.611 137.726  0.00  0.00    +0.000 A 
ATOM     10  C   UNL     1     111.633 126.600 137.113  0.00  0.00    +0.000 A 
ATOM     11  C   UNL     1     113.430 126.164 138.326  0.00  0.00    +0.000 A 
ATOM     12  C   UNL     1     114.270 125.182 137.595  0.00  0.00    +0.000 A 
ATOM     13  C   UNL     1     114.138 125.680 138.283  0.00  0.00    +0.000 A 
ATOM     14  C   UNL     1     113.811 124.699 136.296  0.00  0.00    +0.000 C 
ENDROOT
BRANCH   8  15
ATOM     15  C   UNL     1     111.208 126.110 135.840  0.00  0.00    +0.000 A 
ATOM     16  C   UNL     1     110.639 125.514 135.807  0.00  0.00    +0.000 A 
ATOM     17  C   UNL     1     111.226 126.696 135.258  0.00  0.00    +0.000 A 
ATOM     18  C   UNL     1     110.087 125.503 135.194  0.00  0.00    +0.000 A 
ATOM     19  C   UNL     1     110.674 126.685 134.645  0.00  0.00    +0.000 A 
ATOM     20  C   UNL     1     110.105 126.089 134.613  0.00  0.00    +0.000 A 
ENDBRANCH   8  15
BRANCH  10  21
ATOM     21  O   UNL     1     110.955 127.066 137.159  0.00  0.00    +0.000 OA
ATOM     22  C   UNL     1     110.672 127.312 137.896  0.00  0.00    +0.000 C 
ENDBRANCH  10  21
TORSDOF 2
ENDMDL
MODEL 5
REMARK VINA RESULT:      -8.2      9.951     11.595
REMARK  Name = 44258730
REMARK  2 active torsions:
REMARK  status: ('A' for Active; 'I' for Inactive)
REMARK    1  A    between atoms: O_2  and  C_11
REMARK    2  A    between atoms: C_9  and  C_14
REMARK                            x       y       z     vdW  Elec       q    Type
REMARK                         _______ _______ _______ _____ _____    ______ ____
ROOT
ATOM      1  O   UNL     1     113.566 126.316 138.897  0.00  0.00    +0.000 OA
ATOM      2  O   UNL     1     110.926 126.226 140.064  0.00  0.00    +0.000 OA
ATOM      3  O   UNL     1     113.102 127.548 141.494  0.00  0.00    +0.000 OA
ATOM      4  O   UNL     1     111.192 125.627 138.780  0.00  0.00    +0.000 OA
ATOM      5  C   UNL     1     113.053 126.502 139.514  0.00  0.00    +0.000 A 
ATOM      6  C   UNL     1     112.261 126.272 139.475  0.00  0.00    +0.000 A 
ATOM      7  C   UNL     1     113.353 126.936 140.192  0.00  0.00    +0.000 A 
ATOM      8  C   UNL     1     113.290 125.900 138.240  0.00  0.00    +0.000 A 
ATOM      9  C   UNL     1     111.985 125.856 138.819  0.00  0.00    +0.000 A 
ATOM     10  C   UNL     1     112.499 125.670 138.201  0.00  0.00    +0.000 A 
ATOM     11  C   UNL     1     111.715 126.460 140.112  0.00  0.00    +0.000 A 
ATOM     12  C   UNL     1     112.822 127.132 140.838  0.00  0.00    +0.000 A 
ATOM     13  C   UNL     1     111.998 126.893 140.798  0.00  0.00    +0.000 A 
ATOM     14  C   UNL     1     114.146 127.161 140.223  0.00  0.00    +0.000 C 
ENDROOT
BRANCH   8  15
ATOM     15  C   UNL     1     113.804 125.713 137.623  0.00  0.00    +0.000 A 
ATOM     16  C   UNL     1     113.858 126.210 136.966  0.00  0.00    +0.000 A 
ATOM     17  C   UNL     1     114.265 125.029 137.662  0.00  0.00    +0.000 A 
ATOM     18  C   UNL     1     114.372 126.024 136.349  0.00  0.00    +0.000 A 
ATOM     19  C   UNL     1     114.779 124.843 137.044  0.00  0.00    +0.000 A 
ATOM     20  C   UNL     1     114.833 125.340 136.388  0.00  0.00    +0.000 A 
ENDBRANCH   8  15
BRANCH  10  21
ATOM     21  O   UNL     1     112.222 125.254 137.545  0.00  0.00    +0.000 OA
ATOM     22  C   UNL     1     111.549 124.781 137.610  0.00  0.00    +0.000 C 
ENDBRANCH  10  21
TORSDOF 2
ENDMDL
MODEL 6
REMARK VINA RESULT:      -8.1      6.344      8.155
REMARK  Name = 44258730
REMARK  2 active torsions:
REMARK  status: ('A' for Active; 'I' for Inactive)
REMARK    1  A    between atoms: O_2  and  C_11
REMARK    2  A    between atoms: C_9  and  C_14
REMARK                            x       y       z     vdW  Elec       q    Type
REMARK                         _______ _______ _______ _____ _____    ______ ____
ROOT
ATOM      1  O   UNL     1     103.352 130.178 142.343  0.00  0.00    +0.000 OA
ATOM      2  O   UNL     1     104.316 127.833 140.958  0.00  0.00    +0.000 OA
ATOM      3  O   UNL     1     105.279 128.430 143.650  0.00  0.00    +0.000 OA
ATOM      4  O   UNL     1     103.362 128.722 140.342  0.00  0.00    +0.000 OA
ATOM      5  C   UNL     1     103.826 129.504 142.326  0.00  0.00    +0.000 A 
ATOM      6  C   UNL     1     103.829 129.019 141.659  0.00  0.00    +0.000 A 
ATOM      7  C   UNL     1     104.313 129.318 143.010  0.00  0.00    +0.000 A 
ATOM      8  C   UNL     1     102.880 130.368 141.693  0.00  0.00    +0.000 A 
ATOM      9  C   UNL     1     103.358 129.208 141.010  0.00  0.00    +0.000 A 
ATOM     10  C   UNL     1     102.884 129.883 141.026  0.00  0.00    +0.000 A 
ATOM     11  C   UNL     1     104.319 128.313 141.630  0.00  0.00    +0.000 A 
ATOM     12  C   UNL     1     104.809 128.616 142.998  0.00  0.00    +0.000 A 
ATOM     13  C   UNL     1     104.812 128.111 142.304  0.00  0.00    +0.000 A 
ATOM     14  C   UNL     1     104.303 129.809 143.672  0.00  0.00    +0.000 C 
ENDROOT
BRANCH   8  15
ATOM     15  C   UNL     1     102.406 131.042 141.709  0.00  0.00    +0.000 A 
ATOM     16  C   UNL     1     101.630 130.995 141.986  0.00  0.00    +0.000 A 
ATOM     17  C   UNL     1     102.708 131.766 141.449  0.00  0.00    +0.000 A 
ATOM     18  C   UNL     1     101.156 131.669 142.003  0.00  0.00    +0.000 A 
ATOM     19  C   UNL     1     102.233 132.440 141.466  0.00  0.00    +0.000 A 
ATOM     20  C   UNL     1     101.458 132.393 141.742  0.00  0.00    +0.000 A 
ENDBRANCH   8  15
BRANCH  10  21
ATOM     21  O   UNL     1     102.413 130.072 140.376  0.00  0.00    +0.000 OA
ATOM     22  C   UNL     1     102.230 129.493 139.816  0.00  0.00    +0.000 C 
ENDBRANCH  10  21
TORSDOF 2
ENDMDL
MODEL 7
REMARK VINA RESULT:      -8.1     12.714     13.413
REMARK  Name = 44258730
REMARK  2 active torsions:
REMARK  status: ('A' for Active; 'I' for Inactive)
REMARK    1  A    between atoms: O_2  and  C_11
REMARK    2  A    between atoms: C_9  and  C_14
REMARK                            x       y       z     vdW  Elec       q    Type
REMARK                         _______ _______ _______ _____ _____    ______ ____
ROOT
ATOM      1  O   UNL     1     113.434 126.605 136.664  0.00  0.00    +0.000 OA
ATOM      2  O   UNL     1     111.278 124.776 136.070  0.00  0.00    +0.000 OA
ATOM      3  O   UNL     1     113.771 123.763 137.203  0.00  0.00    +0.000 OA
ATOM      4  O   UNL     1     111.147 126.190 135.815  0.00  0.00    +0.000 OA
ATOM      5  C   UNL     1     113.132 125.838 136.653  0.00  0.00    +0.000 A 
ATOM      6  C   UNL     1     112.369 125.700 136.370  0.00  0.00    +0.000 A 
ATOM      7  C   UNL     1     113.620 125.191 136.939  0.00  0.00    +0.000 A 
ATOM      8  C   UNL     1     112.976 127.234 136.392  0.00  0.00    +0.000 A 
ATOM      9  C   UNL     1     111.910 126.328 136.099  0.00  0.00    +0.000 A 
ATOM     10  C   UNL     1     112.213 127.096 136.109  0.00  0.00    +0.000 A 
ATOM     11  C   UNL     1     112.042 124.905 136.354  0.00  0.00    +0.000 A 
ATOM     12  C   UNL     1     113.309 124.390 136.931  0.00  0.00    +0.000 A 
ATOM     13  C   UNL     1     112.515 124.246 136.636  0.00  0.00    +0.000 A 
ATOM     14  C   UNL     1     114.381 125.339 137.220  0.00  0.00    +0.000 C 
ENDROOT
BRANCH   8  15
ATOM     15  C   UNL     1     113.278 128.001 136.402  0.00  0.00    +0.000 A 
ATOM     16  C   UNL     1     113.723 128.278 135.765  0.00  0.00    +0.000 A 
ATOM     17  C   UNL     1     113.137 128.492 137.051  0.00  0.00    +0.000 A 
ATOM     18  C   UNL     1     114.026 129.045 135.775  0.00  0.00    +0.000 A 
ATOM     19  C   UNL     1     113.440 129.259 137.061  0.00  0.00    +0.000 A 
ATOM     20  C   UNL     1     113.884 129.536 136.424  0.00  0.00    +0.000 A 
ENDBRANCH   8  15
BRANCH  10  21
ATOM     21  O   UNL     1     111.754 127.725 135.837  0.00  0.00    +0.000 OA
ATOM     22  C   UNL     1     111.108 127.581 135.343  0.00  0.00    +0.000 C 
ENDBRANCH  10  21
TORSDOF 2
ENDMDL
MODEL 8
REMARK VINA RESULT:      -8.0      1.409      2.326
REMARK  Name = 44258730
REMARK  2 active torsions:
REMARK  status: ('A' for Active; 'I' for Inactive)
REMARK    1  A    between atoms: O_2  and  C_11
REMARK    2  A    between atoms: C_9  and  C_14
REMARK                            x       y       z     vdW  Elec       q    Type
REMARK                         _______ _______ _______ _____ _____    ______ ____
ROOT
ATOM      1  O   UNL     1     103.544 124.334 147.606  0.00  0.00    +0.000 OA
ATOM      2  O   UNL     1     106.145 124.523 146.363  0.00  0.00    +0.000 OA
ATOM      3  O   UNL     1     105.737 125.595 149.049  0.00  0.00    +0.000 OA
ATOM      4  O   UNL     1     105.036 123.905 145.678  0.00  0.00    +0.000 OA
ATOM      5  C   UNL     1     104.333 124.571 147.635  0.00  0.00    +0.000 A 
ATOM      6  C   UNL     1     104.830 124.428 146.992  0.00  0.00    +0.000 A 
ATOM      7  C   UNL     1     104.626 124.966 148.340  0.00  0.00    +0.000 A 
ATOM      8  C   UNL     1     103.251 123.954 146.934  0.00  0.00    +0.000 A 
ATOM      9  C   UNL     1     104.538 124.049 146.322  0.00  0.00    +0.000 A 
ATOM     10  C   UNL     1     103.748 123.811 146.292  0.00  0.00    +0.000 A 
ATOM     11  C   UNL     1     105.655 124.670 147.011  0.00  0.00    +0.000 A 
ATOM     12  C   UNL     1     105.447 125.215 148.376  0.00  0.00    +0.000 A 
ATOM     13  C   UNL     1     105.965 125.067 147.707  0.00  0.00    +0.000 A 
ATOM     14  C   UNL     1     104.121 125.105 148.978  0.00  0.00    +0.000 C 
ENDROOT
BRANCH   8  15
ATOM     15  C   UNL     1     102.462 123.717 146.905  0.00  0.00    +0.000 A 
ATOM     16  C   UNL     1     102.241 122.978 147.197  0.00  0.00    +0.000 A 
ATOM     17  C   UNL     1     101.891 124.221 146.583  0.00  0.00    +0.000 A 
ATOM     18  C   UNL     1     101.452 122.741 147.168  0.00  0.00    +0.000 A 
ATOM     19  C   UNL     1     101.102 123.983 146.554  0.00  0.00    +0.000 A 
ATOM     20  C   UNL     1     100.882 123.244 146.846  0.00  0.00    +0.000 A 
ENDBRANCH   8  15
BRANCH  10  21
ATOM     21  O   UNL     1     103.456 123.432 145.621  0.00  0.00    +0.000 OA
ATOM     22  C   UNL     1     103.971 123.025 145.119  0.00  0.00    +0.000 C 
ENDBRANCH  10  21
TORSDOF 2
ENDMDL
MODEL 9
REMARK VINA RESULT:      -8.0     10.416     12.379
REMARK  Name = 44258730
REMARK  2 active torsions:
REMARK  status: ('A' for Active; 'I' for Inactive)
REMARK    1  A    between atoms: O_2  and  C_11
REMARK    2  A    between atoms: C_9  and  C_14
REMARK                            x       y       z     vdW  Elec       q    Type
REMARK                         _______ _______ _______ _____ _____    ______ ____
ROOT
ATOM      1  O   UNL     1     111.224 125.575 136.201  0.00  0.00    +0.000 OA
ATOM      2  O   UNL     1     109.126 126.848 137.725  0.00  0.00    +0.000 OA
ATOM      3  O   UNL     1     108.886 126.630 134.823  0.00  0.00    +0.000 OA
ATOM      4  O   UNL     1     110.298 126.314 138.374  0.00  0.00    +0.000 OA
ATOM      5  C   UNL     1     110.495 125.958 136.229  0.00  0.00    +0.000 A 
ATOM      6  C   UNL     1     110.186 126.204 136.953  0.00  0.00    +0.000 A 
ATOM      7  C   UNL     1     110.066 126.095 135.497  0.00  0.00    +0.000 A 
ATOM      8  C   UNL     1     111.646 125.437 136.897  0.00  0.00    +0.000 A 
ATOM      9  C   UNL     1     110.607 126.067 137.649  0.00  0.00    +0.000 A 
ATOM     10  C   UNL     1     111.337 125.684 137.622  0.00  0.00    +0.000 A 
ATOM     11  C   UNL     1     109.427 126.605 136.996  0.00  0.00    +0.000 A 
ATOM     12  C   UNL     1     109.305 126.494 135.520  0.00  0.00    +0.000 A 
ATOM     13  C   UNL     1     108.984 126.751 136.274  0.00  0.00    +0.000 A 
ATOM     14  C   UNL     1     110.383 125.845 134.778  0.00  0.00    +0.000 C 
ENDROOT
BRANCH   8  15
ATOM     15  C   UNL     1     112.375 125.054 136.869  0.00  0.00    +0.000 A 
ATOM     16  C   UNL     1     112.414 124.233 136.944  0.00  0.00    +0.000 A 
ATOM     17  C   UNL     1     113.068 125.492 136.767  0.00  0.00    +0.000 A 
ATOM     18  C   UNL     1     113.143 123.850 136.916  0.00  0.00    +0.000 A 
ATOM     19  C   UNL     1     113.798 125.108 136.739  0.00  0.00    +0.000 A 
ATOM     20  C   UNL     1     113.836 124.288 136.813  0.00  0.00    +0.000 A 
ENDBRANCH   8  15
BRANCH  10  21
ATOM     21  O   UNL     1     111.758 125.547 138.317  0.00  0.00    +0.000 OA
ATOM     22  C   UNL     1     111.626 126.021 138.980  0.00  0.00    +0.000 C 
ENDBRANCH  10  21
TORSDOF 2
ENDMDL
MODEL 10
REMARK VINA RESULT:      -7.9      1.438      3.972
REMARK  Name = 44258730
REMARK  2 active torsions:
REMARK  status: ('A' for Active; 'I' for Inactive)
REMARK    1  A    between atoms: O_2  and  C_11
REMARK    2  A    between atoms: C_9  and  C_14
REMARK                            x       y       z     vdW  Elec       q    Type
REMARK                         _______ _______ _______ _____ _____    ______ ____
ROOT
ATOM      1  O   UNL     1     105.256 124.673 147.518  0.00  0.00    +0.000 OA
ATOM      2  O   UNL     1     102.777 125.895 148.359  0.00  0.00    +0.000 OA
ATOM      3  O   UNL     1     102.786 124.019 146.122  0.00  0.00    +0.000 OA
ATOM      4  O   UNL     1     104.019 126.195 149.028  0.00  0.00    +0.000 OA
ATOM      5  C   UNL     1     104.442 124.769 147.430  0.00  0.00    +0.000 A 
ATOM      6  C   UNL     1     104.030 125.277 147.933  0.00  0.00    +0.000 A 
ATOM      7  C   UNL     1     104.034 124.335 146.810  0.00  0.00    +0.000 A 
ATOM      8  C   UNL     1     105.659 125.084 148.110  0.00  0.00    +0.000 A 
ATOM      9  C   UNL     1     104.432 125.687 148.524  0.00  0.00    +0.000 A 
ATOM     10  C   UNL     1     105.247 125.592 148.613  0.00  0.00    +0.000 A 
ATOM     11  C   UNL     1     103.181 125.385 147.851  0.00  0.00    +0.000 A 
ATOM     12  C   UNL     1     103.186 124.431 146.714  0.00  0.00    +0.000 A 
ATOM     13  C   UNL     1     102.756 124.960 147.238  0.00  0.00    +0.000 A 
ATOM     14  C   UNL     1     104.455 123.830 146.312  0.00  0.00    +0.000 C 
ENDROOT
BRANCH   8  15
ATOM     15  C   UNL     1     106.473 124.988 148.198  0.00  0.00    +0.000 A 
ATOM     16  C   UNL     1     106.993 125.380 147.691  0.00  0.00    +0.000 A 
ATOM     17  C   UNL     1     106.769 124.499 148.794  0.00  0.00    +0.000 A 
ATOM     18  C   UNL     1     107.807 125.284 147.779  0.00  0.00    +0.000 A 
ATOM     19  C   UNL     1     107.584 124.403 148.882  0.00  0.00    +0.000 A 
ATOM     20  C   UNL     1     108.102 124.795 148.376  0.00  0.00    +0.000 A 
ENDBRANCH   8  15
BRANCH  10  21
ATOM     21  O   UNL     1     105.649 126.002 149.204  0.00  0.00    +0.000 OA
ATOM     22  C   UNL     1     105.344 126.714 149.492  0.00  0.00    +0.000 C 
ENDBRANCH  10  21
TORSDOF 2
ENDMDL
