MODEL 1
REMARK VINA RESULT:      -8.7      0.000      0.000
REMARK  Name = 
REMARK  4 active torsions:
REMARK  status: ('A' for Active; 'I' for Inactive)
REMARK    1  A    between atoms: C_3  and  O_5
REMARK    2  A    between atoms: C_6  and  C_11
REMARK    3  A    between atoms: C_12  and  O_17
REMARK    4  A    between atoms: C_18  and  O_23
REMARK                            x       y       z     vdW  Elec       q    Type
REMARK                         _______ _______ _______ _____ _____    ______ ____
ROOT
ATOM      1  O   UNL     1     106.318 125.119 145.491  0.00  0.00    +0.000 OA
ATOM      2  C   UNL     1     105.875 124.870 146.141  0.00  0.00    +0.000 A 
ATOM      3  C   UNL     1     105.098 124.616 146.037  0.00  0.00    +0.000 A 
ATOM      4  C   UNL     1     106.210 124.877 146.895  0.00  0.00    +0.000 A 
ATOM      5  C   UNL     1     104.654 124.367 146.688  0.00  0.00    +0.000 A 
ATOM      6  C   UNL     1     105.767 124.628 147.546  0.00  0.00    +0.000 A 
ATOM      7  C   UNL     1     106.987 125.132 146.999  0.00  0.00    +0.000 A 
ATOM      8  O   UNL     1     104.989 124.374 147.441  0.00  0.00    +0.000 OA
ATOM      9  C   UNL     1     106.101 124.635 148.299  0.00  0.00    +0.000 A 
ATOM     10  O   UNL     1     107.431 125.380 146.349  0.00  0.00    +0.000 OA
ATOM     11  C   UNL     1     107.323 125.138 147.753  0.00  0.00    +0.000 A 
ATOM     12  C   UNL     1     106.879 124.890 148.404  0.00  0.00    +0.000 A 
ATOM     13  C   UNL     1     108.100 125.393 147.857  0.00  0.00    +0.000 C 
ENDROOT
BRANCH   5  14
ATOM     14  C   UNL     1     103.877 124.113 146.584  0.00  0.00    +0.000 A 
ATOM     15  C   UNL     1     103.725 123.338 146.344  0.00  0.00    +0.000 A 
ATOM     16  C   UNL     1     103.251 124.633 146.720  0.00  0.00    +0.000 A 
ATOM     17  C   UNL     1     102.947 123.083 146.239  0.00  0.00    +0.000 A 
ATOM     18  C   UNL     1     102.473 124.378 146.616  0.00  0.00    +0.000 A 
ATOM     19  C   UNL     1     102.321 123.603 146.375  0.00  0.00    +0.000 A 
ATOM     20  O   UNL     1     101.543 123.349 146.271  0.00  0.00    +0.000 OA
ENDBRANCH   5  14
BRANCH   3  21
ATOM     21  O   UNL     1     104.763 124.609 145.284  0.00  0.00    +0.000 OA
ATOM     22  C   UNL     1     105.248 124.633 144.616  0.00  0.00    +0.000 C 
ENDBRANCH   3  21
BRANCH   9  23
ATOM     23  O   UNL     1     105.658 124.387 148.949  0.00  0.00    +0.000 OA
ATOM     24  C   UNL     1     105.356 124.942 149.479  0.00  0.00    +0.000 C 
ENDBRANCH   9  23
BRANCH  12  25
ATOM     25  O   UNL     1     107.214 124.896 149.157  0.00  0.00    +0.000 OA
ATOM     26  C   UNL     1     107.808 124.357 149.350  0.00  0.00    +0.000 C 
ENDBRANCH  12  25
TORSDOF 4
ENDMDL
MODEL 2
REMARK VINA RESULT:      -8.3      1.236      4.407
REMARK  Name = 
REMARK  4 active torsions:
REMARK  status: ('A' for Active; 'I' for Inactive)
REMARK    1  A    between atoms: C_3  and  O_5
REMARK    2  A    between atoms: C_6  and  C_11
REMARK    3  A    between atoms: C_12  and  O_17
REMARK    4  A    between atoms: C_18  and  O_23
REMARK                            x       y       z     vdW  Elec       q    Type
REMARK                         _______ _______ _______ _____ _____    ______ ____
ROOT
ATOM      1  O   UNL     1     103.615 125.956 148.602  0.00  0.00    +0.000 OA
ATOM      2  C   UNL     1     104.083 125.448 148.151  0.00  0.00    +0.000 A 
ATOM      3  C   UNL     1     104.901 125.447 148.247  0.00  0.00    +0.000 A 
ATOM      4  C   UNL     1     103.730 124.941 147.604  0.00  0.00    +0.000 A 
ATOM      5  C   UNL     1     105.370 124.938 147.796  0.00  0.00    +0.000 A 
ATOM      6  C   UNL     1     104.199 124.432 147.152  0.00  0.00    +0.000 A 
ATOM      7  C   UNL     1     102.912 124.942 147.507  0.00  0.00    +0.000 A 
ATOM      8  O   UNL     1     105.018 124.431 147.249  0.00  0.00    +0.000 OA
ATOM      9  C   UNL     1     103.847 123.925 146.605  0.00  0.00    +0.000 A 
ATOM     10  O   UNL     1     102.444 125.450 147.958  0.00  0.00    +0.000 OA
ATOM     11  C   UNL     1     102.559 124.434 146.960  0.00  0.00    +0.000 A 
ATOM     12  C   UNL     1     103.027 123.925 146.508  0.00  0.00    +0.000 A 
ATOM     13  C   UNL     1     101.741 124.435 146.864  0.00  0.00    +0.000 C 
ENDROOT
BRANCH   5  14
ATOM     14  C   UNL     1     106.188 124.937 147.892  0.00  0.00    +0.000 A 
ATOM     15  C   UNL     1     106.534 124.478 148.484  0.00  0.00    +0.000 A 
ATOM     16  C   UNL     1     106.662 125.395 147.396  0.00  0.00    +0.000 A 
ATOM     17  C   UNL     1     107.354 124.477 148.581  0.00  0.00    +0.000 A 
ATOM     18  C   UNL     1     107.482 125.394 147.492  0.00  0.00    +0.000 A 
ATOM     19  C   UNL     1     107.828 124.935 148.085  0.00  0.00    +0.000 A 
ATOM     20  O   UNL     1     108.647 124.935 148.181  0.00  0.00    +0.000 OA
ENDBRANCH   5  14
BRANCH   3  21
ATOM     21  O   UNL     1     105.253 125.954 148.794  0.00  0.00    +0.000 OA
ATOM     22  C   UNL     1     104.884 126.663 148.997  0.00  0.00    +0.000 C 
ENDBRANCH   3  21
BRANCH   9  23
ATOM     23  O   UNL     1     104.315 123.417 146.154  0.00  0.00    +0.000 OA
ATOM     24  C   UNL     1     104.430 123.566 145.350  0.00  0.00    +0.000 C 
ENDBRANCH   9  23
BRANCH  12  25
ATOM     25  O   UNL     1     102.676 123.419 145.961  0.00  0.00    +0.000 OA
ATOM     26  C   UNL     1     102.205 122.792 146.221  0.00  0.00    +0.000 C 
ENDBRANCH  12  25
TORSDOF 4
ENDMDL
MODEL 3
REMARK VINA RESULT:      -8.0      9.813     11.741
REMARK  Name = 
REMARK  4 active torsions:
REMARK  status: ('A' for Active; 'I' for Inactive)
REMARK    1  A    between atoms: C_3  and  O_5
REMARK    2  A    between atoms: C_6  and  C_11
REMARK    3  A    between atoms: C_12  and  O_17
REMARK    4  A    between atoms: C_18  and  O_23
REMARK                            x       y       z     vdW  Elec       q    Type
REMARK                         _______ _______ _______ _____ _____    ______ ____
ROOT
ATOM      1  O   UNL     1     111.149 125.566 138.867  0.00  0.00    +0.000 OA
ATOM      2  C   UNL     1     111.922 125.852 138.887  0.00  0.00    +0.000 A 
ATOM      3  C   UNL     1     112.441 125.681 138.269  0.00  0.00    +0.000 A 
ATOM      4  C   UNL     1     112.177 126.309 139.525  0.00  0.00    +0.000 A 
ATOM      5  C   UNL     1     113.215 125.968 138.288  0.00  0.00    +0.000 A 
ATOM      6  C   UNL     1     112.951 126.596 139.544  0.00  0.00    +0.000 A 
ATOM      7  C   UNL     1     111.658 126.480 140.143  0.00  0.00    +0.000 A 
ATOM      8  O   UNL     1     113.469 126.424 138.926  0.00  0.00    +0.000 OA
ATOM      9  C   UNL     1     113.205 127.053 140.182  0.00  0.00    +0.000 A 
ATOM     10  O   UNL     1     110.885 126.194 140.123  0.00  0.00    +0.000 OA
ATOM     11  C   UNL     1     111.912 126.938 140.781  0.00  0.00    +0.000 A 
ATOM     12  C   UNL     1     112.687 127.224 140.800  0.00  0.00    +0.000 A 
ATOM     13  C   UNL     1     111.394 127.109 141.399  0.00  0.00    +0.000 C 
ENDROOT
BRANCH   5  14
ATOM     14  C   UNL     1     113.733 125.797 137.671  0.00  0.00    +0.000 A 
ATOM     15  C   UNL     1     113.773 126.295 137.014  0.00  0.00    +0.000 A 
ATOM     16  C   UNL     1     114.213 125.126 137.708  0.00  0.00    +0.000 A 
ATOM     17  C   UNL     1     114.292 126.125 136.396  0.00  0.00    +0.000 A 
ATOM     18  C   UNL     1     114.732 124.954 137.089  0.00  0.00    +0.000 A 
ATOM     19  C   UNL     1     114.771 125.454 136.433  0.00  0.00    +0.000 A 
ATOM     20  O   UNL     1     115.290 125.282 135.815  0.00  0.00    +0.000 OA
ENDBRANCH   5  14
BRANCH   3  21
ATOM     21  O   UNL     1     112.186 125.224 137.631  0.00  0.00    +0.000 OA
ATOM     22  C   UNL     1     111.533 124.727 137.714  0.00  0.00    +0.000 C 
ENDBRANCH   3  21
BRANCH   9  23
ATOM     23  O   UNL     1     113.979 127.339 140.201  0.00  0.00    +0.000 OA
ATOM     24  C   UNL     1     114.520 127.029 140.742  0.00  0.00    +0.000 C 
ENDBRANCH   9  23
BRANCH  12  25
ATOM     25  O   UNL     1     112.941 127.681 141.438  0.00  0.00    +0.000 OA
ATOM     26  C   UNL     1     112.645 128.444 141.544  0.00  0.00    +0.000 C 
ENDBRANCH  12  25
TORSDOF 4
ENDMDL
MODEL 4
REMARK VINA RESULT:      -7.9     12.577     13.164
REMARK  Name = 
REMARK  4 active torsions:
REMARK  status: ('A' for Active; 'I' for Inactive)
REMARK    1  A    between atoms: C_3  and  O_5
REMARK    2  A    between atoms: C_6  and  C_11
REMARK    3  A    between atoms: C_12  and  O_17
REMARK    4  A    between atoms: C_18  and  O_23
REMARK                            x       y       z     vdW  Elec       q    Type
REMARK                         _______ _______ _______ _____ _____    ______ ____
ROOT
ATOM      1  O   UNL     1     110.771 124.994 135.461  0.00  0.00    +0.000 OA
ATOM      2  C   UNL     1     111.207 125.638 135.736  0.00  0.00    +0.000 A 
ATOM      3  C   UNL     1     110.971 126.405 135.549  0.00  0.00    +0.000 A 
ATOM      4  C   UNL     1     111.880 125.514 136.198  0.00  0.00    +0.000 A 
ATOM      5  C   UNL     1     111.408 127.050 135.824  0.00  0.00    +0.000 A 
ATOM      6  C   UNL     1     112.317 126.159 136.472  0.00  0.00    +0.000 A 
ATOM      7  C   UNL     1     112.116 124.746 136.385  0.00  0.00    +0.000 A 
ATOM      8  O   UNL     1     112.080 126.926 136.285  0.00  0.00    +0.000 OA
ATOM      9  C   UNL     1     112.989 126.035 136.934  0.00  0.00    +0.000 A 
ATOM     10  O   UNL     1     111.680 124.102 136.110  0.00  0.00    +0.000 OA
ATOM     11  C   UNL     1     112.789 124.622 136.846  0.00  0.00    +0.000 A 
ATOM     12  C   UNL     1     113.226 125.267 137.121  0.00  0.00    +0.000 A 
ATOM     13  C   UNL     1     113.025 123.854 137.033  0.00  0.00    +0.000 C 
ENDROOT
BRANCH   5  14
ATOM     14  C   UNL     1     111.171 127.818 135.637  0.00  0.00    +0.000 A 
ATOM     15  C   UNL     1     110.605 128.200 136.100  0.00  0.00    +0.000 A 
ATOM     16  C   UNL     1     111.501 128.204 134.986  0.00  0.00    +0.000 A 
ATOM     17  C   UNL     1     110.368 128.968 135.913  0.00  0.00    +0.000 A 
ATOM     18  C   UNL     1     111.264 128.972 134.799  0.00  0.00    +0.000 A 
ATOM     19  C   UNL     1     110.698 129.354 135.262  0.00  0.00    +0.000 A 
ATOM     20  O   UNL     1     110.462 130.122 135.075  0.00  0.00    +0.000 OA
ENDBRANCH   5  14
BRANCH   3  21
ATOM     21  O   UNL     1     110.299 126.529 135.088  0.00  0.00    +0.000 OA
ATOM     22  C   UNL     1     110.006 125.922 134.612  0.00  0.00    +0.000 C 
ENDBRANCH   3  21
BRANCH   9  23
ATOM     23  O   UNL     1     113.425 126.679 137.208  0.00  0.00    +0.000 OA
ATOM     24  C   UNL     1     113.361 126.915 137.997  0.00  0.00    +0.000 C 
ENDBRANCH   9  23
BRANCH  12  25
ATOM     25  O   UNL     1     113.897 125.143 137.582  0.00  0.00    +0.000 OA
ATOM     26  C   UNL     1     114.586 124.845 137.238  0.00  0.00    +0.000 C 
ENDBRANCH  12  25
TORSDOF 4
ENDMDL
MODEL 5
REMARK VINA RESULT:      -7.9      1.277      3.958
REMARK  Name = 
REMARK  4 active torsions:
REMARK  status: ('A' for Active; 'I' for Inactive)
REMARK    1  A    between atoms: C_3  and  O_5
REMARK    2  A    between atoms: C_6  and  C_11
REMARK    3  A    between atoms: C_12  and  O_17
REMARK    4  A    between atoms: C_18  and  O_23
REMARK                            x       y       z     vdW  Elec       q    Type
REMARK                         _______ _______ _______ _____ _____    ______ ____
ROOT
ATOM      1  O   UNL     1     104.479 123.596 144.904  0.00  0.00    +0.000 OA
ATOM      2  C   UNL     1     104.522 124.024 145.608  0.00  0.00    +0.000 A 
ATOM      3  C   UNL     1     105.187 124.484 145.770  0.00  0.00    +0.000 A 
ATOM      4  C   UNL     1     103.900 123.991 146.149  0.00  0.00    +0.000 A 
ATOM      5  C   UNL     1     105.231 124.913 146.474  0.00  0.00    +0.000 A 
ATOM      6  C   UNL     1     103.944 124.420 146.854  0.00  0.00    +0.000 A 
ATOM      7  C   UNL     1     103.236 123.531 145.987  0.00  0.00    +0.000 A 
ATOM      8  O   UNL     1     104.610 124.881 147.016  0.00  0.00    +0.000 OA
ATOM      9  C   UNL     1     103.323 124.388 147.395  0.00  0.00    +0.000 A 
ATOM     10  O   UNL     1     103.192 123.103 145.284  0.00  0.00    +0.000 OA
ATOM     11  C   UNL     1     102.614 123.499 146.529  0.00  0.00    +0.000 A 
ATOM     12  C   UNL     1     102.658 123.927 147.233  0.00  0.00    +0.000 A 
ATOM     13  C   UNL     1     101.949 123.039 146.367  0.00  0.00    +0.000 C 
ENDROOT
BRANCH   5  14
ATOM     14  C   UNL     1     105.895 125.373 146.636  0.00  0.00    +0.000 A 
ATOM     15  C   UNL     1     106.557 125.032 146.992  0.00  0.00    +0.000 A 
ATOM     16  C   UNL     1     105.899 126.175 146.442  0.00  0.00    +0.000 A 
ATOM     17  C   UNL     1     107.223 125.492 147.155  0.00  0.00    +0.000 A 
ATOM     18  C   UNL     1     106.564 126.636 146.604  0.00  0.00    +0.000 A 
ATOM     19  C   UNL     1     107.226 126.294 146.960  0.00  0.00    +0.000 A 
ATOM     20  O   UNL     1     107.891 126.755 147.122  0.00  0.00    +0.000 OA
ENDBRANCH   5  14
BRANCH   3  21
ATOM     21  O   UNL     1     105.808 124.517 145.229  0.00  0.00    +0.000 OA
ATOM     22  C   UNL     1     105.655 124.458 144.420  0.00  0.00    +0.000 C 
ENDBRANCH   3  21
BRANCH   9  23
ATOM     23  O   UNL     1     103.367 124.816 148.099  0.00  0.00    +0.000 OA
ATOM     24  C   UNL     1     103.526 124.427 148.810  0.00  0.00    +0.000 C 
ENDBRANCH   9  23
BRANCH  12  25
ATOM     25  O   UNL     1     102.037 123.895 147.775  0.00  0.00    +0.000 OA
ATOM     26  C   UNL     1     101.315 124.255 147.598  0.00  0.00    +0.000 C 
ENDBRANCH  12  25
TORSDOF 4
ENDMDL
MODEL 6
REMARK VINA RESULT:      -7.9     12.545     13.742
REMARK  Name = 
REMARK  4 active torsions:
REMARK  status: ('A' for Active; 'I' for Inactive)
REMARK    1  A    between atoms: C_3  and  O_5
REMARK    2  A    between atoms: C_6  and  C_11
REMARK    3  A    between atoms: C_12  and  O_17
REMARK    4  A    between atoms: C_18  and  O_23
REMARK                            x       y       z     vdW  Elec       q    Type
REMARK                         _______ _______ _______ _____ _____    ______ ____
ROOT
ATOM      1  O   UNL     1     110.647 125.784 135.455  0.00  0.00    +0.000 OA
ATOM      2  C   UNL     1     111.285 126.242 135.709  0.00  0.00    +0.000 A 
ATOM      3  C   UNL     1     111.912 125.888 136.110  0.00  0.00    +0.000 A 
ATOM      4  C   UNL     1     111.294 127.054 135.561  0.00  0.00    +0.000 A 
ATOM      5  C   UNL     1     112.551 126.347 136.364  0.00  0.00    +0.000 A 
ATOM      6  C   UNL     1     111.932 127.512 135.815  0.00  0.00    +0.000 A 
ATOM      7  C   UNL     1     110.666 127.408 135.160  0.00  0.00    +0.000 A 
ATOM      8  O   UNL     1     112.560 127.158 136.217  0.00  0.00    +0.000 OA
ATOM      9  C   UNL     1     111.941 128.324 135.668  0.00  0.00    +0.000 A 
ATOM     10  O   UNL     1     110.028 126.950 134.907  0.00  0.00    +0.000 OA
ATOM     11  C   UNL     1     110.675 128.220 135.013  0.00  0.00    +0.000 A 
ATOM     12  C   UNL     1     111.313 128.678 135.267  0.00  0.00    +0.000 A 
ATOM     13  C   UNL     1     110.047 128.573 134.612  0.00  0.00    +0.000 C 
ENDROOT
BRANCH   5  14
ATOM     14  C   UNL     1     113.178 125.993 136.765  0.00  0.00    +0.000 A 
ATOM     15  C   UNL     1     113.801 125.655 136.342  0.00  0.00    +0.000 A 
ATOM     16  C   UNL     1     113.184 125.977 137.589  0.00  0.00    +0.000 A 
ATOM     17  C   UNL     1     114.429 125.301 136.742  0.00  0.00    +0.000 A 
ATOM     18  C   UNL     1     113.812 125.623 137.991  0.00  0.00    +0.000 A 
ATOM     19  C   UNL     1     114.435 125.285 137.567  0.00  0.00    +0.000 A 
ATOM     20  O   UNL     1     115.063 124.931 137.969  0.00  0.00    +0.000 OA
ENDBRANCH   5  14
BRANCH   3  21
ATOM     21  O   UNL     1     111.903 125.077 136.257  0.00  0.00    +0.000 OA
ATOM     22  C   UNL     1     111.216 124.641 136.123  0.00  0.00    +0.000 C 
ENDBRANCH   3  21
BRANCH   9  23
ATOM     23  O   UNL     1     112.579 128.781 135.922  0.00  0.00    +0.000 OA
ATOM     24  C   UNL     1     113.126 129.067 135.374  0.00  0.00    +0.000 C 
ENDBRANCH   9  23
BRANCH  12  25
ATOM     25  O   UNL     1     111.322 129.489 135.120  0.00  0.00    +0.000 OA
ATOM     26  C   UNL     1     110.778 129.983 135.494  0.00  0.00    +0.000 C 
ENDBRANCH  12  25
TORSDOF 4
ENDMDL
MODEL 7
REMARK VINA RESULT:      -7.9      6.542      7.914
REMARK  Name = 
REMARK  4 active torsions:
REMARK  status: ('A' for Active; 'I' for Inactive)
REMARK    1  A    between atoms: C_3  and  O_5
REMARK    2  A    between atoms: C_6  and  C_11
REMARK    3  A    between atoms: C_12  and  O_17
REMARK    4  A    between atoms: C_18  and  O_23
REMARK                            x       y       z     vdW  Elec       q    Type
REMARK                         _______ _______ _______ _____ _____    ______ ____
ROOT
ATOM      1  O   UNL     1     103.360 128.619 140.346  0.00  0.00    +0.000 OA
ATOM      2  C   UNL     1     103.397 129.128 140.994  0.00  0.00    +0.000 A 
ATOM      3  C   UNL     1     102.927 129.804 141.014  0.00  0.00    +0.000 A 
ATOM      4  C   UNL     1     103.905 128.959 141.622  0.00  0.00    +0.000 A 
ATOM      5  C   UNL     1     102.964 130.314 141.663  0.00  0.00    +0.000 A 
ATOM      6  C   UNL     1     103.943 129.469 142.271  0.00  0.00    +0.000 A 
ATOM      7  C   UNL     1     104.376 128.282 141.602  0.00  0.00    +0.000 A 
ATOM      8  O   UNL     1     103.472 130.146 142.291  0.00  0.00    +0.000 OA
ATOM      9  C   UNL     1     104.450 129.301 142.898  0.00  0.00    +0.000 A 
ATOM     10  O   UNL     1     104.339 127.773 140.954  0.00  0.00    +0.000 OA
ATOM     11  C   UNL     1     104.884 128.114 142.230  0.00  0.00    +0.000 A 
ATOM     12  C   UNL     1     104.921 128.623 142.879  0.00  0.00    +0.000 A 
ATOM     13  C   UNL     1     105.354 127.437 142.210  0.00  0.00    +0.000 C 
ENDROOT
BRANCH   5  14
ATOM     14  C   UNL     1     102.493 130.991 141.683  0.00  0.00    +0.000 A 
ATOM     15  C   UNL     1     102.770 131.696 141.356  0.00  0.00    +0.000 A 
ATOM     16  C   UNL     1     101.746 130.963 142.031  0.00  0.00    +0.000 A 
ATOM     17  C   UNL     1     102.299 132.374 141.375  0.00  0.00    +0.000 A 
ATOM     18  C   UNL     1     101.274 131.641 142.051  0.00  0.00    +0.000 A 
ATOM     19  C   UNL     1     101.551 132.346 141.723  0.00  0.00    +0.000 A 
ATOM     20  O   UNL     1     101.080 133.023 141.743  0.00  0.00    +0.000 OA
ENDBRANCH   5  14
BRANCH   3  21
ATOM     21  O   UNL     1     102.419 129.973 140.387  0.00  0.00    +0.000 OA
ATOM     22  C   UNL     1     102.247 129.391 139.827  0.00  0.00    +0.000 C 
ENDBRANCH   3  21
BRANCH   9  23
ATOM     23  O   UNL     1     104.487 129.810 143.547  0.00  0.00    +0.000 OA
ATOM     24  C   UNL     1     105.132 130.318 143.636  0.00  0.00    +0.000 C 
ENDBRANCH   9  23
BRANCH  12  25
ATOM     25  O   UNL     1     105.429 128.455 143.506  0.00  0.00    +0.000 OA
ATOM     26  C   UNL     1     105.287 127.801 143.989  0.00  0.00    +0.000 C 
ENDBRANCH  12  25
TORSDOF 4
ENDMDL
MODEL 8
REMARK VINA RESULT:      -7.8     12.447     14.016
REMARK  Name = 
REMARK  4 active torsions:
REMARK  status: ('A' for Active; 'I' for Inactive)
REMARK    1  A    between atoms: C_3  and  O_5
REMARK    2  A    between atoms: C_6  and  C_11
REMARK    3  A    between atoms: C_12  and  O_17
REMARK    4  A    between atoms: C_18  and  O_23
REMARK                            x       y       z     vdW  Elec       q    Type
REMARK                         _______ _______ _______ _____ _____    ______ ____
ROOT
ATOM      1  O   UNL     1     111.127 127.458 135.299  0.00  0.00    +0.000 OA
ATOM      2  C   UNL     1     111.861 127.436 135.675  0.00  0.00    +0.000 A 
ATOM      3  C   UNL     1     112.345 128.103 135.675  0.00  0.00    +0.000 A 
ATOM      4  C   UNL     1     112.111 126.745 136.051  0.00  0.00    +0.000 A 
ATOM      5  C   UNL     1     113.080 128.081 136.051  0.00  0.00    +0.000 A 
ATOM      6  C   UNL     1     112.845 126.722 136.428  0.00  0.00    +0.000 A 
ATOM      7  C   UNL     1     111.627 126.077 136.051  0.00  0.00    +0.000 A 
ATOM      8  O   UNL     1     113.329 127.391 136.427  0.00  0.00    +0.000 OA
ATOM      9  C   UNL     1     113.095 126.032 136.803  0.00  0.00    +0.000 A 
ATOM     10  O   UNL     1     110.893 126.099 135.675  0.00  0.00    +0.000 OA
ATOM     11  C   UNL     1     111.876 125.386 136.427  0.00  0.00    +0.000 A 
ATOM     12  C   UNL     1     112.611 125.364 136.804  0.00  0.00    +0.000 A 
ATOM     13  C   UNL     1     111.393 124.719 136.427  0.00  0.00    +0.000 C 
ENDROOT
BRANCH   5  14
ATOM     14  C   UNL     1     113.563 128.748 136.051  0.00  0.00    +0.000 A 
ATOM     15  C   UNL     1     113.487 129.314 136.647  0.00  0.00    +0.000 A 
ATOM     16  C   UNL     1     114.124 128.851 135.455  0.00  0.00    +0.000 A 
ATOM     17  C   UNL     1     113.971 129.983 136.647  0.00  0.00    +0.000 A 
ATOM     18  C   UNL     1     114.609 129.520 135.455  0.00  0.00    +0.000 A 
ATOM     19  C   UNL     1     114.532 130.085 136.051  0.00  0.00    +0.000 A 
ATOM     20  O   UNL     1     115.016 130.753 136.050  0.00  0.00    +0.000 OA
ENDBRANCH   5  14
BRANCH   3  21
ATOM     21  O   UNL     1     112.096 128.793 135.299  0.00  0.00    +0.000 OA
ATOM     22  C   UNL     1     111.389 128.799 134.872  0.00  0.00    +0.000 C 
ENDBRANCH   3  21
BRANCH   9  23
ATOM     23  O   UNL     1     113.829 126.010 137.180  0.00  0.00    +0.000 OA
ATOM     24  C   UNL     1     113.870 126.003 138.004  0.00  0.00    +0.000 C 
ENDBRANCH   9  23
BRANCH  12  25
ATOM     25  O   UNL     1     112.860 124.674 137.180  0.00  0.00    +0.000 OA
ATOM     26  C   UNL     1     113.083 124.017 136.733  0.00  0.00    +0.000 C 
ENDBRANCH  12  25
TORSDOF 4
ENDMDL
MODEL 9
REMARK VINA RESULT:      -7.8      1.069      2.603
REMARK  Name = 
REMARK  4 active torsions:
REMARK  status: ('A' for Active; 'I' for Inactive)
REMARK    1  A    between atoms: C_3  and  O_5
REMARK    2  A    between atoms: C_6  and  C_11
REMARK    3  A    between atoms: C_12  and  O_17
REMARK    4  A    between atoms: C_18  and  O_23
REMARK                            x       y       z     vdW  Elec       q    Type
REMARK                         _______ _______ _______ _____ _____    ______ ____
ROOT
ATOM      1  O   UNL     1     104.790 124.677 148.625  0.00  0.00    +0.000 OA
ATOM      2  C   UNL     1     104.574 124.620 147.831  0.00  0.00    +0.000 A 
ATOM      3  C   UNL     1     103.845 124.294 147.625  0.00  0.00    +0.000 A 
ATOM      4  C   UNL     1     105.088 124.888 147.243  0.00  0.00    +0.000 A 
ATOM      5  C   UNL     1     103.628 124.237 146.830  0.00  0.00    +0.000 A 
ATOM      6  C   UNL     1     104.871 124.830 146.448  0.00  0.00    +0.000 A 
ATOM      7  C   UNL     1     105.816 125.213 147.449  0.00  0.00    +0.000 A 
ATOM      8  O   UNL     1     104.141 124.504 146.243  0.00  0.00    +0.000 OA
ATOM      9  C   UNL     1     105.384 125.098 145.861  0.00  0.00    +0.000 A 
ATOM     10  O   UNL     1     106.033 125.271 148.243  0.00  0.00    +0.000 OA
ATOM     11  C   UNL     1     106.330 125.481 146.862  0.00  0.00    +0.000 A 
ATOM     12  C   UNL     1     106.114 125.423 146.067  0.00  0.00    +0.000 A 
ATOM     13  C   UNL     1     107.059 125.807 147.068  0.00  0.00    +0.000 C 
ENDROOT
BRANCH   5  14
ATOM     14  C   UNL     1     102.899 123.911 146.624  0.00  0.00    +0.000 A 
ATOM     15  C   UNL     1     102.228 124.389 146.591  0.00  0.00    +0.000 A 
ATOM     16  C   UNL     1     102.841 123.107 146.451  0.00  0.00    +0.000 A 
ATOM     17  C   UNL     1     101.498 124.064 146.385  0.00  0.00    +0.000 A 
ATOM     18  C   UNL     1     102.111 122.780 146.245  0.00  0.00    +0.000 A 
ATOM     19  C   UNL     1     101.440 123.260 146.212  0.00  0.00    +0.000 A 
ATOM     20  O   UNL     1     100.711 122.933 146.006  0.00  0.00    +0.000 OA
ENDBRANCH   5  14
BRANCH   3  21
ATOM     21  O   UNL     1     103.332 124.027 148.212  0.00  0.00    +0.000 OA
ATOM     22  C   UNL     1     103.460 124.236 149.000  0.00  0.00    +0.000 C 
ENDBRANCH   3  21
BRANCH   9  23
ATOM     23  O   UNL     1     105.168 125.040 145.067  0.00  0.00    +0.000 OA
ATOM     24  C   UNL     1     105.489 124.445 144.594  0.00  0.00    +0.000 C 
ENDBRANCH   9  23
BRANCH  12  25
ATOM     25  O   UNL     1     106.626 125.691 145.480  0.00  0.00    +0.000 OA
ATOM     26  C   UNL     1     106.717 126.501 145.347  0.00  0.00    +0.000 C 
ENDBRANCH  12  25
TORSDOF 4
ENDMDL
MODEL 10
REMARK VINA RESULT:      -7.7     12.276     13.684
REMARK  Name = 
REMARK  4 active torsions:
REMARK  status: ('A' for Active; 'I' for Inactive)
REMARK    1  A    between atoms: C_3  and  O_5
REMARK    2  A    between atoms: C_6  and  C_11
REMARK    3  A    between atoms: C_12  and  O_17
REMARK    4  A    between atoms: C_18  and  O_23
REMARK                            x       y       z     vdW  Elec       q    Type
REMARK                         _______ _______ _______ _____ _____    ______ ____
ROOT
ATOM      1  O   UNL     1     112.667 128.762 135.665  0.00  0.00    +0.000 OA
ATOM      2  C   UNL     1     112.462 127.989 135.870  0.00  0.00    +0.000 A 
ATOM      3  C   UNL     1     113.023 127.491 136.210  0.00  0.00    +0.000 A 
ATOM      4  C   UNL     1     111.695 127.716 135.733  0.00  0.00    +0.000 A 
ATOM      5  C   UNL     1     112.818 126.717 136.415  0.00  0.00    +0.000 A 
ATOM      6  C   UNL     1     111.490 126.943 135.938  0.00  0.00    +0.000 A 
ATOM      7  C   UNL     1     111.134 128.215 135.393  0.00  0.00    +0.000 A 
ATOM      8  O   UNL     1     112.052 126.444 136.279  0.00  0.00    +0.000 OA
ATOM      9  C   UNL     1     110.724 126.670 135.802  0.00  0.00    +0.000 A 
ATOM     10  O   UNL     1     111.339 128.988 135.188  0.00  0.00    +0.000 OA
ATOM     11  C   UNL     1     110.367 127.942 135.257  0.00  0.00    +0.000 A 
ATOM     12  C   UNL     1     110.162 127.169 135.461  0.00  0.00    +0.000 A 
ATOM     13  C   UNL     1     109.806 128.441 134.916  0.00  0.00    +0.000 C 
ENDROOT
BRANCH   5  14
ATOM     14  C   UNL     1     113.379 126.218 136.755  0.00  0.00    +0.000 A 
ATOM     15  C   UNL     1     113.868 125.758 136.276  0.00  0.00    +0.000 A 
ATOM     16  C   UNL     1     113.452 126.179 137.576  0.00  0.00    +0.000 A 
ATOM     17  C   UNL     1     114.430 125.259 136.616  0.00  0.00    +0.000 A 
ATOM     18  C   UNL     1     114.015 125.680 137.917  0.00  0.00    +0.000 A 
ATOM     19  C   UNL     1     114.503 125.220 137.437  0.00  0.00    +0.000 A 
ATOM     20  O   UNL     1     115.065 124.721 137.778  0.00  0.00    +0.000 OA
ENDBRANCH   5  14
BRANCH   3  21
ATOM     21  O   UNL     1     113.789 127.763 136.346  0.00  0.00    +0.000 OA
ATOM     22  C   UNL     1     114.066 128.432 135.949  0.00  0.00    +0.000 C 
ENDBRANCH   3  21
BRANCH   9  23
ATOM     23  O   UNL     1     110.519 125.898 136.007  0.00  0.00    +0.000 OA
ATOM     24  C   UNL     1     110.457 125.318 135.422  0.00  0.00    +0.000 C 
ENDBRANCH   9  23
BRANCH  12  25
ATOM     25  O   UNL     1     109.396 126.896 135.325  0.00  0.00    +0.000 OA
ATOM     26  C   UNL     1     108.771 127.171 135.789  0.00  0.00    +0.000 C 
ENDBRANCH  12  25
TORSDOF 4
ENDMDL
