MODEL 1
REMARK VINA RESULT:      -8.6      0.000      0.000
REMARK  Name = 131834172
REMARK  4 active torsions:
REMARK  status: ('A' for Active; 'I' for Inactive)
REMARK    1  A    between atoms: S_1  and  O_5
REMARK    2  A    between atoms: O_5  and  C_21
REMARK    3  A    between atoms: O_7  and  C_22
REMARK    4  A    between atoms: C_11  and  C_15
REMARK                            x       y       z     vdW  Elec       q    Type
REMARK                         _______ _______ _______ _____ _____    ______ ____
ROOT
ATOM      1  O   UNL     1     105.007 124.227 147.048  0.00  0.00    +0.000 OA
ATOM      2  O   UNL     1     104.530 124.525 144.879  0.00  0.00    +0.000 OA
ATOM      3  O   UNL     1     107.203 125.615 145.772  0.00  0.00    +0.000 OA
ATOM      4  O   UNL     1     108.014 125.660 147.208  0.00  0.00    +0.000 OA
ATOM      5  C   UNL     1     104.933 124.546 145.599  0.00  0.00    +0.000 C 
ATOM      6  C   UNL     1     104.580 124.201 146.302  0.00  0.00    +0.000 C 
ATOM      7  C   UNL     1     105.708 124.913 145.651  0.00  0.00    +0.000 C 
ATOM      8  C   UNL     1     106.120 124.930 146.404  0.00  0.00    +0.000 A 
ATOM      9  C   UNL     1     105.781 124.598 147.080  0.00  0.00    +0.000 A 
ATOM     10  C   UNL     1     106.865 125.284 146.447  0.00  0.00    +0.000 A 
ATOM     11  C   UNL     1     106.187 124.621 147.798  0.00  0.00    +0.000 A 
ATOM     12  C   UNL     1     107.269 125.306 147.166  0.00  0.00    +0.000 A 
ATOM     13  C   UNL     1     106.930 124.975 147.841  0.00  0.00    +0.000 A 
ENDROOT
BRANCH   6  14
ATOM     14  C   UNL     1     103.836 123.846 146.262  0.00  0.00    +0.000 A 
ATOM     15  C   UNL     1     103.173 124.244 146.551  0.00  0.00    +0.000 A 
ATOM     16  C   UNL     1     103.755 123.094 145.934  0.00  0.00    +0.000 A 
ATOM     17  C   UNL     1     102.429 123.891 146.511  0.00  0.00    +0.000 A 
ATOM     18  C   UNL     1     103.010 122.740 145.894  0.00  0.00    +0.000 A 
ATOM     19  C   UNL     1     102.347 123.138 146.182  0.00  0.00    +0.000 A 
BRANCH  17  20
ATOM     20  O   UNL     1     101.768 124.288 146.800  0.00  0.00    +0.000 OA
ATOM     21  C   UNL     1     101.080 123.869 146.982  0.00  0.00    +0.000 C 
ENDBRANCH  17  20
ENDBRANCH   6  14
BRANCH  13  22
ATOM     22  O   UNL     1     107.336 124.997 148.559  0.00  0.00    +0.000 OA
BRANCH  22  23
ATOM     23  S   UNL     1     106.998 124.665 149.234  0.00  0.00    +0.000 S 
ATOM     24  O   UNL     1     106.370 125.044 149.611  0.00  0.00    +0.000 OA
ATOM     25  O   UNL     1     107.288 123.952 149.533  0.00  0.00    +0.000 OA
ENDBRANCH  22  23
ENDBRANCH  13  22
TORSDOF 4
ENDMDL
MODEL 2
REMARK VINA RESULT:      -8.3      5.847      7.065
REMARK  Name = 131834172
REMARK  4 active torsions:
REMARK  status: ('A' for Active; 'I' for Inactive)
REMARK    1  A    between atoms: S_1  and  O_5
REMARK    2  A    between atoms: O_5  and  C_21
REMARK    3  A    between atoms: O_7  and  C_22
REMARK    4  A    between atoms: C_11  and  C_15
REMARK                            x       y       z     vdW  Elec       q    Type
REMARK                         _______ _______ _______ _____ _____    ______ ____
ROOT
ATOM      1  O   UNL     1     104.970 124.879 140.160  0.00  0.00    +0.000 OA
ATOM      2  O   UNL     1     105.517 122.739 139.781  0.00  0.00    +0.000 OA
ATOM      3  O   UNL     1     107.275 124.186 141.768  0.00  0.00    +0.000 OA
ATOM      4  O   UNL     1     107.309 125.717 142.384  0.00  0.00    +0.000 OA
ATOM      5  C   UNL     1     105.531 123.505 140.087  0.00  0.00    +0.000 C 
ATOM      6  C   UNL     1     104.947 124.083 139.835  0.00  0.00    +0.000 C 
ATOM      7  C   UNL     1     106.130 123.731 140.661  0.00  0.00    +0.000 C 
ATOM      8  C   UNL     1     106.137 124.531 140.975  0.00  0.00    +0.000 A 
ATOM      9  C   UNL     1     105.576 125.085 140.732  0.00  0.00    +0.000 A 
ATOM     10  C   UNL     1     106.715 124.741 141.526  0.00  0.00    +0.000 A 
ATOM     11  C   UNL     1     105.594 125.851 141.041  0.00  0.00    +0.000 A 
ATOM     12  C   UNL     1     106.731 125.506 141.833  0.00  0.00    +0.000 A 
ATOM     13  C   UNL     1     106.171 126.061 141.591  0.00  0.00    +0.000 A 
ENDROOT
BRANCH   6  14
ATOM     14  C   UNL     1     104.369 123.875 139.284  0.00  0.00    +0.000 A 
ATOM     15  C   UNL     1     104.555 123.848 138.481  0.00  0.00    +0.000 A 
ATOM     16  C   UNL     1     103.605 123.695 139.537  0.00  0.00    +0.000 A 
ATOM     17  C   UNL     1     103.978 123.641 137.930  0.00  0.00    +0.000 A 
ATOM     18  C   UNL     1     103.026 123.488 138.986  0.00  0.00    +0.000 A 
ATOM     19  C   UNL     1     103.213 123.460 138.182  0.00  0.00    +0.000 A 
BRANCH  17  20
ATOM     20  O   UNL     1     104.164 123.613 137.127  0.00  0.00    +0.000 OA
ATOM     21  C   UNL     1     103.743 123.114 136.622  0.00  0.00    +0.000 C 
ENDBRANCH  17  20
ENDBRANCH   6  14
BRANCH  13  22
ATOM     22  O   UNL     1     106.188 126.826 141.899  0.00  0.00    +0.000 OA
BRANCH  22  23
ATOM     23  S   UNL     1     105.498 127.278 141.920  0.00  0.00    +0.000 S 
ATOM     24  O   UNL     1     104.965 127.189 142.543  0.00  0.00    +0.000 OA
ATOM     25  O   UNL     1     105.340 127.819 141.317  0.00  0.00    +0.000 OA
ENDBRANCH  22  23
ENDBRANCH  13  22
TORSDOF 4
ENDMDL
MODEL 3
REMARK VINA RESULT:      -8.1      1.657      4.549
REMARK  Name = 131834172
REMARK  4 active torsions:
REMARK  status: ('A' for Active; 'I' for Inactive)
REMARK    1  A    between atoms: S_1  and  O_5
REMARK    2  A    between atoms: O_5  and  C_21
REMARK    3  A    between atoms: O_7  and  C_22
REMARK    4  A    between atoms: C_11  and  C_15
REMARK                            x       y       z     vdW  Elec       q    Type
REMARK                         _______ _______ _______ _____ _____    ______ ____
ROOT
ATOM      1  O   UNL     1     104.052 124.330 147.546  0.00  0.00    +0.000 OA
ATOM      2  O   UNL     1     105.682 124.464 146.015  0.00  0.00    +0.000 OA
ATOM      3  O   UNL     1     103.112 123.197 145.054  0.00  0.00    +0.000 OA
ATOM      4  O   UNL     1     101.653 122.866 145.750  0.00  0.00    +0.000 OA
ATOM      5  C   UNL     1     104.954 124.300 146.367  0.00  0.00    +0.000 C 
ATOM      6  C   UNL     1     104.814 124.505 147.189  0.00  0.00    +0.000 C 
ATOM      7  C   UNL     1     104.329 123.923 145.912  0.00  0.00    +0.000 C 
ATOM      8  C   UNL     1     103.574 123.756 146.286  0.00  0.00    +0.000 A 
ATOM      9  C   UNL     1     103.440 123.953 147.076  0.00  0.00    +0.000 A 
ATOM     10  C   UNL     1     102.978 123.394 145.844  0.00  0.00    +0.000 A 
ATOM     11  C   UNL     1     102.710 123.787 147.424  0.00  0.00    +0.000 A 
ATOM     12  C   UNL     1     102.249 123.229 146.192  0.00  0.00    +0.000 A 
ATOM     13  C   UNL     1     102.115 123.426 146.982  0.00  0.00    +0.000 A 
ENDROOT
BRANCH   6  14
ATOM     14  C   UNL     1     105.407 124.867 147.633  0.00  0.00    +0.000 A 
ATOM     15  C   UNL     1     105.914 124.409 148.096  0.00  0.00    +0.000 A 
ATOM     16  C   UNL     1     105.494 125.688 147.614  0.00  0.00    +0.000 A 
ATOM     17  C   UNL     1     106.508 124.770 148.540  0.00  0.00    +0.000 A 
ATOM     18  C   UNL     1     106.089 126.049 148.059  0.00  0.00    +0.000 A 
ATOM     19  C   UNL     1     106.595 125.591 148.522  0.00  0.00    +0.000 A 
BRANCH  17  20
ATOM     20  O   UNL     1     107.014 124.312 149.003  0.00  0.00    +0.000 OA
ATOM     21  C   UNL     1     107.809 124.520 149.075  0.00  0.00    +0.000 C 
ENDBRANCH  17  20
ENDBRANCH   6  14
BRANCH  13  22
ATOM     22  O   UNL     1     101.385 123.260 147.330  0.00  0.00    +0.000 OA
BRANCH  22  23
ATOM     23  S   UNL     1     101.285 123.355 148.143  0.00  0.00    +0.000 S 
ATOM     24  O   UNL     1     101.481 122.741 148.658  0.00  0.00    +0.000 OA
ATOM     25  O   UNL     1     100.990 124.066 148.443  0.00  0.00    +0.000 OA
ENDBRANCH  22  23
ENDBRANCH  13  22
TORSDOF 4
ENDMDL
MODEL 4
REMARK VINA RESULT:      -8.1      1.534      2.792
REMARK  Name = 131834172
REMARK  4 active torsions:
REMARK  status: ('A' for Active; 'I' for Inactive)
REMARK    1  A    between atoms: S_1  and  O_5
REMARK    2  A    between atoms: O_5  and  C_21
REMARK    3  A    between atoms: O_7  and  C_22
REMARK    4  A    between atoms: C_11  and  C_15
REMARK                            x       y       z     vdW  Elec       q    Type
REMARK                         _______ _______ _______ _____ _____    ______ ____
ROOT
ATOM      1  O   UNL     1     103.995 124.676 146.265  0.00  0.00    +0.000 OA
ATOM      2  O   UNL     1     103.694 124.219 148.438  0.00  0.00    +0.000 OA
ATOM      3  O   UNL     1     106.518 124.955 147.654  0.00  0.00    +0.000 OA
ATOM      4  O   UNL     1     107.257 125.367 146.237  0.00  0.00    +0.000 OA
ATOM      5  C   UNL     1     104.060 124.425 147.727  0.00  0.00    +0.000 C 
ATOM      6  C   UNL     1     103.604 124.460 147.000  0.00  0.00    +0.000 C 
ATOM      7  C   UNL     1     104.901 124.605 147.710  0.00  0.00    +0.000 C 
ATOM      8  C   UNL     1     105.273 124.818 146.966  0.00  0.00    +0.000 A 
ATOM      9  C   UNL     1     104.835 124.852 146.267  0.00  0.00    +0.000 A 
ATOM     10  C   UNL     1     106.081 124.989 146.956  0.00  0.00    +0.000 A 
ATOM     11  C   UNL     1     105.205 125.058 145.559  0.00  0.00    +0.000 A 
ATOM     12  C   UNL     1     106.449 125.195 146.247  0.00  0.00    +0.000 A 
ATOM     13  C   UNL     1     106.011 125.229 145.548  0.00  0.00    +0.000 A 
ENDROOT
BRANCH   6  14
ATOM     14  C   UNL     1     102.797 124.289 147.007  0.00  0.00    +0.000 A 
ATOM     15  C   UNL     1     102.518 123.600 146.650  0.00  0.00    +0.000 A 
ATOM     16  C   UNL     1     102.269 124.808 147.371  0.00  0.00    +0.000 A 
ATOM     17  C   UNL     1     101.712 123.428 146.656  0.00  0.00    +0.000 A 
ATOM     18  C   UNL     1     101.461 124.636 147.378  0.00  0.00    +0.000 A 
ATOM     19  C   UNL     1     101.183 123.946 147.021  0.00  0.00    +0.000 A 
BRANCH  17  20
ATOM     20  O   UNL     1     101.434 122.739 146.299  0.00  0.00    +0.000 OA
ATOM     21  C   UNL     1     100.726 122.751 145.875  0.00  0.00    +0.000 C 
ENDBRANCH  17  20
ENDBRANCH   6  14
BRANCH  13  22
ATOM     22  O   UNL     1     106.381 125.435 144.840  0.00  0.00    +0.000 OA
BRANCH  22  23
ATOM     23  S   UNL     1     105.983 125.338 144.124  0.00  0.00    +0.000 S 
ATOM     24  O   UNL     1     105.992 124.607 143.742  0.00  0.00    +0.000 OA
ATOM     25  O   UNL     1     105.575 125.973 143.789  0.00  0.00    +0.000 OA
ENDBRANCH  22  23
ENDBRANCH  13  22
TORSDOF 4
ENDMDL
MODEL 5
REMARK VINA RESULT:      -8.0      1.186      1.707
REMARK  Name = 131834172
REMARK  4 active torsions:
REMARK  status: ('A' for Active; 'I' for Inactive)
REMARK    1  A    between atoms: S_1  and  O_5
REMARK    2  A    between atoms: O_5  and  C_21
REMARK    3  A    between atoms: O_7  and  C_22
REMARK    4  A    between atoms: C_11  and  C_15
REMARK                            x       y       z     vdW  Elec       q    Type
REMARK                         _______ _______ _______ _____ _____    ______ ____
ROOT
ATOM      1  O   UNL     1     104.124 124.550 147.657  0.00  0.00    +0.000 OA
ATOM      2  O   UNL     1     102.917 123.997 145.852  0.00  0.00    +0.000 OA
ATOM      3  O   UNL     1     105.846 124.524 145.331  0.00  0.00    +0.000 OA
ATOM      4  O   UNL     1     107.132 124.951 146.274  0.00  0.00    +0.000 OA
ATOM      5  C   UNL     1     103.557 124.210 146.327  0.00  0.00    +0.000 C 
ATOM      6  C   UNL     1     103.450 124.328 147.171  0.00  0.00    +0.000 C 
ATOM      7  C   UNL     1     104.337 124.316 145.980  0.00  0.00    +0.000 C 
ATOM      8  C   UNL     1     104.998 124.538 146.481  0.00  0.00    +0.000 A 
ATOM      9  C   UNL     1     104.895 124.651 147.292  0.00  0.00    +0.000 A 
ATOM     10  C   UNL     1     105.744 124.638 146.141  0.00  0.00    +0.000 A 
ATOM     11  C   UNL     1     105.538 124.865 147.763  0.00  0.00    +0.000 A 
ATOM     12  C   UNL     1     106.386 124.851 146.613  0.00  0.00    +0.000 A 
ATOM     13  C   UNL     1     106.283 124.964 147.424  0.00  0.00    +0.000 A 
ENDROOT
BRANCH   6  14
ATOM     14  C   UNL     1     102.706 124.229 147.513  0.00  0.00    +0.000 A 
ATOM     15  C   UNL     1     102.529 123.534 147.921  0.00  0.00    +0.000 A 
ATOM     16  C   UNL     1     102.139 124.825 147.447  0.00  0.00    +0.000 A 
ATOM     17  C   UNL     1     101.786 123.434 148.263  0.00  0.00    +0.000 A 
ATOM     18  C   UNL     1     101.395 124.725 147.789  0.00  0.00    +0.000 A 
ATOM     19  C   UNL     1     101.217 124.030 148.197  0.00  0.00    +0.000 A 
BRANCH  17  20
ATOM     20  O   UNL     1     101.609 122.740 148.671  0.00  0.00    +0.000 OA
ATOM     21  C   UNL     1     101.425 122.768 149.475  0.00  0.00    +0.000 C 
ENDBRANCH  17  20
ENDBRANCH   6  14
BRANCH  13  22
ATOM     22  O   UNL     1     106.926 125.178 147.895  0.00  0.00    +0.000 OA
BRANCH  22  23
ATOM     23  S   UNL     1     106.947 124.955 148.689  0.00  0.00    +0.000 S 
ATOM     24  O   UNL     1     106.697 125.481 149.273  0.00  0.00    +0.000 OA
ATOM     25  O   UNL     1     107.219 124.204 148.900  0.00  0.00    +0.000 OA
ENDBRANCH  22  23
ENDBRANCH  13  22
TORSDOF 4
ENDMDL
MODEL 6
REMARK VINA RESULT:      -8.0     12.953     14.597
REMARK  Name = 131834172
REMARK  4 active torsions:
REMARK  status: ('A' for Active; 'I' for Inactive)
REMARK    1  A    between atoms: S_1  and  O_5
REMARK    2  A    between atoms: O_5  and  C_21
REMARK    3  A    between atoms: O_7  and  C_22
REMARK    4  A    between atoms: C_11  and  C_15
REMARK                            x       y       z     vdW  Elec       q    Type
REMARK                         _______ _______ _______ _____ _____    ______ ____
ROOT
ATOM      1  O   UNL     1     113.789 127.855 136.379  0.00  0.00    +0.000 OA
ATOM      2  O   UNL     1     112.295 129.233 135.436  0.00  0.00    +0.000 OA
ATOM      3  O   UNL     1     111.336 126.402 135.880  0.00  0.00    +0.000 OA
ATOM      4  O   UNL     1     112.012 125.037 136.515  0.00  0.00    +0.000 OA
ATOM      5  C   UNL     1     112.636 128.552 135.755  0.00  0.00    +0.000 C 
ATOM      6  C   UNL     1     113.443 128.569 136.049  0.00  0.00    +0.000 C 
ATOM      7  C   UNL     1     112.186 127.821 135.794  0.00  0.00    +0.000 C 
ATOM      8  C   UNL     1     112.549 127.117 136.127  0.00  0.00    +0.000 A 
ATOM      9  C   UNL     1     113.324 127.134 136.410  0.00  0.00    +0.000 A 
ATOM     10  C   UNL     1     112.111 126.418 136.162  0.00  0.00    +0.000 A 
ATOM     11  C   UNL     1     113.661 126.451 136.727  0.00  0.00    +0.000 A 
ATOM     12  C   UNL     1     112.449 125.736 136.480  0.00  0.00    +0.000 A 
ATOM     13  C   UNL     1     113.224 125.753 136.763  0.00  0.00    +0.000 A 
ENDROOT
BRANCH   6  14
ATOM     14  C   UNL     1     113.882 129.267 136.015  0.00  0.00    +0.000 A 
ATOM     15  C   UNL     1     114.420 129.386 135.400  0.00  0.00    +0.000 A 
ATOM     16  C   UNL     1     113.784 129.845 136.595  0.00  0.00    +0.000 A 
ATOM     17  C   UNL     1     114.860 130.083 135.365  0.00  0.00    +0.000 A 
ATOM     18  C   UNL     1     114.225 130.542 136.561  0.00  0.00    +0.000 A 
ATOM     19  C   UNL     1     114.762 130.662 135.946  0.00  0.00    +0.000 A 
BRANCH  17  20
ATOM     20  O   UNL     1     115.397 130.202 134.752  0.00  0.00    +0.000 OA
ATOM     21  C   UNL     1     115.708 130.954 134.615  0.00  0.00    +0.000 C 
ENDBRANCH  17  20
ENDBRANCH   6  14
BRANCH  13  22
ATOM     22  O   UNL     1     113.561 125.070 137.080  0.00  0.00    +0.000 OA
BRANCH  22  23
ATOM     23  S   UNL     1     114.370 125.046 137.240  0.00  0.00    +0.000 S 
ATOM     24  O   UNL     1     114.649 125.245 137.991  0.00  0.00    +0.000 OA
ATOM     25  O   UNL     1     114.902 124.823 136.649  0.00  0.00    +0.000 OA
ENDBRANCH  22  23
ENDBRANCH  13  22
TORSDOF 4
ENDMDL
MODEL 7
REMARK VINA RESULT:      -8.0      9.510     11.185
REMARK  Name = 131834172
REMARK  4 active torsions:
REMARK  status: ('A' for Active; 'I' for Inactive)
REMARK    1  A    between atoms: S_1  and  O_5
REMARK    2  A    between atoms: O_5  and  C_21
REMARK    3  A    between atoms: O_7  and  C_22
REMARK    4  A    between atoms: C_11  and  C_15
REMARK                            x       y       z     vdW  Elec       q    Type
REMARK                         _______ _______ _______ _____ _____    ______ ____
ROOT
ATOM      1  O   UNL     1     111.957 125.833 138.672  0.00  0.00    +0.000 OA
ATOM      2  O   UNL     1     113.812 125.692 137.423  0.00  0.00    +0.000 OA
ATOM      3  O   UNL     1     114.161 127.047 140.102  0.00  0.00    +0.000 OA
ATOM      4  O   UNL     1     113.154 127.400 141.361  0.00  0.00    +0.000 OA
ATOM      5  C   UNL     1     113.306 125.867 138.051  0.00  0.00    +0.000 C 
ATOM      6  C   UNL     1     112.476 125.647 138.013  0.00  0.00    +0.000 C 
ATOM      7  C   UNL     1     113.605 126.270 138.749  0.00  0.00    +0.000 C 
ATOM      8  C   UNL     1     113.071 126.448 139.398  0.00  0.00    +0.000 A 
ATOM      9  C   UNL     1     112.274 126.237 139.360  0.00  0.00    +0.000 A 
ATOM     10  C   UNL     1     113.364 126.836 140.065  0.00  0.00    +0.000 A 
ATOM     11  C   UNL     1     111.771 126.414 139.990  0.00  0.00    +0.000 A 
ATOM     12  C   UNL     1     112.861 127.012 140.694  0.00  0.00    +0.000 A 
ATOM     13  C   UNL     1     112.064 126.801 140.656  0.00  0.00    +0.000 A 
ENDROOT
BRANCH   6  14
ATOM     14  C   UNL     1     112.180 125.259 137.347  0.00  0.00    +0.000 A 
ATOM     15  C   UNL     1     111.825 125.692 136.741  0.00  0.00    +0.000 A 
ATOM     16  C   UNL     1     112.239 124.438 137.288  0.00  0.00    +0.000 A 
ATOM     17  C   UNL     1     111.529 125.306 136.076  0.00  0.00    +0.000 A 
ATOM     18  C   UNL     1     111.943 124.051 136.621  0.00  0.00    +0.000 A 
ATOM     19  C   UNL     1     111.588 124.484 136.015  0.00  0.00    +0.000 A 
BRANCH  17  20
ATOM     20  O   UNL     1     111.175 125.739 135.470  0.00  0.00    +0.000 OA
ATOM     21  C   UNL     1     110.413 125.548 135.218  0.00  0.00    +0.000 C 
ENDBRANCH  17  20
ENDBRANCH   6  14
BRANCH  13  22
ATOM     22  O   UNL     1     111.561 126.977 141.286  0.00  0.00    +0.000 OA
BRANCH  22  23
ATOM     23  S   UNL     1     110.776 126.724 141.270  0.00  0.00    +0.000 S 
ATOM     24  O   UNL     1     110.192 127.209 140.947  0.00  0.00    +0.000 OA
ATOM     25  O   UNL     1     110.574 125.985 141.577  0.00  0.00    +0.000 OA
ENDBRANCH  22  23
ENDBRANCH  13  22
TORSDOF 4
ENDMDL
MODEL 8
REMARK VINA RESULT:      -7.9     10.985     12.452
REMARK  Name = 131834172
REMARK  4 active torsions:
REMARK  status: ('A' for Active; 'I' for Inactive)
REMARK    1  A    between atoms: S_1  and  O_5
REMARK    2  A    between atoms: O_5  and  C_21
REMARK    3  A    between atoms: O_7  and  C_22
REMARK    4  A    between atoms: C_11  and  C_15
REMARK                            x       y       z     vdW  Elec       q    Type
REMARK                         _______ _______ _______ _____ _____    ______ ____
ROOT
ATOM      1  O   UNL     1     111.047 126.089 136.938  0.00  0.00    +0.000 OA
ATOM      2  O   UNL     1     110.951 124.723 135.164  0.00  0.00    +0.000 OA
ATOM      3  O   UNL     1     108.875 126.919 135.214  0.00  0.00    +0.000 OA
ATOM      4  O   UNL     1     108.517 128.150 136.253  0.00  0.00    +0.000 OA
ATOM      5  C   UNL     1     110.774 125.338 135.686  0.00  0.00    +0.000 C 
ATOM      6  C   UNL     1     111.239 125.445 136.400  0.00  0.00    +0.000 C 
ATOM      7  C   UNL     1     110.124 125.874 135.518  0.00  0.00    +0.000 C 
ATOM      8  C   UNL     1     109.948 126.511 136.067  0.00  0.00    +0.000 A 
ATOM      9  C   UNL     1     110.394 126.615 136.753  0.00  0.00    +0.000 A 
ATOM     10  C   UNL     1     109.322 127.023 135.900  0.00  0.00    +0.000 A 
ATOM     11  C   UNL     1     110.214 127.230 137.272  0.00  0.00    +0.000 A 
ATOM     12  C   UNL     1     109.143 127.638 136.420  0.00  0.00    +0.000 A 
ATOM     13  C   UNL     1     109.590 127.742 137.106  0.00  0.00    +0.000 A 
ENDROOT
BRANCH   6  14
ATOM     14  C   UNL     1     111.865 124.935 136.569  0.00  0.00    +0.000 A 
ATOM     15  C   UNL     1     112.640 125.166 136.407  0.00  0.00    +0.000 A 
ATOM     16  C   UNL     1     111.715 124.195 136.901  0.00  0.00    +0.000 A 
ATOM     17  C   UNL     1     113.267 124.656 136.575  0.00  0.00    +0.000 A 
ATOM     18  C   UNL     1     112.342 123.685 137.070  0.00  0.00    +0.000 A 
ATOM     19  C   UNL     1     113.118 123.915 136.907  0.00  0.00    +0.000 A 
BRANCH  17  20
ATOM     20  O   UNL     1     114.041 124.886 136.412  0.00  0.00    +0.000 OA
ATOM     21  C   UNL     1     114.596 124.931 137.022  0.00  0.00    +0.000 C 
ENDBRANCH  17  20
ENDBRANCH   6  14
BRANCH  13  22
ATOM     22  O   UNL     1     109.410 128.357 137.626  0.00  0.00    +0.000 OA
BRANCH  22  23
ATOM     23  S   UNL     1     109.807 128.418 138.346  0.00  0.00    +0.000 S 
ATOM     24  O   UNL     1     109.506 128.043 139.016  0.00  0.00    +0.000 OA
ATOM     25  O   UNL     1     110.507 128.853 138.397  0.00  0.00    +0.000 OA
ENDBRANCH  22  23
ENDBRANCH  13  22
TORSDOF 4
ENDMDL
MODEL 9
REMARK VINA RESULT:      -7.9     12.253     12.763
REMARK  Name = 131834172
REMARK  4 active torsions:
REMARK  status: ('A' for Active; 'I' for Inactive)
REMARK    1  A    between atoms: S_1  and  O_5
REMARK    2  A    between atoms: O_5  and  C_21
REMARK    3  A    between atoms: O_7  and  C_22
REMARK    4  A    between atoms: C_11  and  C_15
REMARK                            x       y       z     vdW  Elec       q    Type
REMARK                         _______ _______ _______ _____ _____    ______ ____
ROOT
ATOM      1  O   UNL     1     111.527 126.430 136.227  0.00  0.00    +0.000 OA
ATOM      2  O   UNL     1     109.820 125.708 134.967  0.00  0.00    +0.000 OA
ATOM      3  O   UNL     1     111.584 123.538 136.114  0.00  0.00    +0.000 OA
ATOM      4  O   UNL     1     112.926 123.524 137.074  0.00  0.00    +0.000 OA
ATOM      5  C   UNL     1     110.491 125.704 135.447  0.00  0.00    +0.000 C 
ATOM      6  C   UNL     1     110.827 126.444 135.727  0.00  0.00    +0.000 C 
ATOM      7  C   UNL     1     110.859 124.960 135.671  0.00  0.00    +0.000 C 
ATOM      8  C   UNL     1     111.557 124.966 136.171  0.00  0.00    +0.000 A 
ATOM      9  C   UNL     1     111.880 125.676 136.440  0.00  0.00    +0.000 A 
ATOM     10  C   UNL     1     111.906 124.248 136.383  0.00  0.00    +0.000 A 
ATOM     11  C   UNL     1     112.551 125.669 136.920  0.00  0.00    +0.000 A 
ATOM     12  C   UNL     1     112.577 124.242 136.862  0.00  0.00    +0.000 A 
ATOM     13  C   UNL     1     112.900 124.952 137.131  0.00  0.00    +0.000 A 
ENDROOT
BRANCH   6  14
ATOM     14  C   UNL     1     110.481 127.163 135.517  0.00  0.00    +0.000 A 
ATOM     15  C   UNL     1     109.904 127.499 136.002  0.00  0.00    +0.000 A 
ATOM     16  C   UNL     1     110.711 127.545 134.823  0.00  0.00    +0.000 A 
ATOM     17  C   UNL     1     109.557 128.218 135.793  0.00  0.00    +0.000 A 
ATOM     18  C   UNL     1     110.364 128.264 134.614  0.00  0.00    +0.000 A 
ATOM     19  C   UNL     1     109.787 128.600 135.098  0.00  0.00    +0.000 A 
BRANCH  17  20
ATOM     20  O   UNL     1     108.980 128.554 136.277  0.00  0.00    +0.000 OA
ATOM     21  C   UNL     1     109.006 129.360 136.450  0.00  0.00    +0.000 C 
ENDBRANCH  17  20
ENDBRANCH   6  14
BRANCH  13  22
ATOM     22  O   UNL     1     113.571 124.944 137.611  0.00  0.00    +0.000 OA
BRANCH  22  23
ATOM     23  S   UNL     1     114.008 125.636 137.719  0.00  0.00    +0.000 S 
ATOM     24  O   UNL     1     114.580 125.853 137.166  0.00  0.00    +0.000 OA
ATOM     25  O   UNL     1     113.873 126.110 138.381  0.00  0.00    +0.000 OA
ENDBRANCH  22  23
ENDBRANCH  13  22
TORSDOF 4
ENDMDL
MODEL 10
REMARK VINA RESULT:      -7.8      9.840     10.860
REMARK  Name = 131834172
REMARK  4 active torsions:
REMARK  status: ('A' for Active; 'I' for Inactive)
REMARK    1  A    between atoms: S_1  and  O_5
REMARK    2  A    between atoms: O_5  and  C_21
REMARK    3  A    between atoms: O_7  and  C_22
REMARK    4  A    between atoms: C_11  and  C_15
REMARK                            x       y       z     vdW  Elec       q    Type
REMARK                         _______ _______ _______ _____ _____    ______ ____
ROOT
ATOM      1  O   UNL     1     102.948 132.664 141.265  0.00  0.00    +0.000 OA
ATOM      2  O   UNL     1     101.060 131.670 141.949  0.00  0.00    +0.000 OA
ATOM      3  O   UNL     1     101.011 134.691 141.984  0.00  0.00    +0.000 OA
ATOM      4  O   UNL     1     102.096 135.871 141.594  0.00  0.00    +0.000 OA
ATOM      5  C   UNL     1     101.606 132.257 141.753  0.00  0.00    +0.000 C 
ATOM      6  C   UNL     1     102.387 132.045 141.467  0.00  0.00    +0.000 C 
ATOM      7  C   UNL     1     101.395 133.087 141.835  0.00  0.00    +0.000 C 
ATOM      8  C   UNL     1     101.969 133.692 141.628  0.00  0.00    +0.000 A 
ATOM      9  C   UNL     1     102.720 133.487 141.353  0.00  0.00    +0.000 A 
ATOM     10  C   UNL     1     101.761 134.487 141.709  0.00  0.00    +0.000 A 
ATOM     11  C   UNL     1     103.262 134.078 141.158  0.00  0.00    +0.000 A 
ATOM     12  C   UNL     1     102.304 135.076 141.514  0.00  0.00    +0.000 A 
ATOM     13  C   UNL     1     103.055 134.872 141.238  0.00  0.00    +0.000 A 
ENDROOT
BRANCH   6  14
ATOM     14  C   UNL     1     102.597 131.251 141.385  0.00  0.00    +0.000 A 
ATOM     15  C   UNL     1     102.586 130.895 140.641  0.00  0.00    +0.000 A 
ATOM     16  C   UNL     1     102.819 130.813 142.049  0.00  0.00    +0.000 A 
ATOM     17  C   UNL     1     102.796 130.102 140.559  0.00  0.00    +0.000 A 
ATOM     18  C   UNL     1     103.029 130.019 141.967  0.00  0.00    +0.000 A 
ATOM     19  C   UNL     1     103.018 129.663 141.222  0.00  0.00    +0.000 A 
BRANCH  17  20
ATOM     20  O   UNL     1     102.785 129.747 139.815  0.00  0.00    +0.000 OA
ATOM     21  C   UNL     1     102.270 129.120 139.664  0.00  0.00    +0.000 C 
ENDBRANCH  17  20
ENDBRANCH   6  14
BRANCH  13  22
ATOM     22  O   UNL     1     103.597 135.463 141.043  0.00  0.00    +0.000 OA
BRANCH  22  23
ATOM     23  S   UNL     1     104.392 135.271 140.932  0.00  0.00    +0.000 S 
ATOM     24  O   UNL     1     104.903 135.240 141.578  0.00  0.00    +0.000 OA
ATOM     25  O   UNL     1     104.675 135.112 140.173  0.00  0.00    +0.000 OA
ENDBRANCH  22  23
ENDBRANCH  13  22
TORSDOF 4
ENDMDL
