MODEL 1
REMARK VINA RESULT:      -8.2      0.000      0.000
REMARK  Name = 14585506
REMARK  3 active torsions:
REMARK  status: ('A' for Active; 'I' for Inactive)
REMARK    1  A    between atoms: O_2  and  C_9
REMARK    2  A    between atoms: O_3  and  C_13
REMARK    3  A    between atoms: C_10  and  C_15
REMARK                            x       y       z     vdW  Elec       q    Type
REMARK                         _______ _______ _______ _____ _____    ______ ____
ROOT
ATOM      1  O   UNL     1     105.025 124.343 147.402  0.00  0.00    +0.000 OA
ATOM      2  O   UNL     1     107.453 125.519 146.356  0.00  0.00    +0.000 OA
ATOM      3  O   UNL     1     106.334 125.318 145.467  0.00  0.00    +0.000 OA
ATOM      4  C   UNL     1     106.255 124.938 146.875  0.00  0.00    +0.000 A 
ATOM      5  C   UNL     1     105.831 124.621 147.507  0.00  0.00    +0.000 A 
ATOM      6  C   UNL     1     106.181 124.567 148.253  0.00  0.00    +0.000 A 
ATOM      7  C   UNL     1     104.655 124.396 146.628  0.00  0.00    +0.000 A 
ATOM      8  C   UNL     1     107.029 125.202 146.988  0.00  0.00    +0.000 A 
ATOM      9  C   UNL     1     105.903 124.999 146.094  0.00  0.00    +0.000 A 
ATOM     10  C   UNL     1     106.954 124.831 148.366  0.00  0.00    +0.000 A 
ATOM     11  C   UNL     1     105.097 124.726 145.970  0.00  0.00    +0.000 A 
ATOM     12  C   UNL     1     107.378 125.148 147.733  0.00  0.00    +0.000 A 
ENDROOT
BRANCH   7  14
ATOM     13  O   UNL     1     101.561 123.338 146.190  0.00  0.00    +0.000 OA
ATOM     14  C   UNL     1     103.882 124.132 146.519  0.00  0.00    +0.000 A 
ATOM     15  C   UNL     1     103.247 124.594 146.772  0.00  0.00    +0.000 A 
ATOM     16  C   UNL     1     103.742 123.404 146.155  0.00  0.00    +0.000 A 
ATOM     17  C   UNL     1     102.475 124.330 146.663  0.00  0.00    +0.000 A 
ATOM     18  C   UNL     1     102.968 123.139 146.045  0.00  0.00    +0.000 A 
ATOM     19  C   UNL     1     102.335 123.602 146.299  0.00  0.00    +0.000 A 
ENDBRANCH   7  14
BRANCH   6  20
ATOM     20  O   UNL     1     105.756 124.250 148.886  0.00  0.00    +0.000 OA
ATOM     21  C   UNL     1     105.493 124.741 149.493  0.00  0.00    +0.000 C 
ENDBRANCH   6  20
BRANCH  10  22
ATOM     22  O   UNL     1     107.304 124.777 149.112  0.00  0.00    +0.000 OA
ATOM     23  C   UNL     1     108.102 124.582 149.179  0.00  0.00    +0.000 C 
ENDBRANCH  10  22
TORSDOF 3
ENDMDL
MODEL 2
REMARK VINA RESULT:      -7.9      1.121      4.419
REMARK  Name = 14585506
REMARK  3 active torsions:
REMARK  status: ('A' for Active; 'I' for Inactive)
REMARK    1  A    between atoms: O_2  and  C_9
REMARK    2  A    between atoms: O_3  and  C_13
REMARK    3  A    between atoms: C_10  and  C_15
REMARK                            x       y       z     vdW  Elec       q    Type
REMARK                         _______ _______ _______ _____ _____    ______ ____
ROOT
ATOM      1  O   UNL     1     104.728 124.215 146.863  0.00  0.00    +0.000 OA
ATOM      2  O   UNL     1     102.034 125.006 147.561  0.00  0.00    +0.000 OA
ATOM      3  O   UNL     1     103.145 125.714 148.150  0.00  0.00    +0.000 OA
ATOM      4  C   UNL     1     103.363 124.614 147.215  0.00  0.00    +0.000 A 
ATOM      5  C   UNL     1     103.877 124.124 146.795  0.00  0.00    +0.000 A 
ATOM      6  C   UNL     1     103.574 123.536 146.300  0.00  0.00    +0.000 A 
ATOM      7  C   UNL     1     105.050 124.825 147.376  0.00  0.00    +0.000 A 
ATOM      8  C   UNL     1     102.547 124.516 147.141  0.00  0.00    +0.000 A 
ATOM      9  C   UNL     1     103.666 125.229 147.733  0.00  0.00    +0.000 A 
ATOM     10  C   UNL     1     102.758 123.440 146.226  0.00  0.00    +0.000 A 
ATOM     11  C   UNL     1     104.515 125.335 147.814  0.00  0.00    +0.000 A 
ATOM     12  C   UNL     1     102.245 123.930 146.647  0.00  0.00    +0.000 A 
ENDROOT
BRANCH   7  14
ATOM     13  O   UNL     1     108.315 125.203 147.663  0.00  0.00    +0.000 OA
ATOM     14  C   UNL     1     105.865 124.919 147.448  0.00  0.00    +0.000 A 
ATOM     15  C   UNL     1     106.288 125.322 146.865  0.00  0.00    +0.000 A 
ATOM     16  C   UNL     1     106.261 124.611 148.103  0.00  0.00    +0.000 A 
ATOM     17  C   UNL     1     107.103 125.417 146.936  0.00  0.00    +0.000 A 
ATOM     18  C   UNL     1     107.077 124.705 148.175  0.00  0.00    +0.000 A 
ATOM     19  C   UNL     1     107.498 125.108 147.591  0.00  0.00    +0.000 A 
ENDBRANCH   7  14
BRANCH   6  20
ATOM     20  O   UNL     1     104.088 123.047 145.879  0.00  0.00    +0.000 OA
ATOM     21  C   UNL     1     104.107 123.080 145.056  0.00  0.00    +0.000 C 
ENDBRANCH   6  20
BRANCH  10  22
ATOM     22  O   UNL     1     102.456 122.852 145.731  0.00  0.00    +0.000 OA
ATOM     23  C   UNL     1     101.640 122.739 145.677  0.00  0.00    +0.000 C 
ENDBRANCH  10  22
TORSDOF 3
ENDMDL
MODEL 3
REMARK VINA RESULT:      -7.9      7.377      8.390
REMARK  Name = 14585506
REMARK  3 active torsions:
REMARK  status: ('A' for Active; 'I' for Inactive)
REMARK    1  A    between atoms: O_2  and  C_9
REMARK    2  A    between atoms: O_3  and  C_13
REMARK    3  A    between atoms: C_10  and  C_15
REMARK                            x       y       z     vdW  Elec       q    Type
REMARK                         _______ _______ _______ _____ _____    ______ ____
ROOT
ATOM      1  O   UNL     1     103.031 130.519 142.311  0.00  0.00    +0.000 OA
ATOM      2  O   UNL     1     103.896 128.282 140.693  0.00  0.00    +0.000 OA
ATOM      3  O   UNL     1     102.947 129.218 140.141  0.00  0.00    +0.000 OA
ATOM      4  C   UNL     1     103.470 129.386 141.494  0.00  0.00    +0.000 A 
ATOM      5  C   UNL     1     103.500 129.808 142.202  0.00  0.00    +0.000 A 
ATOM      6  C   UNL     1     103.984 129.548 142.818  0.00  0.00    +0.000 A 
ATOM      7  C   UNL     1     102.525 130.796 141.674  0.00  0.00    +0.000 A 
ATOM      8  C   UNL     1     103.925 128.704 141.401  0.00  0.00    +0.000 A 
ATOM      9  C   UNL     1     102.970 129.646 140.846  0.00  0.00    +0.000 A 
ATOM     10  C   UNL     1     104.439 128.866 142.724  0.00  0.00    +0.000 A 
ATOM     11  C   UNL     1     102.494 130.356 140.936  0.00  0.00    +0.000 A 
ATOM     12  C   UNL     1     104.409 128.444 142.016  0.00  0.00    +0.000 A 
ENDROOT
BRANCH   7  14
ATOM     13  O   UNL     1     100.710 133.525 142.058  0.00  0.00    +0.000 OA
ATOM     14  C   UNL     1     102.072 131.477 141.770  0.00  0.00    +0.000 A 
ATOM     15  C   UNL     1     101.303 131.425 142.067  0.00  0.00    +0.000 A 
ATOM     16  C   UNL     1     102.385 132.213 141.568  0.00  0.00    +0.000 A 
ATOM     17  C   UNL     1     100.850 132.106 142.163  0.00  0.00    +0.000 A 
ATOM     18  C   UNL     1     101.932 132.896 141.664  0.00  0.00    +0.000 A 
ATOM     19  C   UNL     1     101.164 132.842 141.962  0.00  0.00    +0.000 A 
ENDBRANCH   7  14
BRANCH   6  20
ATOM     20  O   UNL     1     104.014 129.970 143.526  0.00  0.00    +0.000 OA
ATOM     21  C   UNL     1     104.694 130.389 143.728  0.00  0.00    +0.000 C 
ENDBRANCH   6  20
BRANCH  10  22
ATOM     22  O   UNL     1     104.923 128.606 143.340  0.00  0.00    +0.000 OA
ATOM     23  C   UNL     1     105.261 127.854 143.309  0.00  0.00    +0.000 C 
ENDBRANCH  10  22
TORSDOF 3
ENDMDL
MODEL 4
REMARK VINA RESULT:      -7.9     12.734     13.817
REMARK  Name = 14585506
REMARK  3 active torsions:
REMARK  status: ('A' for Active; 'I' for Inactive)
REMARK    1  A    between atoms: O_2  and  C_9
REMARK    2  A    between atoms: O_3  and  C_13
REMARK    3  A    between atoms: C_10  and  C_15
REMARK                            x       y       z     vdW  Elec       q    Type
REMARK                         _______ _______ _______ _____ _____    ______ ____
ROOT
ATOM      1  O   UNL     1     112.230 126.728 136.115  0.00  0.00    +0.000 OA
ATOM      2  O   UNL     1     109.763 126.019 134.780  0.00  0.00    +0.000 OA
ATOM      3  O   UNL     1     110.545 124.978 135.403  0.00  0.00    +0.000 OA
ATOM      4  C   UNL     1     110.981 126.371 135.439  0.00  0.00    +0.000 A 
ATOM      5  C   UNL     1     111.528 126.944 135.670  0.00  0.00    +0.000 A 
ATOM      6  C   UNL     1     111.405 127.736 135.473  0.00  0.00    +0.000 A 
ATOM      7  C   UNL     1     112.364 125.905 136.324  0.00  0.00    +0.000 A 
ATOM      8  C   UNL     1     110.310 126.591 135.011  0.00  0.00    +0.000 A 
ATOM      9  C   UNL     1     111.097 125.544 135.637  0.00  0.00    +0.000 A 
ATOM     10  C   UNL     1     110.735 127.954 135.045  0.00  0.00    +0.000 A 
ATOM     11  C   UNL     1     111.794 125.309 136.083  0.00  0.00    +0.000 A 
ATOM     12  C   UNL     1     110.187 127.382 134.814  0.00  0.00    +0.000 A 
ENDROOT
BRANCH   7  14
ATOM     13  O   UNL     1     115.050 125.041 138.035  0.00  0.00    +0.000 OA
ATOM     14  C   UNL     1     113.035 125.689 136.751  0.00  0.00    +0.000 A 
ATOM     15  C   UNL     1     113.690 125.374 136.361  0.00  0.00    +0.000 A 
ATOM     16  C   UNL     1     113.052 125.788 137.570  0.00  0.00    +0.000 A 
ATOM     17  C   UNL     1     114.361 125.159 136.789  0.00  0.00    +0.000 A 
ATOM     18  C   UNL     1     113.723 125.572 137.999  0.00  0.00    +0.000 A 
ATOM     19  C   UNL     1     114.378 125.257 137.608  0.00  0.00    +0.000 A 
ENDBRANCH   7  14
BRANCH   6  20
ATOM     20  O   UNL     1     111.952 128.308 135.704  0.00  0.00    +0.000 OA
ATOM     21  C   UNL     1     112.430 128.673 135.139  0.00  0.00    +0.000 C 
ENDBRANCH   6  20
BRANCH  10  22
ATOM     22  O   UNL     1     110.611 128.747 134.848  0.00  0.00    +0.000 OA
ATOM     23  C   UNL     1     109.854 129.010 134.653  0.00  0.00    +0.000 C 
ENDBRANCH  10  22
TORSDOF 3
ENDMDL
MODEL 5
REMARK VINA RESULT:      -7.8      2.128      4.320
REMARK  Name = 14585506
REMARK  3 active torsions:
REMARK  status: ('A' for Active; 'I' for Inactive)
REMARK    1  A    between atoms: O_2  and  C_9
REMARK    2  A    between atoms: O_3  and  C_13
REMARK    3  A    between atoms: C_10  and  C_15
REMARK                            x       y       z     vdW  Elec       q    Type
REMARK                         _______ _______ _______ _____ _____    ______ ____
ROOT
ATOM      1  O   UNL     1     106.673 125.457 146.254  0.00  0.00    +0.000 OA
ATOM      2  O   UNL     1     106.235 128.009 144.961  0.00  0.00    +0.000 OA
ATOM      3  O   UNL     1     106.710 127.988 146.323  0.00  0.00    +0.000 OA
ATOM      4  C   UNL     1     106.451 126.748 145.597  0.00  0.00    +0.000 A 
ATOM      5  C   UNL     1     106.438 125.923 145.572  0.00  0.00    +0.000 A 
ATOM      6  C   UNL     1     106.196 125.535 144.884  0.00  0.00    +0.000 A 
ATOM      7  C   UNL     1     106.926 125.855 146.973  0.00  0.00    +0.000 A 
ATOM      8  C   UNL     1     106.222 127.184 144.935  0.00  0.00    +0.000 A 
ATOM      9  C   UNL     1     106.700 127.163 146.306  0.00  0.00    +0.000 A 
ATOM     10  C   UNL     1     105.967 125.972 144.223  0.00  0.00    +0.000 A 
ATOM     11  C   UNL     1     106.939 126.714 146.999  0.00  0.00    +0.000 A 
ATOM     12  C   UNL     1     105.980 126.797 144.249  0.00  0.00    +0.000 A 
ENDROOT
BRANCH   7  14
ATOM     13  O   UNL     1     107.837 124.097 149.612  0.00  0.00    +0.000 OA
ATOM     14  C   UNL     1     107.154 125.416 147.632  0.00  0.00    +0.000 A 
ATOM     15  C   UNL     1     106.591 125.188 148.191  0.00  0.00    +0.000 A 
ATOM     16  C   UNL     1     107.944 125.203 147.733  0.00  0.00    +0.000 A 
ATOM     17  C   UNL     1     106.819 124.749 148.851  0.00  0.00    +0.000 A 
ATOM     18  C   UNL     1     108.173 124.764 148.393  0.00  0.00    +0.000 A 
ATOM     19  C   UNL     1     107.610 124.537 148.952  0.00  0.00    +0.000 A 
ENDBRANCH   7  14
BRANCH   6  20
ATOM     20  O   UNL     1     106.183 124.711 144.859  0.00  0.00    +0.000 OA
ATOM     21  C   UNL     1     105.462 124.310 144.843  0.00  0.00    +0.000 C 
ENDBRANCH   6  20
BRANCH  10  22
ATOM     22  O   UNL     1     105.725 125.584 143.536  0.00  0.00    +0.000 OA
ATOM     23  C   UNL     1     105.886 125.916 142.798  0.00  0.00    +0.000 C 
ENDBRANCH  10  22
TORSDOF 3
ENDMDL
MODEL 6
REMARK VINA RESULT:      -7.7     10.978     12.370
REMARK  Name = 14585506
REMARK  3 active torsions:
REMARK  status: ('A' for Active; 'I' for Inactive)
REMARK    1  A    between atoms: O_2  and  C_9
REMARK    2  A    between atoms: O_3  and  C_13
REMARK    3  A    between atoms: C_10  and  C_15
REMARK                            x       y       z     vdW  Elec       q    Type
REMARK                         _______ _______ _______ _____ _____    ______ ____
ROOT
ATOM      1  O   UNL     1     112.197 126.128 137.401  0.00  0.00    +0.000 OA
ATOM      2  O   UNL     1     114.930 125.351 137.947  0.00  0.00    +0.000 OA
ATOM      3  O   UNL     1     114.343 124.994 136.678  0.00  0.00    +0.000 OA
ATOM      4  C   UNL     1     113.581 125.736 137.679  0.00  0.00    +0.000 A 
ATOM      5  C   UNL     1     112.883 126.106 137.918  0.00  0.00    +0.000 A 
ATOM      6  C   UNL     1     112.837 126.461 138.661  0.00  0.00    +0.000 A 
ATOM      7  C   UNL     1     112.238 125.760 136.625  0.00  0.00    +0.000 A 
ATOM      8  C   UNL     1     114.233 125.721 138.185  0.00  0.00    +0.000 A 
ATOM      9  C   UNL     1     113.641 125.362 136.908  0.00  0.00    +0.000 A 
ATOM     10  C   UNL     1     113.489 126.446 139.166  0.00  0.00    +0.000 A 
ATOM     11  C   UNL     1     112.965 125.374 136.377  0.00  0.00    +0.000 A 
ATOM     12  C   UNL     1     114.187 126.076 138.928  0.00  0.00    +0.000 A 
ENDROOT
BRANCH   7  14
ATOM     13  O   UNL     1     109.623 125.827 134.614  0.00  0.00    +0.000 OA
ATOM     14  C   UNL     1     111.585 125.776 136.123  0.00  0.00    +0.000 A 
ATOM     15  C   UNL     1     111.411 126.459 135.693  0.00  0.00    +0.000 A 
ATOM     16  C   UNL     1     111.104 125.110 136.049  0.00  0.00    +0.000 A 
ATOM     17  C   UNL     1     110.758 126.476 135.191  0.00  0.00    +0.000 A 
ATOM     18  C   UNL     1     110.450 125.126 135.546  0.00  0.00    +0.000 A 
ATOM     19  C   UNL     1     110.277 125.810 135.117  0.00  0.00    +0.000 A 
ENDBRANCH   7  14
BRANCH   6  20
ATOM     20  O   UNL     1     112.139 126.831 138.900  0.00  0.00    +0.000 OA
ATOM     21  C   UNL     1     111.671 126.489 139.486  0.00  0.00    +0.000 C 
ENDBRANCH   6  20
BRANCH  10  22
ATOM     22  O   UNL     1     113.443 126.801 139.910  0.00  0.00    +0.000 OA
ATOM     23  C   UNL     1     114.134 127.009 140.310  0.00  0.00    +0.000 C 
ENDBRANCH  10  22
TORSDOF 3
ENDMDL
MODEL 7
REMARK VINA RESULT:      -7.7     10.209     11.984
REMARK  Name = 14585506
REMARK  3 active torsions:
REMARK  status: ('A' for Active; 'I' for Inactive)
REMARK    1  A    between atoms: O_2  and  C_9
REMARK    2  A    between atoms: O_3  and  C_13
REMARK    3  A    between atoms: C_10  and  C_15
REMARK                            x       y       z     vdW  Elec       q    Type
REMARK                         _______ _______ _______ _____ _____    ______ ____
ROOT
ATOM      1  O   UNL     1     113.503 126.420 138.886  0.00  0.00    +0.000 OA
ATOM      2  O   UNL     1     110.876 126.214 140.083  0.00  0.00    +0.000 OA
ATOM      3  O   UNL     1     111.125 125.551 138.825  0.00  0.00    +0.000 OA
ATOM      4  C   UNL     1     112.174 126.317 139.494  0.00  0.00    +0.000 A 
ATOM      5  C   UNL     1     112.948 126.601 139.516  0.00  0.00    +0.000 A 
ATOM      6  C   UNL     1     113.198 127.067 140.150  0.00  0.00    +0.000 A 
ATOM      7  C   UNL     1     113.248 125.936 138.223  0.00  0.00    +0.000 A 
ATOM      8  C   UNL     1     111.650 126.498 140.105  0.00  0.00    +0.000 A 
ATOM      9  C   UNL     1     111.901 125.832 138.840  0.00  0.00    +0.000 A 
ATOM     10  C   UNL     1     112.674 127.248 140.761  0.00  0.00    +0.000 A 
ATOM     11  C   UNL     1     112.442 125.639 138.200  0.00  0.00    +0.000 A 
ATOM     12  C   UNL     1     111.900 126.963 140.738  0.00  0.00    +0.000 A 
ENDROOT
BRANCH   7  14
ATOM     13  O   UNL     1     115.353 125.219 135.785  0.00  0.00    +0.000 OA
ATOM     14  C   UNL     1     113.774 125.757 137.614  0.00  0.00    +0.000 A 
ATOM     15  C   UNL     1     114.242 125.078 137.658  0.00  0.00    +0.000 A 
ATOM     16  C   UNL     1     113.833 126.256 136.960  0.00  0.00    +0.000 A 
ATOM     17  C   UNL     1     114.767 124.899 137.049  0.00  0.00    +0.000 A 
ATOM     18  C   UNL     1     114.359 126.077 136.350  0.00  0.00    +0.000 A 
ATOM     19  C   UNL     1     114.826 125.398 136.395  0.00  0.00    +0.000 A 
ENDBRANCH   7  14
BRANCH   6  20
ATOM     20  O   UNL     1     113.972 127.351 140.173  0.00  0.00    +0.000 OA
ATOM     21  C   UNL     1     114.501 127.063 140.735  0.00  0.00    +0.000 C 
ENDBRANCH   6  20
BRANCH  10  22
ATOM     22  O   UNL     1     112.925 127.713 141.395  0.00  0.00    +0.000 OA
ATOM     23  C   UNL     1     112.369 128.095 141.871  0.00  0.00    +0.000 C 
ENDBRANCH  10  22
TORSDOF 3
ENDMDL
MODEL 8
REMARK VINA RESULT:      -7.7      1.061      2.337
REMARK  Name = 14585506
REMARK  3 active torsions:
REMARK  status: ('A' for Active; 'I' for Inactive)
REMARK    1  A    between atoms: O_2  and  C_9
REMARK    2  A    between atoms: O_3  and  C_13
REMARK    3  A    between atoms: C_10  and  C_15
REMARK                            x       y       z     vdW  Elec       q    Type
REMARK                         _______ _______ _______ _____ _____    ______ ____
ROOT
ATOM      1  O   UNL     1     104.028 124.207 146.821  0.00  0.00    +0.000 OA
ATOM      2  O   UNL     1     105.161 125.141 149.314  0.00  0.00    +0.000 OA
ATOM      3  O   UNL     1     103.777 124.734 149.285  0.00  0.00    +0.000 OA
ATOM      4  C   UNL     1     104.604 124.680 148.082  0.00  0.00    +0.000 A 
ATOM      5  C   UNL     1     104.688 124.509 147.279  0.00  0.00    +0.000 A 
ATOM      6  C   UNL     1     105.415 124.628 146.906  0.00  0.00    +0.000 A 
ATOM      7  C   UNL     1     103.268 124.080 147.204  0.00  0.00    +0.000 A 
ATOM      8  C   UNL     1     105.246 124.970 148.511  0.00  0.00    +0.000 A 
ATOM      9  C   UNL     1     103.853 124.561 148.482  0.00  0.00    +0.000 A 
ATOM     10  C   UNL     1     106.056 124.918 147.336  0.00  0.00    +0.000 A 
ATOM     11  C   UNL     1     103.180 124.259 148.039  0.00  0.00    +0.000 A 
ATOM     12  C   UNL     1     105.972 125.089 148.139  0.00  0.00    +0.000 A 
ENDROOT
BRANCH   7  14
ATOM     13  O   UNL     1     100.710 122.919 145.473  0.00  0.00    +0.000 OA
ATOM     14  C   UNL     1     102.629 123.791 146.771  0.00  0.00    +0.000 A 
ATOM     15  C   UNL     1     102.656 123.029 146.453  0.00  0.00    +0.000 A 
ATOM     16  C   UNL     1     101.961 124.261 146.656  0.00  0.00    +0.000 A 
ATOM     17  C   UNL     1     102.017 122.739 146.021  0.00  0.00    +0.000 A 
ATOM     18  C   UNL     1     101.321 123.971 146.223  0.00  0.00    +0.000 A 
ATOM     19  C   UNL     1     101.349 123.210 145.906  0.00  0.00    +0.000 A 
ENDBRANCH   7  14
BRANCH   6  20
ATOM     20  O   UNL     1     105.500 124.457 146.103  0.00  0.00    +0.000 OA
ATOM     21  C   UNL     1     105.573 125.070 145.557  0.00  0.00    +0.000 C 
ENDBRANCH   6  20
BRANCH  10  22
ATOM     22  O   UNL     1     106.783 125.037 146.963  0.00  0.00    +0.000 OA
ATOM     23  C   UNL     1     107.454 125.205 147.413  0.00  0.00    +0.000 C 
ENDBRANCH  10  22
TORSDOF 3
ENDMDL
MODEL 9
REMARK VINA RESULT:      -7.7     11.700     12.835
REMARK  Name = 14585506
REMARK  3 active torsions:
REMARK  status: ('A' for Active; 'I' for Inactive)
REMARK    1  A    between atoms: O_2  and  C_9
REMARK    2  A    between atoms: O_3  and  C_13
REMARK    3  A    between atoms: C_10  and  C_15
REMARK                            x       y       z     vdW  Elec       q    Type
REMARK                         _______ _______ _______ _____ _____    ______ ____
ROOT
ATOM      1  O   UNL     1     111.830 125.987 136.337  0.00  0.00    +0.000 OA
ATOM      2  O   UNL     1     113.146 123.494 136.991  0.00  0.00    +0.000 OA
ATOM      3  O   UNL     1     111.704 123.536 136.961  0.00  0.00    +0.000 OA
ATOM      4  C   UNL     1     112.499 124.726 136.668  0.00  0.00    +0.000 A 
ATOM      5  C   UNL     1     112.543 125.524 136.465  0.00  0.00    +0.000 A 
ATOM      6  C   UNL     1     113.279 125.889 136.381  0.00  0.00    +0.000 A 
ATOM      7  C   UNL     1     111.061 125.613 136.423  0.00  0.00    +0.000 A 
ATOM      8  C   UNL     1     113.190 124.292 136.788  0.00  0.00    +0.000 A 
ATOM      9  C   UNL     1     111.739 124.335 136.758  0.00  0.00    +0.000 A 
ATOM     10  C   UNL     1     113.969 125.454 136.501  0.00  0.00    +0.000 A 
ATOM     11  C   UNL     1     111.015 124.781 136.634  0.00  0.00    +0.000 A 
ATOM     12  C   UNL     1     113.925 124.656 136.704  0.00  0.00    +0.000 A 
ENDROOT
BRANCH   7  14
ATOM     13  O   UNL     1     108.303 127.359 135.941  0.00  0.00    +0.000 OA
ATOM     14  C   UNL     1     110.372 126.049 136.302  0.00  0.00    +0.000 A 
ATOM     15  C   UNL     1     109.992 126.407 136.942  0.00  0.00    +0.000 A 
ATOM     16  C   UNL     1     110.061 126.128 135.542  0.00  0.00    +0.000 A 
ATOM     17  C   UNL     1     109.304 126.844 136.821  0.00  0.00    +0.000 A 
ATOM     18  C   UNL     1     109.371 126.565 135.421  0.00  0.00    +0.000 A 
ATOM     19  C   UNL     1     108.993 126.923 136.061  0.00  0.00    +0.000 A 
ENDBRANCH   7  14
BRANCH   6  20
ATOM     20  O   UNL     1     113.323 126.687 136.178  0.00  0.00    +0.000 OA
ATOM     21  C   UNL     1     113.537 127.246 136.745  0.00  0.00    +0.000 C 
ENDBRANCH   6  20
BRANCH  10  22
ATOM     22  O   UNL     1     114.705 125.819 136.418  0.00  0.00    +0.000 OA
ATOM     23  C   UNL     1     115.351 125.386 136.143  0.00  0.00    +0.000 C 
ENDBRANCH  10  22
TORSDOF 3
ENDMDL
MODEL 10
REMARK VINA RESULT:      -7.6     13.072     14.114
REMARK  Name = 14585506
REMARK  3 active torsions:
REMARK  status: ('A' for Active; 'I' for Inactive)
REMARK    1  A    between atoms: O_2  and  C_9
REMARK    2  A    between atoms: O_3  and  C_13
REMARK    3  A    between atoms: C_10  and  C_15
REMARK                            x       y       z     vdW  Elec       q    Type
REMARK                         _______ _______ _______ _____ _____    ______ ____
ROOT
ATOM      1  O   UNL     1     112.544 126.891 136.178  0.00  0.00    +0.000 OA
ATOM      2  O   UNL     1     112.530 129.672 135.378  0.00  0.00    +0.000 OA
ATOM      3  O   UNL     1     113.739 129.110 135.930  0.00  0.00    +0.000 OA
ATOM      4  C   UNL     1     112.535 128.299 135.773  0.00  0.00    +0.000 A 
ATOM      5  C   UNL     1     112.143 127.577 135.852  0.00  0.00    +0.000 A 
ATOM      6  C   UNL     1     111.355 127.507 135.617  0.00  0.00    +0.000 A 
ATOM      7  C   UNL     1     113.365 126.958 136.425  0.00  0.00    +0.000 A 
ATOM      8  C   UNL     1     112.138 128.951 135.458  0.00  0.00    +0.000 A 
ATOM      9  C   UNL     1     113.355 128.385 136.013  0.00  0.00    +0.000 A 
ATOM     10  C   UNL     1     110.959 128.159 135.303  0.00  0.00    +0.000 A 
ATOM     11  C   UNL     1     113.773 127.709 136.342  0.00  0.00    +0.000 A 
ATOM     12  C   UNL     1     111.351 128.881 135.223  0.00  0.00    +0.000 A 
ENDROOT
BRANCH   7  14
ATOM     13  O   UNL     1     114.938 124.343 137.681  0.00  0.00    +0.000 OA
ATOM     14  C   UNL     1     113.758 126.305 136.739  0.00  0.00    +0.000 A 
ATOM     15  C   UNL     1     114.235 125.837 136.254  0.00  0.00    +0.000 A 
ATOM     16  C   UNL     1     113.675 126.118 137.538  0.00  0.00    +0.000 A 
ATOM     17  C   UNL     1     114.628 125.184 136.568  0.00  0.00    +0.000 A 
ATOM     18  C   UNL     1     114.069 125.464 137.853  0.00  0.00    +0.000 A 
ATOM     19  C   UNL     1     114.545 124.997 137.367  0.00  0.00    +0.000 A 
ENDBRANCH   7  14
BRANCH   6  20
ATOM     20  O   UNL     1     110.963 126.786 135.697  0.00  0.00    +0.000 OA
ATOM     21  C   UNL     1     110.777 126.342 135.028  0.00  0.00    +0.000 C 
ENDBRANCH   6  20
BRANCH  10  22
ATOM     22  O   UNL     1     110.171 128.089 135.068  0.00  0.00    +0.000 OA
ATOM     23  C   UNL     1     109.715 128.767 134.948  0.00  0.00    +0.000 C 
ENDBRANCH  10  22
TORSDOF 3
ENDMDL
