MODEL 1
REMARK VINA RESULT:      -9.8      0.000      0.000
REMARK  Name = 44257077
REMARK  4 active torsions:
REMARK  status: ('A' for Active; 'I' for Inactive)
REMARK    1  A    between atoms: O_2  and  C_13
REMARK    2  A    between atoms: O_2  and  C_17
REMARK    3  A    between atoms: C_16  and  C_20
REMARK    4  A    between atoms: C_18  and  C_22
REMARK                            x       y       z     vdW  Elec       q    Type
REMARK                         _______ _______ _______ _____ _____    ______ ____
ROOT
ATOM      1  O   UNL     1     105.506 124.444 147.784  0.00  0.00    +0.000 OA
ATOM      2  O   UNL     1     108.041 125.522 146.912  0.00  0.00    +0.000 OA
ATOM      3  O   UNL     1     107.773 124.440 149.612  0.00  0.00    +0.000 OA
ATOM      4  C   UNL     1     105.642 124.975 146.463  0.00  0.00    +0.000 C 
ATOM      5  C   UNL     1     105.178 124.620 147.047  0.00  0.00    +0.000 C 
ATOM      6  C   UNL     1     106.432 125.153 146.617  0.00  0.00    +0.000 C 
ATOM      7  C   UNL     1     106.760 124.977 147.354  0.00  0.00    +0.000 A 
ATOM      8  C   UNL     1     106.297 124.622 147.937  0.00  0.00    +0.000 A 
ATOM      9  C   UNL     1     107.585 125.168 147.501  0.00  0.00    +0.000 A 
ATOM     10  C   UNL     1     106.625 124.434 148.708  0.00  0.00    +0.000 A 
ATOM     11  C   UNL     1     107.931 124.987 148.266  0.00  0.00    +0.000 A 
ATOM     12  C   UNL     1     107.448 124.617 148.874  0.00  0.00    +0.000 A 
ENDROOT
BRANCH   5  15
ATOM     13  O   UNL     1     103.204 122.879 145.934  0.00  0.00    +0.000 OA
ATOM     14  O   UNL     1     102.015 123.909 146.433  0.00  0.00    +0.000 OA
ATOM     15  C   UNL     1     104.388 124.441 146.893  0.00  0.00    +0.000 A 
ATOM     16  C   UNL     1     104.191 123.749 146.490  0.00  0.00    +0.000 A 
ATOM     17  C   UNL     1     103.793 124.957 147.143  0.00  0.00    +0.000 A 
ATOM     18  C   UNL     1     103.400 123.571 146.337  0.00  0.00    +0.000 A 
ATOM     19  C   UNL     1     103.002 124.779 146.989  0.00  0.00    +0.000 A 
ATOM     20  C   UNL     1     102.806 124.086 146.586  0.00  0.00    +0.000 A 
ENDBRANCH   5  15
BRANCH   4  21
ATOM     21  O   UNL     1     105.315 125.151 145.727  0.00  0.00    +0.000 OA
BRANCH  21  27
ATOM     22  O   UNL     1     105.515 126.559 145.591  0.00  0.00    +0.000 OA
ATOM     23  O   UNL     1     106.040 124.906 144.265  0.00  0.00    +0.000 OA
ATOM     24  O   UNL     1     106.603 126.192 143.398  0.00  0.00    +0.000 OA
ATOM     25  O   UNL     1     106.441 127.722 143.993  0.00  0.00    +0.000 OA
ATOM     26  C   UNL     1     105.959 125.671 144.563  0.00  0.00    +0.000 C 
ATOM     27  C   UNL     1     105.596 125.793 145.294  0.00  0.00    +0.000 C 
ATOM     28  C   UNL     1     106.241 126.314 144.129  0.00  0.00    +0.000 C 
ATOM     29  C   UNL     1     106.159 127.079 144.427  0.00  0.00    +0.000 C 
ATOM     30  C   UNL     1     105.797 127.201 145.158  0.00  0.00    +0.000 C 
BRANCH  30  32
ATOM     31  O   UNL     1     104.992 128.216 145.762  0.00  0.00    +0.000 OA
ATOM     32  C   UNL     1     105.716 127.966 145.455  0.00  0.00    +0.000 C 
ENDBRANCH  30  32
ENDBRANCH  21  27
ENDBRANCH   4  21
TORSDOF 4
ENDMDL
MODEL 2
REMARK VINA RESULT:      -9.2      0.906      3.658
REMARK  Name = 44257077
REMARK  4 active torsions:
REMARK  status: ('A' for Active; 'I' for Inactive)
REMARK    1  A    between atoms: O_2  and  C_13
REMARK    2  A    between atoms: O_2  and  C_17
REMARK    3  A    between atoms: C_16  and  C_20
REMARK    4  A    between atoms: C_18  and  C_22
REMARK                            x       y       z     vdW  Elec       q    Type
REMARK                         _______ _______ _______ _____ _____    ______ ____
ROOT
ATOM      1  O   UNL     1     106.792 125.538 146.685  0.00  0.00    +0.000 OA
ATOM      2  O   UNL     1     105.646 124.239 148.998  0.00  0.00    +0.000 OA
ATOM      3  O   UNL     1     108.537 124.616 148.826  0.00  0.00    +0.000 OA
ATOM      4  C   UNL     1     105.377 125.351 146.774  0.00  0.00    +0.000 C 
ATOM      5  C   UNL     1     106.038 125.628 146.363  0.00  0.00    +0.000 C 
ATOM      6  C   UNL     1     105.472 124.986 147.507  0.00  0.00    +0.000 C 
ATOM      7  C   UNL     1     106.227 124.896 147.830  0.00  0.00    +0.000 A 
ATOM      8  C   UNL     1     106.886 125.172 147.419  0.00  0.00    +0.000 A 
ATOM      9  C   UNL     1     106.312 124.513 148.594  0.00  0.00    +0.000 A 
ATOM     10  C   UNL     1     107.677 125.085 147.743  0.00  0.00    +0.000 A 
ATOM     11  C   UNL     1     107.094 124.417 148.935  0.00  0.00    +0.000 A 
ATOM     12  C   UNL     1     107.782 124.704 148.507  0.00  0.00    +0.000 A 
ENDROOT
BRANCH   5  15
ATOM     13  O   UNL     1     106.172 125.529 143.510  0.00  0.00    +0.000 OA
ATOM     14  O   UNL     1     105.657 127.094 143.431  0.00  0.00    +0.000 OA
ATOM     15  C   UNL     1     105.943 125.994 145.630  0.00  0.00    +0.000 A 
ATOM     16  C   UNL     1     106.105 125.578 144.936  0.00  0.00    +0.000 A 
ATOM     17  C   UNL     1     105.685 126.777 145.590  0.00  0.00    +0.000 A 
ATOM     18  C   UNL     1     106.010 125.945 144.203  0.00  0.00    +0.000 A 
ATOM     19  C   UNL     1     105.590 127.143 144.857  0.00  0.00    +0.000 A 
ATOM     20  C   UNL     1     105.752 126.727 144.164  0.00  0.00    +0.000 A 
ENDBRANCH   5  15
BRANCH   4  21
ATOM     21  O   UNL     1     104.623 125.441 146.452  0.00  0.00    +0.000 OA
BRANCH  21  27
ATOM     22  O   UNL     1     104.194 124.108 146.169  0.00  0.00    +0.000 OA
ATOM     23  O   UNL     1     103.254 125.694 147.337  0.00  0.00    +0.000 OA
ATOM     24  O   UNL     1     102.140 124.487 147.496  0.00  0.00    +0.000 OA
ATOM     25  O   UNL     1     102.396 123.028 146.770  0.00  0.00    +0.000 OA
ATOM     26  C   UNL     1     103.382 124.964 146.974  0.00  0.00    +0.000 C 
ATOM     27  C   UNL     1     104.067 124.838 146.531  0.00  0.00    +0.000 C 
ATOM     28  C   UNL     1     102.825 124.360 147.053  0.00  0.00    +0.000 C 
ATOM     29  C   UNL     1     102.953 123.631 146.690  0.00  0.00    +0.000 C 
ATOM     30  C   UNL     1     103.638 123.505 146.248  0.00  0.00    +0.000 C 
BRANCH  30  32
ATOM     31  O   UNL     1     104.140 122.739 145.151  0.00  0.00    +0.000 OA
ATOM     32  C   UNL     1     103.766 122.776 145.885  0.00  0.00    +0.000 C 
ENDBRANCH  30  32
ENDBRANCH  21  27
ENDBRANCH   4  21
TORSDOF 4
ENDMDL
MODEL 3
REMARK VINA RESULT:      -9.1      9.811     12.512
REMARK  Name = 44257077
REMARK  4 active torsions:
REMARK  status: ('A' for Active; 'I' for Inactive)
REMARK    1  A    between atoms: O_2  and  C_13
REMARK    2  A    between atoms: O_2  and  C_17
REMARK    3  A    between atoms: C_16  and  C_20
REMARK    4  A    between atoms: C_18  and  C_22
REMARK                            x       y       z     vdW  Elec       q    Type
REMARK                         _______ _______ _______ _____ _____    ______ ____
ROOT
ATOM      1  O   UNL     1     113.785 127.458 136.248  0.00  0.00    +0.000 OA
ATOM      2  O   UNL     1     111.710 129.470 136.302  0.00  0.00    +0.000 OA
ATOM      3  O   UNL     1     114.203 129.990 134.871  0.00  0.00    +0.000 OA
ATOM      4  C   UNL     1     112.563 127.209 136.947  0.00  0.00    +0.000 C 
ATOM      5  C   UNL     1     113.312 126.960 136.706  0.00  0.00    +0.000 C 
ATOM      6  C   UNL     1     112.287 127.955 136.731  0.00  0.00    +0.000 C 
ATOM      7  C   UNL     1     112.760 128.454 136.274  0.00  0.00    +0.000 A 
ATOM      8  C   UNL     1     113.508 128.205 136.033  0.00  0.00    +0.000 A 
ATOM      9  C   UNL     1     112.460 129.229 136.056  0.00  0.00    +0.000 A 
ATOM     10  C   UNL     1     114.010 128.715 135.557  0.00  0.00    +0.000 A 
ATOM     11  C   UNL     1     112.948 129.753 135.580  0.00  0.00    +0.000 A 
ATOM     12  C   UNL     1     113.728 129.494 135.328  0.00  0.00    +0.000 A 
ENDROOT
BRANCH   5  15
ATOM     13  O   UNL     1     113.678 124.189 136.112  0.00  0.00    +0.000 OA
ATOM     14  O   UNL     1     114.416 123.973 137.572  0.00  0.00    +0.000 OA
ATOM     15  C   UNL     1     113.588 126.213 136.922  0.00  0.00    +0.000 A 
ATOM     16  C   UNL     1     113.495 125.574 136.408  0.00  0.00    +0.000 A 
ATOM     17  C   UNL     1     113.957 126.106 137.652  0.00  0.00    +0.000 A 
ATOM     18  C   UNL     1     113.771 124.828 136.625  0.00  0.00    +0.000 A 
ATOM     19  C   UNL     1     114.233 125.359 137.868  0.00  0.00    +0.000 A 
ATOM     20  C   UNL     1     114.140 124.720 137.355  0.00  0.00    +0.000 A 
ENDBRANCH   5  15
BRANCH   4  21
ATOM     21  O   UNL     1     112.091 126.710 137.405  0.00  0.00    +0.000 OA
BRANCH  21  27
ATOM     22  O   UNL     1     110.949 126.515 136.568  0.00  0.00    +0.000 OA
ATOM     23  O   UNL     1     111.100 127.097 138.666  0.00  0.00    +0.000 OA
ATOM     24  O   UNL     1     109.463 127.095 138.461  0.00  0.00    +0.000 OA
ATOM     25  O   UNL     1     108.817 126.706 136.994  0.00  0.00    +0.000 OA
ATOM     26  C   UNL     1     110.777 126.903 137.933  0.00  0.00    +0.000 C 
ATOM     27  C   UNL     1     111.273 126.709 137.302  0.00  0.00    +0.000 C 
ATOM     28  C   UNL     1     109.958 126.902 137.830  0.00  0.00    +0.000 C 
ATOM     29  C   UNL     1     109.635 126.707 137.096  0.00  0.00    +0.000 C 
ATOM     30  C   UNL     1     110.131 126.513 136.465  0.00  0.00    +0.000 C 
BRANCH  30  32
ATOM     31  O   UNL     1     110.097 125.671 135.312  0.00  0.00    +0.000 OA
ATOM     32  C   UNL     1     109.807 126.319 135.732  0.00  0.00    +0.000 C 
ENDBRANCH  30  32
ENDBRANCH  21  27
ENDBRANCH   4  21
TORSDOF 4
ENDMDL
MODEL 4
REMARK VINA RESULT:      -9.1     10.104     12.229
REMARK  Name = 44257077
REMARK  4 active torsions:
REMARK  status: ('A' for Active; 'I' for Inactive)
REMARK    1  A    between atoms: O_2  and  C_13
REMARK    2  A    between atoms: O_2  and  C_17
REMARK    3  A    between atoms: C_16  and  C_20
REMARK    4  A    between atoms: C_18  and  C_22
REMARK                            x       y       z     vdW  Elec       q    Type
REMARK                         _______ _______ _______ _____ _____    ______ ____
ROOT
ATOM      1  O   UNL     1     111.599 129.047 135.654  0.00  0.00    +0.000 OA
ATOM      2  O   UNL     1     113.791 127.459 136.666  0.00  0.00    +0.000 OA
ATOM      3  O   UNL     1     114.312 129.604 134.753  0.00  0.00    +0.000 OA
ATOM      4  C   UNL     1     111.349 127.996 136.590  0.00  0.00    +0.000 C 
ATOM      5  C   UNL     1     111.071 128.608 136.111  0.00  0.00    +0.000 C 
ATOM      6  C   UNL     1     112.155 127.824 136.611  0.00  0.00    +0.000 C 
ATOM      7  C   UNL     1     112.683 128.263 136.154  0.00  0.00    +0.000 A 
ATOM      8  C   UNL     1     112.405 128.874 135.675  0.00  0.00    +0.000 A 
ATOM      9  C   UNL     1     113.521 128.073 136.185  0.00  0.00    +0.000 A 
ATOM     10  C   UNL     1     112.944 129.339 135.194  0.00  0.00    +0.000 A 
ATOM     11  C   UNL     1     114.075 128.527 135.710  0.00  0.00    +0.000 A 
ATOM     12  C   UNL     1     113.786 129.164 135.212  0.00  0.00    +0.000 A 
ENDROOT
BRANCH   5  15
ATOM     13  O   UNL     1     108.785 129.901 137.239  0.00  0.00    +0.000 OA
ATOM     14  O   UNL     1     107.844 129.296 136.026  0.00  0.00    +0.000 OA
ATOM     15  C   UNL     1     110.264 128.780 136.090  0.00  0.00    +0.000 A 
ATOM     16  C   UNL     1     109.928 129.255 136.676  0.00  0.00    +0.000 A 
ATOM     17  C   UNL     1     109.794 128.478 135.483  0.00  0.00    +0.000 A 
ATOM     18  C   UNL     1     109.121 129.426 136.654  0.00  0.00    +0.000 A 
ATOM     19  C   UNL     1     108.987 128.650 135.462  0.00  0.00    +0.000 A 
ATOM     20  C   UNL     1     108.651 129.124 136.048  0.00  0.00    +0.000 A 
ENDBRANCH   5  15
BRANCH   4  21
ATOM     21  O   UNL     1     110.821 127.557 137.048  0.00  0.00    +0.000 OA
BRANCH  21  27
ATOM     22  O   UNL     1     111.016 126.234 136.544  0.00  0.00    +0.000 OA
ATOM     23  O   UNL     1     110.984 126.994 138.590  0.00  0.00    +0.000 OA
ATOM     24  O   UNL     1     111.261 125.389 138.857  0.00  0.00    +0.000 OA
ATOM     25  O   UNL     1     111.373 124.349 137.582  0.00  0.00    +0.000 OA
ATOM     26  C   UNL     1     111.041 126.474 137.952  0.00  0.00    +0.000 C 
ATOM     27  C   UNL     1     110.959 126.756 137.181  0.00  0.00    +0.000 C 
ATOM     28  C   UNL     1     111.179 125.671 138.086  0.00  0.00    +0.000 C 
ATOM     29  C   UNL     1     111.235 125.151 137.448  0.00  0.00    +0.000 C 
ATOM     30  C   UNL     1     111.154 125.433 136.677  0.00  0.00    +0.000 C 
BRANCH  30  32
ATOM     31  O   UNL     1     110.692 124.983 135.402  0.00  0.00    +0.000 OA
ATOM     32  C   UNL     1     111.210 124.912 136.040  0.00  0.00    +0.000 C 
ENDBRANCH  30  32
ENDBRANCH  21  27
ENDBRANCH   4  21
TORSDOF 4
ENDMDL
MODEL 5
REMARK VINA RESULT:      -9.0      9.763     12.467
REMARK  Name = 44257077
REMARK  4 active torsions:
REMARK  status: ('A' for Active; 'I' for Inactive)
REMARK    1  A    between atoms: O_2  and  C_13
REMARK    2  A    between atoms: O_2  and  C_17
REMARK    3  A    between atoms: C_16  and  C_20
REMARK    4  A    between atoms: C_18  and  C_22
REMARK                            x       y       z     vdW  Elec       q    Type
REMARK                         _______ _______ _______ _____ _____    ______ ____
ROOT
ATOM      1  O   UNL     1     113.822 126.866 136.755  0.00  0.00    +0.000 OA
ATOM      2  O   UNL     1     112.132 124.534 136.517  0.00  0.00    +0.000 OA
ATOM      3  O   UNL     1     114.890 124.243 137.435  0.00  0.00    +0.000 OA
ATOM      4  C   UNL     1     112.471 127.003 136.307  0.00  0.00    +0.000 C 
ATOM      5  C   UNL     1     113.200 127.342 136.495  0.00  0.00    +0.000 C 
ATOM      6  C   UNL     1     112.366 126.188 136.378  0.00  0.00    +0.000 C 
ATOM      7  C   UNL     1     112.988 125.712 136.638  0.00  0.00    +0.000 A 
ATOM      8  C   UNL     1     113.715 126.051 136.826  0.00  0.00    +0.000 A 
ATOM      9  C   UNL     1     112.864 124.864 136.708  0.00  0.00    +0.000 A 
ATOM     10  C   UNL     1     114.371 125.567 137.098  0.00  0.00    +0.000 A 
ATOM     11  C   UNL     1     113.508 124.364 136.978  0.00  0.00    +0.000 A 
ATOM     12  C   UNL     1     114.267 124.717 137.174  0.00  0.00    +0.000 A 
ENDROOT
BRANCH   5  15
ATOM     13  O   UNL     1     113.272 129.943 137.678  0.00  0.00    +0.000 OA
ATOM     14  O   UNL     1     113.623 130.602 136.206  0.00  0.00    +0.000 OA
ATOM     15  C   UNL     1     113.306 128.157 136.424  0.00  0.00    +0.000 A 
ATOM     16  C   UNL     1     113.236 128.642 137.087  0.00  0.00    +0.000 A 
ATOM     17  C   UNL     1     113.481 128.487 135.687  0.00  0.00    +0.000 A 
ATOM     18  C   UNL     1     113.342 129.457 137.014  0.00  0.00    +0.000 A 
ATOM     19  C   UNL     1     113.587 129.302 135.616  0.00  0.00    +0.000 A 
ATOM     20  C   UNL     1     113.517 129.787 136.279  0.00  0.00    +0.000 A 
ENDBRANCH   5  15
BRANCH   4  21
ATOM     21  O   UNL     1     111.849 127.479 136.047  0.00  0.00    +0.000 OA
BRANCH  21  27
ATOM     22  O   UNL     1     110.876 127.274 137.073  0.00  0.00    +0.000 OA
ATOM     23  O   UNL     1     110.699 127.195 134.899  0.00  0.00    +0.000 OA
ATOM     24  O   UNL     1     109.150 126.848 135.351  0.00  0.00    +0.000 OA
ATOM     25  O   UNL     1     108.753 126.786 136.950  0.00  0.00    +0.000 OA
ATOM     26  C   UNL     1     110.500 127.164 135.699  0.00  0.00    +0.000 C 
ATOM     27  C   UNL     1     111.076 127.305 136.273  0.00  0.00    +0.000 C 
ATOM     28  C   UNL     1     109.726 126.990 135.925  0.00  0.00    +0.000 C 
ATOM     29  C   UNL     1     109.527 126.959 136.725  0.00  0.00    +0.000 C 
ATOM     30  C   UNL     1     110.103 127.101 137.299  0.00  0.00    +0.000 C 
BRANCH  30  32
ATOM     31  O   UNL     1     110.167 127.658 138.613  0.00  0.00    +0.000 OA
ATOM     32  C   UNL     1     109.904 127.069 138.098  0.00  0.00    +0.000 C 
ENDBRANCH  30  32
ENDBRANCH  21  27
ENDBRANCH   4  21
TORSDOF 4
ENDMDL
MODEL 6
REMARK VINA RESULT:      -9.0     10.481     11.991
REMARK  Name = 44257077
REMARK  4 active torsions:
REMARK  status: ('A' for Active; 'I' for Inactive)
REMARK    1  A    between atoms: O_2  and  C_13
REMARK    2  A    between atoms: O_2  and  C_17
REMARK    3  A    between atoms: C_16  and  C_20
REMARK    4  A    between atoms: C_18  and  C_22
REMARK                            x       y       z     vdW  Elec       q    Type
REMARK                         _______ _______ _______ _____ _____    ______ ____
ROOT
ATOM      1  O   UNL     1     111.452 125.427 136.472  0.00  0.00    +0.000 OA
ATOM      2  O   UNL     1     114.272 126.056 136.496  0.00  0.00    +0.000 OA
ATOM      3  O   UNL     1     113.385 123.333 137.071  0.00  0.00    +0.000 OA
ATOM      4  C   UNL     1     111.891 126.758 136.191  0.00  0.00    +0.000 C 
ATOM      5  C   UNL     1     111.279 126.211 136.281  0.00  0.00    +0.000 C 
ATOM      6  C   UNL     1     112.675 126.521 136.293  0.00  0.00    +0.000 C 
ATOM      7  C   UNL     1     112.847 125.737 136.484  0.00  0.00    +0.000 A 
ATOM      8  C   UNL     1     112.236 125.191 136.574  0.00  0.00    +0.000 A 
ATOM      9  C   UNL     1     113.667 125.502 136.588  0.00  0.00    +0.000 A 
ATOM     10  C   UNL     1     112.401 124.371 136.773  0.00  0.00    +0.000 A 
ATOM     11  C   UNL     1     113.852 124.687 136.787  0.00  0.00    +0.000 A 
ATOM     12  C   UNL     1     113.215 124.118 136.880  0.00  0.00    +0.000 A 
ENDROOT
BRANCH   5  15
ATOM     13  O   UNL     1     108.773 127.021 137.390  0.00  0.00    +0.000 OA
ATOM     14  O   UNL     1     108.146 127.163 135.871  0.00  0.00    +0.000 OA
ATOM     15  C   UNL     1     110.496 126.449 136.179  0.00  0.00    +0.000 A 
ATOM     16  C   UNL     1     110.026 126.616 136.836  0.00  0.00    +0.000 A 
ATOM     17  C   UNL     1     110.183 126.520 135.419  0.00  0.00    +0.000 A 
ATOM     18  C   UNL     1     109.243 126.854 136.733  0.00  0.00    +0.000 A 
ATOM     19  C   UNL     1     109.399 126.758 135.317  0.00  0.00    +0.000 A 
ATOM     20  C   UNL     1     108.930 126.925 135.974  0.00  0.00    +0.000 A 
ENDBRANCH   5  15
BRANCH   4  21
ATOM     21  O   UNL     1     111.719 127.542 136.000  0.00  0.00    +0.000 OA
BRANCH  21  27
ATOM     22  O   UNL     1     112.246 128.235 137.134  0.00  0.00    +0.000 OA
ATOM     23  O   UNL     1     112.488 128.601 134.995  0.00  0.00    +0.000 OA
ATOM     24  O   UNL     1     113.400 129.823 135.626  0.00  0.00    +0.000 OA
ATOM     25  O   UNL     1     113.542 129.986 137.261  0.00  0.00    +0.000 OA
ATOM     26  C   UNL     1     112.559 128.682 135.813  0.00  0.00    +0.000 C 
ATOM     27  C   UNL     1     112.175 128.153 136.316  0.00  0.00    +0.000 C 
ATOM     28  C   UNL     1     113.015 129.294 136.129  0.00  0.00    +0.000 C 
ATOM     29  C   UNL     1     113.086 129.375 136.946  0.00  0.00    +0.000 C 
ATOM     30  C   UNL     1     112.702 128.845 137.449  0.00  0.00    +0.000 C 
BRANCH  30  32
ATOM     31  O   UNL     1     112.115 128.817 138.752  0.00  0.00    +0.000 OA
ATOM     32  C   UNL     1     112.773 128.927 138.266  0.00  0.00    +0.000 C 
ENDBRANCH  30  32
ENDBRANCH  21  27
ENDBRANCH   4  21
TORSDOF 4
ENDMDL
MODEL 7
REMARK VINA RESULT:      -9.0      9.134     11.870
REMARK  Name = 44257077
REMARK  4 active torsions:
REMARK  status: ('A' for Active; 'I' for Inactive)
REMARK    1  A    between atoms: O_2  and  C_13
REMARK    2  A    between atoms: O_2  and  C_17
REMARK    3  A    between atoms: C_16  and  C_20
REMARK    4  A    between atoms: C_18  and  C_22
REMARK                            x       y       z     vdW  Elec       q    Type
REMARK                         _______ _______ _______ _____ _____    ______ ____
ROOT
ATOM      1  O   UNL     1     113.405 127.285 136.757  0.00  0.00    +0.000 OA
ATOM      2  O   UNL     1     112.523 129.477 138.420  0.00  0.00    +0.000 OA
ATOM      3  O   UNL     1     113.643 130.018 135.778  0.00  0.00    +0.000 OA
ATOM      4  C   UNL     1     112.856 127.026 138.051  0.00  0.00    +0.000 C 
ATOM      5  C   UNL     1     113.184 126.751 137.345  0.00  0.00    +0.000 C 
ATOM      6  C   UNL     1     112.748 127.836 138.167  0.00  0.00    +0.000 C 
ATOM      7  C   UNL     1     112.969 128.370 137.578  0.00  0.00    +0.000 A 
ATOM      8  C   UNL     1     113.297 128.095 136.874  0.00  0.00    +0.000 A 
ATOM      9  C   UNL     1     112.852 129.211 137.712  0.00  0.00    +0.000 A 
ATOM     10  C   UNL     1     113.531 128.641 136.253  0.00  0.00    +0.000 A 
ATOM     11  C   UNL     1     113.079 129.772 137.102  0.00  0.00    +0.000 A 
ATOM     12  C   UNL     1     113.421 129.486 136.368  0.00  0.00    +0.000 A 
ENDROOT
BRANCH   5  15
ATOM     13  O   UNL     1     114.862 124.439 137.427  0.00  0.00    +0.000 OA
ATOM     14  O   UNL     1     113.611 123.511 136.881  0.00  0.00    +0.000 OA
ATOM     15  C   UNL     1     113.292 125.941 137.229  0.00  0.00    +0.000 A 
ATOM     16  C   UNL     1     114.024 125.595 137.387  0.00  0.00    +0.000 A 
ATOM     17  C   UNL     1     112.666 125.477 136.956  0.00  0.00    +0.000 A 
ATOM     18  C   UNL     1     114.130 124.785 137.270  0.00  0.00    +0.000 A 
ATOM     19  C   UNL     1     112.773 124.668 136.840  0.00  0.00    +0.000 A 
ATOM     20  C   UNL     1     113.505 124.322 136.997  0.00  0.00    +0.000 A 
ENDBRANCH   5  15
BRANCH   4  21
ATOM     21  O   UNL     1     112.635 126.492 138.640  0.00  0.00    +0.000 OA
BRANCH  21  27
ATOM     22  O   UNL     1     113.454 126.918 139.731  0.00  0.00    +0.000 OA
ATOM     23  O   UNL     1     111.321 126.461 139.637  0.00  0.00    +0.000 OA
ATOM     24  O   UNL     1     111.483 126.872 141.227  0.00  0.00    +0.000 OA
ATOM     25  O   UNL     1     112.958 127.313 141.819  0.00  0.00    +0.000 OA
ATOM     26  C   UNL     1     112.059 126.682 139.933  0.00  0.00    +0.000 C 
ATOM     27  C   UNL     1     112.716 126.697 139.434  0.00  0.00    +0.000 C 
ATOM     28  C   UNL     1     112.140 126.887 140.728  0.00  0.00    +0.000 C 
ATOM     29  C   UNL     1     112.878 127.108 141.024  0.00  0.00    +0.000 C 
ATOM     30  C   UNL     1     113.535 127.123 140.525  0.00  0.00    +0.000 C 
BRANCH  30  32
ATOM     31  O   UNL     1     114.931 126.866 140.686  0.00  0.00    +0.000 OA
ATOM     32  C   UNL     1     114.272 127.344 140.821  0.00  0.00    +0.000 C 
ENDBRANCH  30  32
ENDBRANCH  21  27
ENDBRANCH   4  21
TORSDOF 4
ENDMDL
MODEL 8
REMARK VINA RESULT:      -8.9      9.759     12.201
REMARK  Name = 44257077
REMARK  4 active torsions:
REMARK  status: ('A' for Active; 'I' for Inactive)
REMARK    1  A    between atoms: O_2  and  C_13
REMARK    2  A    between atoms: O_2  and  C_17
REMARK    3  A    between atoms: C_16  and  C_20
REMARK    4  A    between atoms: C_18  and  C_22
REMARK                            x       y       z     vdW  Elec       q    Type
REMARK                         _______ _______ _______ _____ _____    ______ ____
ROOT
ATOM      1  O   UNL     1     113.065 128.394 138.265  0.00  0.00    +0.000 OA
ATOM      2  O   UNL     1     112.317 126.121 139.886  0.00  0.00    +0.000 OA
ATOM      3  O   UNL     1     113.223 128.585 141.167  0.00  0.00    +0.000 OA
ATOM      4  C   UNL     1     112.621 127.186 137.643  0.00  0.00    +0.000 C 
ATOM      5  C   UNL     1     112.893 127.963 137.583  0.00  0.00    +0.000 C 
ATOM      6  C   UNL     1     112.523 126.840 138.385  0.00  0.00    +0.000 C 
ATOM      7  C   UNL     1     112.696 127.271 139.067  0.00  0.00    +0.000 A 
ATOM      8  C   UNL     1     112.967 128.047 139.007  0.00  0.00    +0.000 A 
ATOM      9  C   UNL     1     112.589 126.899 139.835  0.00  0.00    +0.000 A 
ATOM     10  C   UNL     1     113.150 128.507 139.710  0.00  0.00    +0.000 A 
ATOM     11  C   UNL     1     112.767 127.343 140.549  0.00  0.00    +0.000 A 
ATOM     12  C   UNL     1     113.050 128.152 140.486  0.00  0.00    +0.000 A 
ENDROOT
BRANCH   5  15
ATOM     13  O   UNL     1     114.571 128.654 135.375  0.00  0.00    +0.000 OA
ATOM     14  O   UNL     1     113.283 129.347 134.612  0.00  0.00    +0.000 OA
ATOM     15  C   UNL     1     112.991 128.309 136.840  0.00  0.00    +0.000 A 
ATOM     16  C   UNL     1     113.733 128.309 136.479  0.00  0.00    +0.000 A 
ATOM     17  C   UNL     1     112.346 128.656 136.458  0.00  0.00    +0.000 A 
ATOM     18  C   UNL     1     113.830 128.655 135.736  0.00  0.00    +0.000 A 
ATOM     19  C   UNL     1     112.444 129.001 135.716  0.00  0.00    +0.000 A 
ATOM     20  C   UNL     1     113.186 129.001 135.355  0.00  0.00    +0.000 A 
ENDBRANCH   5  15
BRANCH   4  21
ATOM     21  O   UNL     1     112.449 126.755 136.961  0.00  0.00    +0.000 OA
BRANCH  21  27
ATOM     22  O   UNL     1     113.356 125.659 137.089  0.00  0.00    +0.000 OA
ATOM     23  O   UNL     1     111.228 125.703 136.608  0.00  0.00    +0.000 OA
ATOM     24  O   UNL     1     111.524 124.081 136.559  0.00  0.00    +0.000 OA
ATOM     25  O   UNL     1     113.042 123.511 136.864  0.00  0.00    +0.000 OA
ATOM     26  C   UNL     1     111.987 125.419 136.760  0.00  0.00    +0.000 C 
ATOM     27  C   UNL     1     112.597 125.945 136.936  0.00  0.00    +0.000 C 
ATOM     28  C   UNL     1     112.135 124.607 136.736  0.00  0.00    +0.000 C 
ATOM     29  C   UNL     1     112.894 124.322 136.888  0.00  0.00    +0.000 C 
ATOM     30  C   UNL     1     113.505 124.848 137.065  0.00  0.00    +0.000 C 
BRANCH  30  32
ATOM     31  O   UNL     1     114.922 124.969 136.930  0.00  0.00    +0.000 OA
ATOM     32  C   UNL     1     114.263 124.563 137.217  0.00  0.00    +0.000 C 
ENDBRANCH  30  32
ENDBRANCH  21  27
ENDBRANCH   4  21
TORSDOF 4
ENDMDL
MODEL 9
REMARK VINA RESULT:      -8.9      8.911     10.956
REMARK  Name = 44257077
REMARK  4 active torsions:
REMARK  status: ('A' for Active; 'I' for Inactive)
REMARK    1  A    between atoms: O_2  and  C_13
REMARK    2  A    between atoms: O_2  and  C_17
REMARK    3  A    between atoms: C_16  and  C_20
REMARK    4  A    between atoms: C_18  and  C_22
REMARK                            x       y       z     vdW  Elec       q    Type
REMARK                         _______ _______ _______ _____ _____    ______ ____
ROOT
ATOM      1  O   UNL     1     113.841 126.247 138.660  0.00  0.00    +0.000 OA
ATOM      2  O   UNL     1     112.208 124.521 137.015  0.00  0.00    +0.000 OA
ATOM      3  O   UNL     1     115.110 124.526 136.683  0.00  0.00    +0.000 OA
ATOM      4  C   UNL     1     112.420 126.241 138.819  0.00  0.00    +0.000 C 
ATOM      5  C   UNL     1     113.163 126.527 139.038  0.00  0.00    +0.000 C 
ATOM      6  C   UNL     1     112.357 125.674 138.223  0.00  0.00    +0.000 C 
ATOM      7  C   UNL     1     113.035 125.393 137.846  0.00  0.00    +0.000 A 
ATOM      8  C   UNL     1     113.776 125.680 138.065  0.00  0.00    +0.000 A 
ATOM      9  C   UNL     1     112.954 124.802 137.227  0.00  0.00    +0.000 A 
ATOM     10  C   UNL     1     114.490 125.396 137.680  0.00  0.00    +0.000 A 
ATOM     11  C   UNL     1     113.657 124.507 136.831  0.00  0.00    +0.000 A 
ATOM     12  C   UNL     1     114.430 124.805 137.058  0.00  0.00    +0.000 A 
ENDROOT
BRANCH   5  15
ATOM     13  O   UNL     1     113.420 129.259 139.839  0.00  0.00    +0.000 OA
ATOM     14  O   UNL     1     113.417 128.794 141.423  0.00  0.00    +0.000 OA
ATOM     15  C   UNL     1     113.227 127.094 139.633  0.00  0.00    +0.000 A 
ATOM     16  C   UNL     1     113.292 127.893 139.438  0.00  0.00    +0.000 A 
ATOM     17  C   UNL     1     113.225 126.862 140.426  0.00  0.00    +0.000 A 
ATOM     18  C   UNL     1     113.355 128.460 140.035  0.00  0.00    +0.000 A 
ATOM     19  C   UNL     1     113.289 127.429 141.021  0.00  0.00    +0.000 A 
ATOM     20  C   UNL     1     113.354 128.228 140.826  0.00  0.00    +0.000 A 
ENDBRANCH   5  15
BRANCH   4  21
ATOM     21  O   UNL     1     111.742 126.521 139.196  0.00  0.00    +0.000 OA
BRANCH  21  27
ATOM     22  O   UNL     1     111.046 127.116 138.099  0.00  0.00    +0.000 OA
ATOM     23  O   UNL     1     110.352 125.770 139.672  0.00  0.00    +0.000 OA
ATOM     24  O   UNL     1     108.961 125.989 138.813  0.00  0.00    +0.000 OA
ATOM     25  O   UNL     1     108.960 126.958 137.479  0.00  0.00    +0.000 OA
ATOM     26  C   UNL     1     110.352 126.255 139.005  0.00  0.00    +0.000 C 
ATOM     27  C   UNL     1     111.047 126.631 138.767  0.00  0.00    +0.000 C 
ATOM     28  C   UNL     1     109.656 126.364 138.575  0.00  0.00    +0.000 C 
ATOM     29  C   UNL     1     109.656 126.849 137.908  0.00  0.00    +0.000 C 
ATOM     30  C   UNL     1     110.351 127.225 137.670  0.00  0.00    +0.000 C 
BRANCH  30  32
ATOM     31  O   UNL     1     110.743 128.435 137.018  0.00  0.00    +0.000 OA
ATOM     32  C   UNL     1     110.350 127.709 137.003  0.00  0.00    +0.000 C 
ENDBRANCH  30  32
ENDBRANCH  21  27
ENDBRANCH   4  21
TORSDOF 4
ENDMDL
MODEL 10
REMARK VINA RESULT:      -8.9     10.639     11.738
REMARK  Name = 44257077
REMARK  4 active torsions:
REMARK  status: ('A' for Active; 'I' for Inactive)
REMARK    1  A    between atoms: O_2  and  C_13
REMARK    2  A    between atoms: O_2  and  C_17
REMARK    3  A    between atoms: C_16  and  C_20
REMARK    4  A    between atoms: C_18  and  C_22
REMARK                            x       y       z     vdW  Elec       q    Type
REMARK                         _______ _______ _______ _____ _____    ______ ____
ROOT
ATOM      1  O   UNL     1     113.189 126.114 138.865  0.00  0.00    +0.000 OA
ATOM      2  O   UNL     1     113.243 128.974 139.278  0.00  0.00    +0.000 OA
ATOM      3  O   UNL     1     114.414 127.194 141.276  0.00  0.00    +0.000 OA
ATOM      4  C   UNL     1     112.617 126.989 137.890  0.00  0.00    +0.000 C 
ATOM      5  C   UNL     1     112.799 126.226 138.147  0.00  0.00    +0.000 C 
ATOM      6  C   UNL     1     112.826 127.640 138.353  0.00  0.00    +0.000 C 
ATOM      7  C   UNL     1     113.217 127.528 139.071  0.00  0.00    +0.000 A 
ATOM      8  C   UNL     1     113.398 126.766 139.327  0.00  0.00    +0.000 A 
ATOM      9  C   UNL     1     113.429 128.214 139.543  0.00  0.00    +0.000 A 
ATOM     10  C   UNL     1     113.804 126.635 140.073  0.00  0.00    +0.000 A 
ATOM     11  C   UNL     1     113.835 128.104 140.291  0.00  0.00    +0.000 A 
ATOM     12  C   UNL     1     114.024 127.309 140.559  0.00  0.00    +0.000 A 
ENDROOT
BRANCH   5  15
ATOM     13  O   UNL     1     113.489 124.238 136.213  0.00  0.00    +0.000 OA
ATOM     14  O   UNL     1     111.960 123.624 136.299  0.00  0.00    +0.000 OA
ATOM     15  C   UNL     1     112.590 125.575 137.685  0.00  0.00    +0.000 A 
ATOM     16  C   UNL     1     113.145 125.232 137.180  0.00  0.00    +0.000 A 
ATOM     17  C   UNL     1     111.825 125.268 137.728  0.00  0.00    +0.000 A 
ATOM     18  C   UNL     1     112.934 124.582 136.718  0.00  0.00    +0.000 A 
ATOM     19  C   UNL     1     111.616 124.618 137.266  0.00  0.00    +0.000 A 
ATOM     20  C   UNL     1     112.170 124.274 136.761  0.00  0.00    +0.000 A 
ENDBRANCH   5  15
BRANCH   4  21
ATOM     21  O   UNL     1     112.227 127.101 137.172  0.00  0.00    +0.000 OA
BRANCH  21  27
ATOM     22  O   UNL     1     113.178 127.886 136.450  0.00  0.00    +0.000 OA
ATOM     23  O   UNL     1     111.032 128.156 136.745  0.00  0.00    +0.000 OA
ATOM     24  O   UNL     1     111.386 129.469 135.810  0.00  0.00    +0.000 OA
ATOM     25  O   UNL     1     112.934 129.726 135.302  0.00  0.00    +0.000 OA
ATOM     26  C   UNL     1     111.807 128.284 136.492  0.00  0.00    +0.000 C 
ATOM     27  C   UNL     1     112.404 127.757 136.705  0.00  0.00    +0.000 C 
ATOM     28  C   UNL     1     111.983 128.941 136.024  0.00  0.00    +0.000 C 
ATOM     29  C   UNL     1     112.758 129.069 135.770  0.00  0.00    +0.000 C 
ATOM     30  C   UNL     1     113.355 128.542 135.983  0.00  0.00    +0.000 C 
BRANCH  30  32
ATOM     31  O   UNL     1     114.585 128.039 135.457  0.00  0.00    +0.000 OA
ATOM     32  C   UNL     1     114.129 128.671 135.729  0.00  0.00    +0.000 C 
ENDBRANCH  30  32
ENDBRANCH  21  27
ENDBRANCH   4  21
TORSDOF 4
ENDMDL
