MODEL 1
REMARK VINA RESULT:     -10.0      0.000      0.000
REMARK  Name = 44258418
REMARK  9 active torsions:
REMARK  status: ('A' for Active; 'I' for Inactive)
REMARK    1  A    between atoms: O_2  and  C_20
REMARK    2  A    between atoms: O_2  and  C_22
REMARK    3  A    between atoms: O_9  and  C_23
REMARK    4  A    between atoms: O_9  and  C_32
REMARK    5  A    between atoms: O_14  and  C_43
REMARK    6  A    between atoms: C_19  and  C_21
REMARK    7  A    between atoms: C_29  and  C_31
REMARK    8  A    between atoms: C_32  and  C_35
REMARK    9  A    between atoms: C_39  and  C_40
REMARK                            x       y       z     vdW  Elec       q    Type
REMARK                         _______ _______ _______ _____ _____    ______ ____
ROOT
ATOM      1  O   UNL     1     104.853 128.457 142.865  0.00  0.00    +0.000 OA
ATOM      2  O   UNL     1     106.067 127.948 145.442  0.00  0.00    +0.000 OA
ATOM      3  O   UNL     1     105.429 129.222 145.210  0.00  0.00    +0.000 OA
ATOM      4  C   UNL     1     105.920 126.693 143.663  0.00  0.00    +0.000 A 
ATOM      5  C   UNL     1     106.106 126.945 144.426  0.00  0.00    +0.000 A 
ATOM      6  C   UNL     1     105.508 127.194 143.153  0.00  0.00    +0.000 A 
ATOM      7  C   UNL     1     105.282 127.946 143.406  0.00  0.00    +0.000 A 
ATOM      8  C   UNL     1     105.468 128.197 144.169  0.00  0.00    +0.000 A 
ATOM      9  C   UNL     1     105.880 127.697 144.679  0.00  0.00    +0.000 A 
ATOM     10  C   UNL     1     105.238 128.978 144.444  0.00  0.00    +0.000 A 
ATOM     11  C   UNL     1     104.614 129.241 143.122  0.00  0.00    +0.000 A 
ATOM     12  C   UNL     1     104.808 129.504 143.917  0.00  0.00    +0.000 A 
ENDROOT
BRANCH  11  14
ATOM     13  O   UNL     1     102.966 131.234 141.073  0.00  0.00    +0.000 OA
ATOM     14  C   UNL     1     104.202 129.740 142.610  0.00  0.00    +0.000 A 
ATOM     15  C   UNL     1     103.382 129.681 142.549  0.00  0.00    +0.000 A 
ATOM     16  C   UNL     1     104.611 130.297 142.158  0.00  0.00    +0.000 A 
ATOM     17  C   UNL     1     102.969 130.179 142.036  0.00  0.00    +0.000 A 
ATOM     18  C   UNL     1     104.199 130.795 141.646  0.00  0.00    +0.000 A 
ATOM     19  C   UNL     1     103.379 130.736 141.585  0.00  0.00    +0.000 A 
ENDBRANCH  11  14
BRANCH   4  20
ATOM     20  O   UNL     1     106.146 125.941 143.410  0.00  0.00    +0.000 OA
BRANCH  20  29
ATOM     21  O   UNL     1     107.169 126.282 142.472  0.00  0.00    +0.000 OA
ATOM     22  O   UNL     1     106.218 124.673 140.849  0.00  0.00    +0.000 OA
ATOM     23  O   UNL     1     107.558 125.550 140.452  0.00  0.00    +0.000 OA
ATOM     24  O   UNL     1     105.512 124.868 142.328  0.00  0.00    +0.000 OA
ATOM     25  C   UNL     1     106.535 125.209 141.390  0.00  0.00    +0.000 C 
ATOM     26  C   UNL     1     107.205 125.648 141.192  0.00  0.00    +0.000 C 
ATOM     27  C   UNL     1     106.182 125.307 142.130  0.00  0.00    +0.000 C 
ATOM     28  C   UNL     1     107.522 126.185 141.733  0.00  0.00    +0.000 C 
ATOM     29  C   UNL     1     106.499 125.844 142.671  0.00  0.00    +0.000 C 
BRANCH  28  32
ATOM     30  O   UNL     1     108.933 126.394 141.813  0.00  0.00    +0.000 OA
ATOM     31  O   UNL     1     108.120 127.291 141.055  0.00  0.00    +0.000 OA
ATOM     32  C   UNL     1     108.192 126.623 141.534  0.00  0.00    +0.000 C 
ENDBRANCH  28  32
ENDBRANCH  20  29
ENDBRANCH   4  20
BRANCH   5  33
ATOM     33  O   UNL     1     106.519 126.444 144.936  0.00  0.00    +0.000 OA
BRANCH  33  35
ATOM     34  O   UNL     1     105.332 125.854 145.471  0.00  0.00    +0.000 OA
ATOM     35  C   UNL     1     106.123 126.073 145.557  0.00  0.00    +0.000 C 
BRANCH  35  36
ATOM     36  C   UNL     1     106.519 125.920 146.266  0.00  0.00    +0.000 C 
ATOM     37  C   UNL     1     106.446 125.182 146.627  0.00  0.00    +0.000 C 
BRANCH  37  39
ATOM     38  O   UNL     1     108.030 124.572 149.458  0.00  0.00    +0.000 OA
ATOM     39  C   UNL     1     106.842 125.030 147.335  0.00  0.00    +0.000 A 
ATOM     40  C   UNL     1     106.429 124.731 147.983  0.00  0.00    +0.000 A 
ATOM     41  C   UNL     1     107.652 125.176 147.394  0.00  0.00    +0.000 A 
ATOM     42  C   UNL     1     106.824 124.578 148.690  0.00  0.00    +0.000 A 
ATOM     43  C   UNL     1     108.048 125.024 148.103  0.00  0.00    +0.000 A 
ATOM     44  C   UNL     1     107.634 124.725 148.751  0.00  0.00    +0.000 A 
BRANCH  42  45
ATOM     45  O   UNL     1     106.410 124.279 149.338  0.00  0.00    +0.000 OA
ATOM     46  C   UNL     1     105.662 124.575 149.523  0.00  0.00    +0.000 C 
ENDBRANCH  42  45
ENDBRANCH  37  39
ENDBRANCH  35  36
ENDBRANCH  33  35
ENDBRANCH   5  33
TORSDOF 9
ENDMDL
MODEL 2
REMARK VINA RESULT:      -9.6      2.212      7.416
REMARK  Name = 44258418
REMARK  9 active torsions:
REMARK  status: ('A' for Active; 'I' for Inactive)
REMARK    1  A    between atoms: O_2  and  C_20
REMARK    2  A    between atoms: O_2  and  C_22
REMARK    3  A    between atoms: O_9  and  C_23
REMARK    4  A    between atoms: O_9  and  C_32
REMARK    5  A    between atoms: O_14  and  C_43
REMARK    6  A    between atoms: C_19  and  C_21
REMARK    7  A    between atoms: C_29  and  C_31
REMARK    8  A    between atoms: C_32  and  C_35
REMARK    9  A    between atoms: C_39  and  C_40
REMARK                            x       y       z     vdW  Elec       q    Type
REMARK                         _______ _______ _______ _____ _____    ______ ____
ROOT
ATOM      1  O   UNL     1     106.447 126.548 147.384  0.00  0.00    +0.000 OA
ATOM      2  O   UNL     1     105.210 126.664 144.770  0.00  0.00    +0.000 OA
ATOM      3  O   UNL     1     105.790 125.419 145.214  0.00  0.00    +0.000 OA
ATOM      4  C   UNL     1     105.451 128.199 146.302  0.00  0.00    +0.000 A 
ATOM      5  C   UNL     1     105.239 127.829 145.597  0.00  0.00    +0.000 A 
ATOM      6  C   UNL     1     105.848 127.774 146.887  0.00  0.00    +0.000 A 
ATOM      7  C   UNL     1     106.033 126.979 146.767  0.00  0.00    +0.000 A 
ATOM      8  C   UNL     1     105.820 126.609 146.061  0.00  0.00    +0.000 A 
ATOM      9  C   UNL     1     105.423 127.034 145.476  0.00  0.00    +0.000 A 
ATOM     10  C   UNL     1     106.007 125.782 145.924  0.00  0.00    +0.000 A 
ATOM     11  C   UNL     1     106.642 125.720 147.265  0.00  0.00    +0.000 A 
ATOM     12  C   UNL     1     106.420 125.334 146.530  0.00  0.00    +0.000 A 
ENDROOT
BRANCH  11  14
ATOM     13  O   UNL     1     108.231 124.030 149.612  0.00  0.00    +0.000 OA
ATOM     14  C   UNL     1     107.039 125.297 147.852  0.00  0.00    +0.000 A 
ATOM     15  C   UNL     1     106.615 124.947 148.467  0.00  0.00    +0.000 A 
ATOM     16  C   UNL     1     107.860 125.225 147.824  0.00  0.00    +0.000 A 
ATOM     17  C   UNL     1     107.012 124.525 149.054  0.00  0.00    +0.000 A 
ATOM     18  C   UNL     1     108.258 124.803 148.410  0.00  0.00    +0.000 A 
ATOM     19  C   UNL     1     107.834 124.453 149.025  0.00  0.00    +0.000 A 
ENDBRANCH  11  14
BRANCH   4  20
ATOM     20  O   UNL     1     105.267 128.994 146.423  0.00  0.00    +0.000 OA
BRANCH  20  29
ATOM     21  O   UNL     1     104.271 128.856 147.438  0.00  0.00    +0.000 OA
ATOM     22  O   UNL     1     105.290 130.729 148.694  0.00  0.00    +0.000 OA
ATOM     23  O   UNL     1     103.954 129.967 149.290  0.00  0.00    +0.000 OA
ATOM     24  O   UNL     1     105.947 130.243 147.260  0.00  0.00    +0.000 OA
ATOM     25  C   UNL     1     104.951 130.105 148.275  0.00  0.00    +0.000 C 
ATOM     26  C   UNL     1     104.283 129.723 148.573  0.00  0.00    +0.000 C 
ATOM     27  C   UNL     1     105.279 129.862 147.558  0.00  0.00    +0.000 C 
ATOM     28  C   UNL     1     103.943 129.099 148.154  0.00  0.00    +0.000 C 
ATOM     29  C   UNL     1     104.939 129.237 147.139  0.00  0.00    +0.000 C 
BRANCH  28  32
ATOM     30  O   UNL     1     103.356 128.126 149.021  0.00  0.00    +0.000 OA
ATOM     31  O   UNL     1     102.524 128.930 148.183  0.00  0.00    +0.000 OA
ATOM     32  C   UNL     1     103.274 128.718 148.453  0.00  0.00    +0.000 C 
ENDBRANCH  28  32
ENDBRANCH  20  29
ENDBRANCH   4  20
BRANCH   5  33
ATOM     33  O   UNL     1     104.842 128.254 145.011  0.00  0.00    +0.000 OA
BRANCH  33  35
ATOM     34  O   UNL     1     106.025 128.684 144.335  0.00  0.00    +0.000 OA
ATOM     35  C   UNL     1     105.232 128.458 144.314  0.00  0.00    +0.000 C 
BRANCH  35  36
ATOM     36  C   UNL     1     104.828 128.434 143.594  0.00  0.00    +0.000 C 
ATOM     37  C   UNL     1     104.686 129.133 143.179  0.00  0.00    +0.000 C 
BRANCH  37  39
ATOM     38  O   UNL     1     103.074 129.040 140.301  0.00  0.00    +0.000 OA
ATOM     39  C   UNL     1     104.283 129.110 142.459  0.00  0.00    +0.000 A 
ATOM     40  C   UNL     1     103.742 129.703 142.270  0.00  0.00    +0.000 A 
ATOM     41  C   UNL     1     104.421 128.493 141.929  0.00  0.00    +0.000 A 
ATOM     42  C   UNL     1     103.339 129.680 141.551  0.00  0.00    +0.000 A 
ATOM     43  C   UNL     1     104.018 128.470 141.209  0.00  0.00    +0.000 A 
ATOM     44  C   UNL     1     103.477 129.063 141.020  0.00  0.00    +0.000 A 
BRANCH  42  45
ATOM     45  O   UNL     1     102.798 130.273 141.362  0.00  0.00    +0.000 OA
ATOM     46  C   UNL     1     102.420 130.694 141.963  0.00  0.00    +0.000 C 
ENDBRANCH  42  45
ENDBRANCH  37  39
ENDBRANCH  35  36
ENDBRANCH  33  35
ENDBRANCH   5  33
TORSDOF 9
ENDMDL
MODEL 3
REMARK VINA RESULT:      -9.6      2.423      3.932
REMARK  Name = 44258418
REMARK  9 active torsions:
REMARK  status: ('A' for Active; 'I' for Inactive)
REMARK    1  A    between atoms: O_2  and  C_20
REMARK    2  A    between atoms: O_2  and  C_22
REMARK    3  A    between atoms: O_9  and  C_23
REMARK    4  A    between atoms: O_9  and  C_32
REMARK    5  A    between atoms: O_14  and  C_43
REMARK    6  A    between atoms: C_19  and  C_21
REMARK    7  A    between atoms: C_29  and  C_31
REMARK    8  A    between atoms: C_32  and  C_35
REMARK    9  A    between atoms: C_39  and  C_40
REMARK                            x       y       z     vdW  Elec       q    Type
REMARK                         _______ _______ _______ _____ _____    ______ ____
ROOT
ATOM      1  O   UNL     1     105.593 125.027 140.702  0.00  0.00    +0.000 OA
ATOM      2  O   UNL     1     105.857 124.293 143.489  0.00  0.00    +0.000 OA
ATOM      3  O   UNL     1     105.128 123.419 142.603  0.00  0.00    +0.000 OA
ATOM      4  C   UNL     1     106.598 126.031 142.396  0.00  0.00    +0.000 A 
ATOM      5  C   UNL     1     106.445 125.506 143.013  0.00  0.00    +0.000 A 
ATOM      6  C   UNL     1     106.316 125.870 141.638  0.00  0.00    +0.000 A 
ATOM      7  C   UNL     1     105.881 125.183 141.497  0.00  0.00    +0.000 A 
ATOM      8  C   UNL     1     105.728 124.658 142.114  0.00  0.00    +0.000 A 
ATOM      9  C   UNL     1     106.010 124.819 142.871  0.00  0.00    +0.000 A 
ATOM     10  C   UNL     1     105.277 123.940 141.979  0.00  0.00    +0.000 A 
ATOM     11  C   UNL     1     105.139 124.314 140.548  0.00  0.00    +0.000 A 
ATOM     12  C   UNL     1     104.980 123.766 141.191  0.00  0.00    +0.000 A 
ENDROOT
BRANCH  11  14
ATOM     13  O   UNL     1     104.016 123.680 137.511  0.00  0.00    +0.000 OA
ATOM     14  C   UNL     1     104.858 124.155 139.789  0.00  0.00    +0.000 A 
ATOM     15  C   UNL     1     105.189 123.542 139.346  0.00  0.00    +0.000 A 
ATOM     16  C   UNL     1     104.247 124.609 139.472  0.00  0.00    +0.000 A 
ATOM     17  C   UNL     1     104.909 123.384 138.587  0.00  0.00    +0.000 A 
ATOM     18  C   UNL     1     103.966 124.451 138.713  0.00  0.00    +0.000 A 
ATOM     19  C   UNL     1     104.296 123.838 138.271  0.00  0.00    +0.000 A 
ENDBRANCH  11  14
BRANCH   4  20
ATOM     20  O   UNL     1     107.033 126.718 142.537  0.00  0.00    +0.000 OA
BRANCH  20  29
ATOM     21  O   UNL     1     108.225 126.358 141.836  0.00  0.00    +0.000 OA
ATOM     22  O   UNL     1     108.391 128.659 140.938  0.00  0.00    +0.000 OA
ATOM     23  O   UNL     1     109.527 127.532 140.536  0.00  0.00    +0.000 OA
ATOM     24  O   UNL     1     107.143 128.252 141.938  0.00  0.00    +0.000 OA
ATOM     25  C   UNL     1     108.335 127.892 141.237  0.00  0.00    +0.000 C 
ATOM     26  C   UNL     1     108.903 127.328 141.036  0.00  0.00    +0.000 C 
ATOM     27  C   UNL     1     107.711 127.688 141.738  0.00  0.00    +0.000 C 
ATOM     28  C   UNL     1     108.848 126.562 141.336  0.00  0.00    +0.000 C 
ATOM     29  C   UNL     1     107.656 126.921 142.037  0.00  0.00    +0.000 C 
BRANCH  28  32
ATOM     30  O   UNL     1     110.061 125.866 141.631  0.00  0.00    +0.000 OA
ATOM     31  O   UNL     1     109.340 125.568 140.435  0.00  0.00    +0.000 OA
ATOM     32  C   UNL     1     109.416 125.999 141.134  0.00  0.00    +0.000 C 
ENDBRANCH  28  32
ENDBRANCH  20  29
ENDBRANCH   4  20
BRANCH   5  33
ATOM     33  O   UNL     1     106.727 125.667 143.772  0.00  0.00    +0.000 OA
BRANCH  33  35
ATOM     34  O   UNL     1     105.561 126.333 144.261  0.00  0.00    +0.000 OA
ATOM     35  C   UNL     1     106.196 125.821 144.384  0.00  0.00    +0.000 C 
BRANCH  35  36
ATOM     36  C   UNL     1     106.302 125.462 145.120  0.00  0.00    +0.000 C 
ATOM     37  C   UNL     1     106.219 125.907 145.810  0.00  0.00    +0.000 C 
BRANCH  37  39
ATOM     38  O   UNL     1     106.640 124.474 148.753  0.00  0.00    +0.000 OA
ATOM     39  C   UNL     1     106.324 125.548 146.547  0.00  0.00    +0.000 A 
ATOM     40  C   UNL     1     105.676 125.237 146.950  0.00  0.00    +0.000 A 
ATOM     41  C   UNL     1     107.078 125.503 146.878  0.00  0.00    +0.000 A 
ATOM     42  C   UNL     1     105.781 124.879 147.685  0.00  0.00    +0.000 A 
ATOM     43  C   UNL     1     107.183 125.144 147.615  0.00  0.00    +0.000 A 
ATOM     44  C   UNL     1     106.535 124.832 148.018  0.00  0.00    +0.000 A 
BRANCH  42  45
ATOM     45  O   UNL     1     105.133 124.567 148.089  0.00  0.00    +0.000 OA
ATOM     46  C   UNL     1     104.407 124.960 148.070  0.00  0.00    +0.000 C 
ENDBRANCH  42  45
ENDBRANCH  37  39
ENDBRANCH  35  36
ENDBRANCH  33  35
ENDBRANCH   5  33
TORSDOF 9
ENDMDL
MODEL 4
REMARK VINA RESULT:      -9.5      2.002      6.330
REMARK  Name = 44258418
REMARK  9 active torsions:
REMARK  status: ('A' for Active; 'I' for Inactive)
REMARK    1  A    between atoms: O_2  and  C_20
REMARK    2  A    between atoms: O_2  and  C_22
REMARK    3  A    between atoms: O_9  and  C_23
REMARK    4  A    between atoms: O_9  and  C_32
REMARK    5  A    between atoms: O_14  and  C_43
REMARK    6  A    between atoms: C_19  and  C_21
REMARK    7  A    between atoms: C_29  and  C_31
REMARK    8  A    between atoms: C_32  and  C_35
REMARK    9  A    between atoms: C_39  and  C_40
REMARK                            x       y       z     vdW  Elec       q    Type
REMARK                         _______ _______ _______ _____ _____    ______ ____
ROOT
ATOM      1  O   UNL     1     108.421 127.051 142.000  0.00  0.00    +0.000 OA
ATOM      2  O   UNL     1     106.448 129.130 141.599  0.00  0.00    +0.000 OA
ATOM      3  O   UNL     1     107.771 129.306 141.050  0.00  0.00    +0.000 OA
ATOM      4  C   UNL     1     106.312 127.218 142.642  0.00  0.00    +0.000 A 
ATOM      5  C   UNL     1     106.104 127.953 142.331  0.00  0.00    +0.000 A 
ATOM      6  C   UNL     1     107.075 126.925 142.530  0.00  0.00    +0.000 A 
ATOM      7  C   UNL     1     107.629 127.367 142.108  0.00  0.00    +0.000 A 
ATOM      8  C   UNL     1     107.420 128.102 141.798  0.00  0.00    +0.000 A 
ATOM      9  C   UNL     1     106.658 128.395 141.909  0.00  0.00    +0.000 A 
ATOM     10  C   UNL     1     107.989 128.571 141.357  0.00  0.00    +0.000 A 
ATOM     11  C   UNL     1     109.003 127.506 141.561  0.00  0.00    +0.000 A 
ATOM     12  C   UNL     1     108.785 128.272 141.238  0.00  0.00    +0.000 A 
ENDROOT
BRANCH  11  14
ATOM     13  O   UNL     1     112.052 126.323 141.122  0.00  0.00    +0.000 OA
ATOM     14  C   UNL     1     109.765 127.210 141.452  0.00  0.00    +0.000 A 
ATOM     15  C   UNL     1     110.406 127.576 141.820  0.00  0.00    +0.000 A 
ATOM     16  C   UNL     1     109.886 126.549 140.974  0.00  0.00    +0.000 A 
ATOM     17  C   UNL     1     111.169 127.281 141.710  0.00  0.00    +0.000 A 
ATOM     18  C   UNL     1     110.648 126.253 140.864  0.00  0.00    +0.000 A 
ATOM     19  C   UNL     1     111.289 126.619 141.232  0.00  0.00    +0.000 A 
ENDBRANCH  11  14
BRANCH   4  20
ATOM     20  O   UNL     1     105.757 126.775 143.064  0.00  0.00    +0.000 OA
BRANCH  20  29
ATOM     21  O   UNL     1     106.207 126.978 144.405  0.00  0.00    +0.000 OA
ATOM     22  O   UNL     1     106.017 124.549 144.836  0.00  0.00    +0.000 OA
ATOM     23  O   UNL     1     106.530 125.561 146.033  0.00  0.00    +0.000 OA
ATOM     24  O   UNL     1     105.631 125.156 143.351  0.00  0.00    +0.000 OA
ATOM     25  C   UNL     1     106.081 125.358 144.692  0.00  0.00    +0.000 C 
ATOM     26  C   UNL     1     106.337 125.865 145.290  0.00  0.00    +0.000 C 
ATOM     27  C   UNL     1     105.887 125.662 143.949  0.00  0.00    +0.000 C 
ATOM     28  C   UNL     1     106.400 126.675 145.147  0.00  0.00    +0.000 C 
ATOM     29  C   UNL     1     105.951 126.472 143.806  0.00  0.00    +0.000 C 
BRANCH  28  32
ATOM     30  O   UNL     1     106.108 127.582 146.212  0.00  0.00    +0.000 OA
ATOM     31  O   UNL     1     107.465 127.286 145.879  0.00  0.00    +0.000 OA
ATOM     32  C   UNL     1     106.657 127.181 145.746  0.00  0.00    +0.000 C 
ENDBRANCH  28  32
ENDBRANCH  20  29
ENDBRANCH   4  20
BRANCH   5  33
ATOM     33  O   UNL     1     105.340 128.246 142.442  0.00  0.00    +0.000 OA
BRANCH  33  35
ATOM     34  O   UNL     1     104.746 127.674 141.275  0.00  0.00    +0.000 OA
ATOM     35  C   UNL     1     104.823 128.304 141.802  0.00  0.00    +0.000 C 
BRANCH  35  36
ATOM     36  C   UNL     1     104.384 128.994 141.688  0.00  0.00    +0.000 C 
ATOM     37  C   UNL     1     103.572 128.992 141.829  0.00  0.00    +0.000 C 
BRANCH  37  39
ATOM     38  O   UNL     1     101.816 131.749 141.372  0.00  0.00    +0.000 OA
ATOM     39  C   UNL     1     103.132 129.682 141.715  0.00  0.00    +0.000 A 
ATOM     40  C   UNL     1     102.955 130.169 142.357  0.00  0.00    +0.000 A 
ATOM     41  C   UNL     1     102.871 129.884 140.959  0.00  0.00    +0.000 A 
ATOM     42  C   UNL     1     102.516 130.858 142.242  0.00  0.00    +0.000 A 
ATOM     43  C   UNL     1     102.432 130.573 140.845  0.00  0.00    +0.000 A 
ATOM     44  C   UNL     1     102.254 131.060 141.487  0.00  0.00    +0.000 A 
BRANCH  42  45
ATOM     45  O   UNL     1     102.338 131.345 142.884  0.00  0.00    +0.000 OA
ATOM     46  C   UNL     1     102.823 131.340 143.553  0.00  0.00    +0.000 C 
ENDBRANCH  42  45
ENDBRANCH  37  39
ENDBRANCH  35  36
ENDBRANCH  33  35
ENDBRANCH   5  33
TORSDOF 9
ENDMDL
MODEL 5
REMARK VINA RESULT:      -9.5      3.633      4.929
REMARK  Name = 44258418
REMARK  9 active torsions:
REMARK  status: ('A' for Active; 'I' for Inactive)
REMARK    1  A    between atoms: O_2  and  C_20
REMARK    2  A    between atoms: O_2  and  C_22
REMARK    3  A    between atoms: O_9  and  C_23
REMARK    4  A    between atoms: O_9  and  C_32
REMARK    5  A    between atoms: O_14  and  C_43
REMARK    6  A    between atoms: C_19  and  C_21
REMARK    7  A    between atoms: C_29  and  C_31
REMARK    8  A    between atoms: C_32  and  C_35
REMARK    9  A    between atoms: C_39  and  C_40
REMARK                            x       y       z     vdW  Elec       q    Type
REMARK                         _______ _______ _______ _____ _____    ______ ____
ROOT
ATOM      1  O   UNL     1     103.759 130.416 141.929  0.00  0.00    +0.000 OA
ATOM      2  O   UNL     1     104.171 127.802 140.759  0.00  0.00    +0.000 OA
ATOM      3  O   UNL     1     102.962 128.525 140.446  0.00  0.00    +0.000 OA
ATOM      4  C   UNL     1     105.421 128.970 142.114  0.00  0.00    +0.000 A 
ATOM      5  C   UNL     1     105.158 128.356 141.631  0.00  0.00    +0.000 A 
ATOM      6  C   UNL     1     104.957 129.645 142.210  0.00  0.00    +0.000 A 
ATOM      7  C   UNL     1     104.232 129.707 141.821  0.00  0.00    +0.000 A 
ATOM      8  C   UNL     1     103.970 129.093 141.338  0.00  0.00    +0.000 A 
ATOM      9  C   UNL     1     104.433 128.417 141.242  0.00  0.00    +0.000 A 
ATOM     10  C   UNL     1     103.217 129.145 140.929  0.00  0.00    +0.000 A 
ATOM     11  C   UNL     1     103.003 130.486 141.528  0.00  0.00    +0.000 A 
ATOM     12  C   UNL     1     102.729 129.846 141.024  0.00  0.00    +0.000 A 
ENDROOT
BRANCH  11  14
ATOM     13  O   UNL     1     101.159 133.195 141.917  0.00  0.00    +0.000 OA
ATOM     14  C   UNL     1     102.541 131.164 141.625  0.00  0.00    +0.000 A 
ATOM     15  C   UNL     1     101.846 131.129 142.069  0.00  0.00    +0.000 A 
ATOM     16  C   UNL     1     102.775 131.875 141.280  0.00  0.00    +0.000 A 
ATOM     17  C   UNL     1     101.385 131.806 142.166  0.00  0.00    +0.000 A 
ATOM     18  C   UNL     1     102.315 132.553 141.377  0.00  0.00    +0.000 A 
ATOM     19  C   UNL     1     101.620 132.518 141.820  0.00  0.00    +0.000 A 
ENDBRANCH  11  14
BRANCH   4  20
ATOM     20  O   UNL     1     106.146 128.908 142.503  0.00  0.00    +0.000 OA
BRANCH  20  29
ATOM     21  O   UNL     1     106.936 129.718 141.629  0.00  0.00    +0.000 OA
ATOM     22  O   UNL     1     108.028 130.765 143.588  0.00  0.00    +0.000 OA
ATOM     23  O   UNL     1     108.454 131.225 142.062  0.00  0.00    +0.000 OA
ATOM     24  O   UNL     1     106.874 129.606 143.808  0.00  0.00    +0.000 OA
ATOM     25  C   UNL     1     107.664 130.416 142.935  0.00  0.00    +0.000 C 
ATOM     26  C   UNL     1     107.877 130.646 142.172  0.00  0.00    +0.000 C 
ATOM     27  C   UNL     1     107.087 129.836 143.045  0.00  0.00    +0.000 C 
ATOM     28  C   UNL     1     107.513 130.297 141.519  0.00  0.00    +0.000 C 
ATOM     29  C   UNL     1     106.723 129.487 142.392  0.00  0.00    +0.000 C 
BRANCH  28  32
ATOM     30  O   UNL     1     107.457 131.244 140.451  0.00  0.00    +0.000 OA
ATOM     31  O   UNL     1     108.210 130.040 140.299  0.00  0.00    +0.000 OA
ATOM     32  C   UNL     1     107.726 130.527 140.756  0.00  0.00    +0.000 C 
ENDBRANCH  28  32
ENDBRANCH  20  29
ENDBRANCH   4  20
BRANCH   5  33
ATOM     33  O   UNL     1     105.622 127.679 141.535  0.00  0.00    +0.000 OA
BRANCH  33  35
ATOM     34  O   UNL     1     105.095 126.980 142.665  0.00  0.00    +0.000 OA
ATOM     35  C   UNL     1     105.399 126.973 141.898  0.00  0.00    +0.000 C 
BRANCH  35  36
ATOM     36  C   UNL     1     105.480 126.258 141.493  0.00  0.00    +0.000 C 
ATOM     37  C   UNL     1     105.795 125.600 141.878  0.00  0.00    +0.000 C 
BRANCH  37  39
ATOM     38  O   UNL     1     106.120 122.743 140.258  0.00  0.00    +0.000 OA
ATOM     39  C   UNL     1     105.876 124.885 141.473  0.00  0.00    +0.000 A 
ATOM     40  C   UNL     1     105.246 124.353 141.444  0.00  0.00    +0.000 A 
ATOM     41  C   UNL     1     106.588 124.703 141.096  0.00  0.00    +0.000 A 
ATOM     42  C   UNL     1     105.328 123.639 141.040  0.00  0.00    +0.000 A 
ATOM     43  C   UNL     1     106.669 123.989 140.691  0.00  0.00    +0.000 A 
ATOM     44  C   UNL     1     106.039 123.457 140.663  0.00  0.00    +0.000 A 
BRANCH  42  45
ATOM     45  O   UNL     1     104.698 123.107 141.012  0.00  0.00    +0.000 OA
ATOM     46  C   UNL     1     104.433 122.743 141.704  0.00  0.00    +0.000 C 
ENDBRANCH  42  45
ENDBRANCH  37  39
ENDBRANCH  35  36
ENDBRANCH  33  35
ENDBRANCH   5  33
TORSDOF 9
ENDMDL
MODEL 6
REMARK VINA RESULT:      -9.4      6.387      8.641
REMARK  Name = 44258418
REMARK  9 active torsions:
REMARK  status: ('A' for Active; 'I' for Inactive)
REMARK    1  A    between atoms: O_2  and  C_20
REMARK    2  A    between atoms: O_2  and  C_22
REMARK    3  A    between atoms: O_9  and  C_23
REMARK    4  A    between atoms: O_9  and  C_32
REMARK    5  A    between atoms: O_14  and  C_43
REMARK    6  A    between atoms: C_19  and  C_21
REMARK    7  A    between atoms: C_29  and  C_31
REMARK    8  A    between atoms: C_32  and  C_35
REMARK    9  A    between atoms: C_39  and  C_40
REMARK                            x       y       z     vdW  Elec       q    Type
REMARK                         _______ _______ _______ _____ _____    ______ ____
ROOT
ATOM      1  O   UNL     1     112.049 128.462 139.825  0.00  0.00    +0.000 OA
ATOM      2  O   UNL     1     111.927 129.367 142.571  0.00  0.00    +0.000 OA
ATOM      3  O   UNL     1     112.416 128.038 142.294  0.00  0.00    +0.000 OA
ATOM      4  C   UNL     1     111.385 130.375 140.713  0.00  0.00    +0.000 A 
ATOM      5  C   UNL     1     111.506 130.234 141.516  0.00  0.00    +0.000 A 
ATOM      6  C   UNL     1     111.565 129.790 140.160  0.00  0.00    +0.000 A 
ATOM      7  C   UNL     1     111.866 129.063 140.411  0.00  0.00    +0.000 A 
ATOM      8  C   UNL     1     111.986 128.923 141.214  0.00  0.00    +0.000 A 
ATOM      9  C   UNL     1     111.807 129.507 141.767  0.00  0.00    +0.000 A 
ATOM     10  C   UNL     1     112.298 128.171 141.488  0.00  0.00    +0.000 A 
ATOM     11  C   UNL     1     112.362 127.704 140.079  0.00  0.00    +0.000 A 
ATOM     12  C   UNL     1     112.488 127.556 140.916  0.00  0.00    +0.000 A 
ENDROOT
BRANCH  11  14
ATOM     13  O   UNL     1     113.078 125.370 137.859  0.00  0.00    +0.000 OA
ATOM     14  C   UNL     1     112.541 127.120 139.524  0.00  0.00    +0.000 A 
ATOM     15  C   UNL     1     111.946 126.621 139.244  0.00  0.00    +0.000 A 
ATOM     16  C   UNL     1     113.314 127.035 139.249  0.00  0.00    +0.000 A 
ATOM     17  C   UNL     1     112.125 126.038 138.688  0.00  0.00    +0.000 A 
ATOM     18  C   UNL     1     113.493 126.453 138.694  0.00  0.00    +0.000 A 
ATOM     19  C   UNL     1     112.899 125.954 138.414  0.00  0.00    +0.000 A 
ENDBRANCH  11  14
BRANCH   4  20
ATOM     20  O   UNL     1     111.085 131.102 140.462  0.00  0.00    +0.000 OA
BRANCH  20  29
ATOM     21  O   UNL     1     109.699 130.775 140.343  0.00  0.00    +0.000 OA
ATOM     22  O   UNL     1     109.614 131.933 138.157  0.00  0.00    +0.000 OA
ATOM     23  O   UNL     1     108.256 131.220 138.767  0.00  0.00    +0.000 OA
ATOM     24  O   UNL     1     111.028 131.874 139.005  0.00  0.00    +0.000 OA
ATOM     25  C   UNL     1     109.642 131.547 138.886  0.00  0.00    +0.000 C 
ATOM     26  C   UNL     1     108.964 131.190 139.191  0.00  0.00    +0.000 C 
ATOM     27  C   UNL     1     110.350 131.517 139.310  0.00  0.00    +0.000 C 
ATOM     28  C   UNL     1     108.992 130.804 139.919  0.00  0.00    +0.000 C 
ATOM     29  C   UNL     1     110.378 131.131 140.038  0.00  0.00    +0.000 C 
BRANCH  28  32
ATOM     30  O   UNL     1     108.169 129.648 140.085  0.00  0.00    +0.000 OA
ATOM     31  O   UNL     1     107.778 130.893 140.667  0.00  0.00    +0.000 OA
ATOM     32  C   UNL     1     108.313 130.448 140.224  0.00  0.00    +0.000 C 
ENDBRANCH  28  32
ENDBRANCH  20  29
ENDBRANCH   4  20
BRANCH   5  33
ATOM     33  O   UNL     1     111.326 130.819 142.069  0.00  0.00    +0.000 OA
BRANCH  33  35
ATOM     34  O   UNL     1     112.674 131.295 142.075  0.00  0.00    +0.000 OA
ATOM     35  C   UNL     1     111.934 131.240 142.436  0.00  0.00    +0.000 C 
BRANCH  35  36
ATOM     36  C   UNL     1     111.801 131.606 143.164  0.00  0.00    +0.000 C 
ATOM     37  C   UNL     1     112.177 132.319 143.341  0.00  0.00    +0.000 C 
BRANCH  37  39
ATOM     38  O   UNL     1     111.645 133.782 146.251  0.00  0.00    +0.000 OA
ATOM     39  C   UNL     1     112.044 132.685 144.069  0.00  0.00    +0.000 A 
ATOM     40  C   UNL     1     111.908 133.498 144.103  0.00  0.00    +0.000 A 
ATOM     41  C   UNL     1     112.047 132.237 144.762  0.00  0.00    +0.000 A 
ATOM     42  C   UNL     1     111.775 133.863 144.830  0.00  0.00    +0.000 A 
ATOM     43  C   UNL     1     111.914 132.603 145.490  0.00  0.00    +0.000 A 
ATOM     44  C   UNL     1     111.778 133.416 145.524  0.00  0.00    +0.000 A 
BRANCH  42  45
ATOM     45  O   UNL     1     111.639 134.676 144.865  0.00  0.00    +0.000 OA
ATOM     46  C   UNL     1     111.906 135.166 144.255  0.00  0.00    +0.000 C 
ENDBRANCH  42  45
ENDBRANCH  37  39
ENDBRANCH  35  36
ENDBRANCH  33  35
ENDBRANCH   5  33
TORSDOF 9
ENDMDL
MODEL 7
REMARK VINA RESULT:      -9.4      4.942      7.490
REMARK  Name = 44258418
REMARK  9 active torsions:
REMARK  status: ('A' for Active; 'I' for Inactive)
REMARK    1  A    between atoms: O_2  and  C_20
REMARK    2  A    between atoms: O_2  and  C_22
REMARK    3  A    between atoms: O_9  and  C_23
REMARK    4  A    between atoms: O_9  and  C_32
REMARK    5  A    between atoms: O_14  and  C_43
REMARK    6  A    between atoms: C_19  and  C_21
REMARK    7  A    between atoms: C_29  and  C_31
REMARK    8  A    between atoms: C_32  and  C_35
REMARK    9  A    between atoms: C_39  and  C_40
REMARK                            x       y       z     vdW  Elec       q    Type
REMARK                         _______ _______ _______ _____ _____    ______ ____
ROOT
ATOM      1  O   UNL     1     111.884 127.550 139.964  0.00  0.00    +0.000 OA
ATOM      2  O   UNL     1     110.006 125.913 141.436  0.00  0.00    +0.000 OA
ATOM      3  O   UNL     1     111.051 126.597 142.158  0.00  0.00    +0.000 OA
ATOM      4  C   UNL     1     110.156 126.341 139.301  0.00  0.00    +0.000 A 
ATOM      5  C   UNL     1     109.888 126.032 140.017  0.00  0.00    +0.000 A 
ATOM      6  C   UNL     1     110.813 126.840 139.288  0.00  0.00    +0.000 A 
ATOM      7  C   UNL     1     111.201 127.029 139.991  0.00  0.00    +0.000 A 
ATOM      8  C   UNL     1     110.932 126.721 140.707  0.00  0.00    +0.000 A 
ATOM      9  C   UNL     1     110.275 126.222 140.720  0.00  0.00    +0.000 A 
ATOM     10  C   UNL     1     111.327 126.911 141.445  0.00  0.00    +0.000 A 
ATOM     11  C   UNL     1     112.293 127.752 140.693  0.00  0.00    +0.000 A 
ATOM     12  C   UNL     1     112.013 127.430 141.439  0.00  0.00    +0.000 A 
ENDROOT
BRANCH  11  14
ATOM     13  O   UNL     1     114.920 129.747 140.629  0.00  0.00    +0.000 OA
ATOM     14  C   UNL     1     112.949 128.251 140.677  0.00  0.00    +0.000 A 
ATOM     15  C   UNL     1     112.846 129.069 140.677  0.00  0.00    +0.000 A 
ATOM     16  C   UNL     1     113.710 127.932 140.660  0.00  0.00    +0.000 A 
ATOM     17  C   UNL     1     113.503 129.569 140.661  0.00  0.00    +0.000 A 
ATOM     18  C   UNL     1     114.367 128.430 140.644  0.00  0.00    +0.000 A 
ATOM     19  C   UNL     1     114.263 129.248 140.645  0.00  0.00    +0.000 A 
ENDBRANCH  11  14
BRANCH   4  20
ATOM     20  O   UNL     1     109.768 126.151 138.598  0.00  0.00    +0.000 OA
BRANCH  20  29
ATOM     21  O   UNL     1     110.788 125.343 138.008  0.00  0.00    +0.000 OA
ATOM     22  O   UNL     1     110.340 126.382 135.807  0.00  0.00    +0.000 OA
ATOM     23  O   UNL     1     111.509 125.227 135.951  0.00  0.00    +0.000 OA
ATOM     24  O   UNL     1     109.469 126.844 137.131  0.00  0.00    +0.000 OA
ATOM     25  C   UNL     1     110.489 126.036 136.541  0.00  0.00    +0.000 C 
ATOM     26  C   UNL     1     111.074 125.458 136.613  0.00  0.00    +0.000 C 
ATOM     27  C   UNL     1     110.054 126.267 137.203  0.00  0.00    +0.000 C 
ATOM     28  C   UNL     1     111.223 125.112 137.347  0.00  0.00    +0.000 C 
ATOM     29  C   UNL     1     110.203 125.920 137.937  0.00  0.00    +0.000 C 
BRANCH  28  32
ATOM     30  O   UNL     1     112.595 124.754 137.530  0.00  0.00    +0.000 OA
ATOM     31  O   UNL     1     111.606 123.735 137.377  0.00  0.00    +0.000 OA
ATOM     32  C   UNL     1     111.808 124.534 137.418  0.00  0.00    +0.000 C 
ENDBRANCH  28  32
ENDBRANCH  20  29
ENDBRANCH   4  20
BRANCH   5  33
ATOM     33  O   UNL     1     109.230 125.533 140.030  0.00  0.00    +0.000 OA
BRANCH  33  35
ATOM     34  O   UNL     1     108.336 126.626 140.251  0.00  0.00    +0.000 OA
ATOM     35  C   UNL     1     108.501 125.819 140.290  0.00  0.00    +0.000 C 
BRANCH  35  36
ATOM     36  C   UNL     1     107.937 125.296 140.591  0.00  0.00    +0.000 C 
ATOM     37  C   UNL     1     107.145 125.377 140.376  0.00  0.00    +0.000 C 
BRANCH  37  39
ATOM     38  O   UNL     1     104.891 123.288 141.578  0.00  0.00    +0.000 OA
ATOM     39  C   UNL     1     106.581 124.854 140.677  0.00  0.00    +0.000 A 
ATOM     40  C   UNL     1     106.204 124.320 140.174  0.00  0.00    +0.000 A 
ATOM     41  C   UNL     1     106.395 124.867 141.480  0.00  0.00    +0.000 A 
ATOM     42  C   UNL     1     105.641 123.798 140.474  0.00  0.00    +0.000 A 
ATOM     43  C   UNL     1     105.831 124.344 141.781  0.00  0.00    +0.000 A 
ATOM     44  C   UNL     1     105.454 123.810 141.278  0.00  0.00    +0.000 A 
BRANCH  42  45
ATOM     45  O   UNL     1     105.264 123.264 139.971  0.00  0.00    +0.000 OA
ATOM     46  C   UNL     1     105.062 123.492 139.203  0.00  0.00    +0.000 C 
ENDBRANCH  42  45
ENDBRANCH  37  39
ENDBRANCH  35  36
ENDBRANCH  33  35
ENDBRANCH   5  33
TORSDOF 9
ENDMDL
MODEL 8
REMARK VINA RESULT:      -9.4      6.908      9.317
REMARK  Name = 44258418
REMARK  9 active torsions:
REMARK  status: ('A' for Active; 'I' for Inactive)
REMARK    1  A    between atoms: O_2  and  C_20
REMARK    2  A    between atoms: O_2  and  C_22
REMARK    3  A    between atoms: O_9  and  C_23
REMARK    4  A    between atoms: O_9  and  C_32
REMARK    5  A    between atoms: O_14  and  C_43
REMARK    6  A    between atoms: C_19  and  C_21
REMARK    7  A    between atoms: C_29  and  C_31
REMARK    8  A    between atoms: C_32  and  C_35
REMARK    9  A    between atoms: C_39  and  C_40
REMARK                            x       y       z     vdW  Elec       q    Type
REMARK                         _______ _______ _______ _____ _____    ______ ____
ROOT
ATOM      1  O   UNL     1     113.192 127.280 138.308  0.00  0.00    +0.000 OA
ATOM      2  O   UNL     1     112.059 127.712 140.936  0.00  0.00    +0.000 OA
ATOM      3  O   UNL     1     112.322 126.362 140.502  0.00  0.00    +0.000 OA
ATOM      4  C   UNL     1     112.632 129.132 139.380  0.00  0.00    +0.000 A 
ATOM      5  C   UNL     1     112.349 128.829 140.093  0.00  0.00    +0.000 A 
ATOM      6  C   UNL     1     112.908 128.619 138.796  0.00  0.00    +0.000 A 
ATOM      7  C   UNL     1     112.901 127.804 138.925  0.00  0.00    +0.000 A 
ATOM      8  C   UNL     1     112.619 127.502 139.638  0.00  0.00    +0.000 A 
ATOM      9  C   UNL     1     112.342 128.014 140.222  0.00  0.00    +0.000 A 
ATOM     10  C   UNL     1     112.607 126.656 139.784  0.00  0.00    +0.000 A 
ATOM     11  C   UNL     1     113.188 126.431 138.436  0.00  0.00    +0.000 A 
ATOM     12  C   UNL     1     112.893 126.116 139.180  0.00  0.00    +0.000 A 
ENDROOT
BRANCH  11  14
ATOM     13  O   UNL     1     114.295 124.390 136.092  0.00  0.00    +0.000 OA
ATOM     14  C   UNL     1     113.465 125.921 137.850  0.00  0.00    +0.000 A 
ATOM     15  C   UNL     1     114.240 125.641 137.879  0.00  0.00    +0.000 A 
ATOM     16  C   UNL     1     112.966 125.690 137.235  0.00  0.00    +0.000 A 
ATOM     17  C   UNL     1     114.517 125.131 137.293  0.00  0.00    +0.000 A 
ATOM     18  C   UNL     1     113.242 125.180 136.649  0.00  0.00    +0.000 A 
ATOM     19  C   UNL     1     114.018 124.900 136.678  0.00  0.00    +0.000 A 
ENDBRANCH  11  14
BRANCH   4  20
ATOM     20  O   UNL     1     112.638 129.946 139.250  0.00  0.00    +0.000 OA
BRANCH  20  29
ATOM     21  O   UNL     1     111.531 130.055 138.353  0.00  0.00    +0.000 OA
ATOM     22  O   UNL     1     112.840 131.597 136.926  0.00  0.00    +0.000 OA
ATOM     23  O   UNL     1     111.297 131.192 136.505  0.00  0.00    +0.000 OA
ATOM     24  O   UNL     1     113.510 130.974 138.299  0.00  0.00    +0.000 OA
ATOM     25  C   UNL     1     112.404 131.083 137.402  0.00  0.00    +0.000 C 
ATOM     26  C   UNL     1     111.632 130.880 137.192  0.00  0.00    +0.000 C 
ATOM     27  C   UNL     1     112.739 130.771 138.089  0.00  0.00    +0.000 C 
ATOM     28  C   UNL     1     111.196 130.366 137.667  0.00  0.00    +0.000 C 
ATOM     29  C   UNL     1     112.303 130.257 138.565  0.00  0.00    +0.000 C 
BRANCH  28  32
ATOM     30  O   UNL     1     110.291 129.560 136.911  0.00  0.00    +0.000 OA
ATOM     31  O   UNL     1     109.787 130.567 137.790  0.00  0.00    +0.000 OA
ATOM     32  C   UNL     1     110.425 130.164 137.456  0.00  0.00    +0.000 C 
ENDBRANCH  28  32
ENDBRANCH  20  29
ENDBRANCH   4  20
BRANCH   5  33
ATOM     33  O   UNL     1     112.073 129.342 140.678  0.00  0.00    +0.000 OA
BRANCH  33  35
ATOM     34  O   UNL     1     113.357 129.465 141.292  0.00  0.00    +0.000 OA
ATOM     35  C   UNL     1     112.534 129.494 141.344  0.00  0.00    +0.000 C 
BRANCH  35  36
ATOM     36  C   UNL     1     112.172 129.675 142.064  0.00  0.00    +0.000 C 
ATOM     37  C   UNL     1     112.399 130.350 142.480  0.00  0.00    +0.000 C 
BRANCH  37  39
ATOM     38  O   UNL     1     110.952 131.075 145.356  0.00  0.00    +0.000 OA
ATOM     39  C   UNL     1     112.037 130.532 143.199  0.00  0.00    +0.000 A 
ATOM     40  C   UNL     1     111.945 131.319 143.428  0.00  0.00    +0.000 A 
ATOM     41  C   UNL     1     111.767 129.925 143.689  0.00  0.00    +0.000 A 
ATOM     42  C   UNL     1     111.584 131.500 144.147  0.00  0.00    +0.000 A 
ATOM     43  C   UNL     1     111.406 130.107 144.409  0.00  0.00    +0.000 A 
ATOM     44  C   UNL     1     111.314 130.894 144.638  0.00  0.00    +0.000 A 
BRANCH  42  45
ATOM     45  O   UNL     1     111.492 132.287 144.376  0.00  0.00    +0.000 OA
ATOM     46  C   UNL     1     112.046 132.853 144.140  0.00  0.00    +0.000 C 
ENDBRANCH  42  45
ENDBRANCH  37  39
ENDBRANCH  35  36
ENDBRANCH  33  35
ENDBRANCH   5  33
TORSDOF 9
ENDMDL
MODEL 9
REMARK VINA RESULT:      -9.4      7.954     11.352
REMARK  Name = 44258418
REMARK  9 active torsions:
REMARK  status: ('A' for Active; 'I' for Inactive)
REMARK    1  A    between atoms: O_2  and  C_20
REMARK    2  A    between atoms: O_2  and  C_22
REMARK    3  A    between atoms: O_9  and  C_23
REMARK    4  A    between atoms: O_9  and  C_32
REMARK    5  A    between atoms: O_14  and  C_43
REMARK    6  A    between atoms: C_19  and  C_21
REMARK    7  A    between atoms: C_29  and  C_31
REMARK    8  A    between atoms: C_32  and  C_35
REMARK    9  A    between atoms: C_39  and  C_40
REMARK                            x       y       z     vdW  Elec       q    Type
REMARK                         _______ _______ _______ _____ _____    ______ ____
ROOT
ATOM      1  O   UNL     1     113.302 127.347 137.224  0.00  0.00    +0.000 OA
ATOM      2  O   UNL     1     110.791 128.416 136.262  0.00  0.00    +0.000 OA
ATOM      3  O   UNL     1     111.114 127.037 135.986  0.00  0.00    +0.000 OA
ATOM      4  C   UNL     1     112.398 129.356 137.401  0.00  0.00    +0.000 A 
ATOM      5  C   UNL     1     111.686 129.252 136.997  0.00  0.00    +0.000 A 
ATOM      6  C   UNL     1     112.926 128.727 137.473  0.00  0.00    +0.000 A 
ATOM      7  C   UNL     1     112.743 127.994 137.141  0.00  0.00    +0.000 A 
ATOM      8  C   UNL     1     112.031 127.891 136.738  0.00  0.00    +0.000 A 
ATOM      9  C   UNL     1     111.503 128.519 136.666  0.00  0.00    +0.000 A 
ATOM     10  C   UNL     1     111.829 127.132 136.389  0.00  0.00    +0.000 A 
ATOM     11  C   UNL     1     113.117 126.581 136.881  0.00  0.00    +0.000 A 
ATOM     12  C   UNL     1     112.376 126.472 136.460  0.00  0.00    +0.000 A 
ENDROOT
BRANCH  11  14
ATOM     13  O   UNL     1     115.239 124.071 137.177  0.00  0.00    +0.000 OA
ATOM     14  C   UNL     1     113.648 125.953 136.955  0.00  0.00    +0.000 A 
ATOM     15  C   UNL     1     114.299 125.902 136.450  0.00  0.00    +0.000 A 
ATOM     16  C   UNL     1     113.528 125.377 137.533  0.00  0.00    +0.000 A 
ATOM     17  C   UNL     1     114.829 125.274 136.524  0.00  0.00    +0.000 A 
ATOM     18  C   UNL     1     114.057 124.750 137.607  0.00  0.00    +0.000 A 
ATOM     19  C   UNL     1     114.708 124.698 137.103  0.00  0.00    +0.000 A 
ENDBRANCH  11  14
BRANCH   4  20
ATOM     20  O   UNL     1     112.581 130.089 137.732  0.00  0.00    +0.000 OA
BRANCH  20  29
ATOM     21  O   UNL     1     112.422 129.800 139.123  0.00  0.00    +0.000 OA
ATOM     22  O   UNL     1     114.570 130.932 139.604  0.00  0.00    +0.000 OA
ATOM     23  O   UNL     1     113.694 130.265 140.834  0.00  0.00    +0.000 OA
ATOM     24  O   UNL     1     114.013 130.844 138.053  0.00  0.00    +0.000 OA
ATOM     25  C   UNL     1     113.854 130.555 139.444  0.00  0.00    +0.000 C 
ATOM     26  C   UNL     1     113.416 130.221 140.058  0.00  0.00    +0.000 C 
ATOM     27  C   UNL     1     113.575 130.510 138.668  0.00  0.00    +0.000 C 
ATOM     28  C   UNL     1     112.700 129.844 139.898  0.00  0.00    +0.000 C 
ATOM     29  C   UNL     1     112.859 130.133 138.507  0.00  0.00    +0.000 C 
BRANCH  28  32
ATOM     30  O   UNL     1     112.443 128.754 140.786  0.00  0.00    +0.000 OA
ATOM     31  O   UNL     1     111.644 129.935 140.856  0.00  0.00    +0.000 OA
ATOM     32  C   UNL     1     112.263 129.511 140.513  0.00  0.00    +0.000 C 
ENDBRANCH  28  32
ENDBRANCH  20  29
ENDBRANCH   4  20
BRANCH   5  33
ATOM     33  O   UNL     1     111.157 129.882 136.925  0.00  0.00    +0.000 OA
BRANCH  33  35
ATOM     34  O   UNL     1     111.707 130.410 135.716  0.00  0.00    +0.000 OA
ATOM     35  C   UNL     1     111.054 130.251 136.194  0.00  0.00    +0.000 C 
BRANCH  35  36
ATOM     36  C   UNL     1     110.296 130.461 135.942  0.00  0.00    +0.000 C 
ATOM     37  C   UNL     1     110.077 131.256 135.917  0.00  0.00    +0.000 C 
BRANCH  37  39
ATOM     38  O   UNL     1     107.049 132.097 134.909  0.00  0.00    +0.000 OA
ATOM     39  C   UNL     1     109.319 131.466 135.665  0.00  0.00    +0.000 A 
ATOM     40  C   UNL     1     108.708 131.542 136.214  0.00  0.00    +0.000 A 
ATOM     41  C   UNL     1     109.174 131.600 134.864  0.00  0.00    +0.000 A 
ATOM     42  C   UNL     1     107.952 131.752 135.962  0.00  0.00    +0.000 A 
ATOM     43  C   UNL     1     108.416 131.811 134.612  0.00  0.00    +0.000 A 
ATOM     44  C   UNL     1     107.805 131.887 135.161  0.00  0.00    +0.000 A 
BRANCH  42  45
ATOM     45  O   UNL     1     107.340 131.828 136.511  0.00  0.00    +0.000 OA
ATOM     46  C   UNL     1     107.514 131.917 137.313  0.00  0.00    +0.000 C 
ENDBRANCH  42  45
ENDBRANCH  37  39
ENDBRANCH  35  36
ENDBRANCH  33  35
ENDBRANCH   5  33
TORSDOF 9
ENDMDL
MODEL 10
REMARK VINA RESULT:      -9.3      1.731      6.395
REMARK  Name = 44258418
REMARK  9 active torsions:
REMARK  status: ('A' for Active; 'I' for Inactive)
REMARK    1  A    between atoms: O_2  and  C_20
REMARK    2  A    between atoms: O_2  and  C_22
REMARK    3  A    between atoms: O_9  and  C_23
REMARK    4  A    between atoms: O_9  and  C_32
REMARK    5  A    between atoms: O_14  and  C_43
REMARK    6  A    between atoms: C_19  and  C_21
REMARK    7  A    between atoms: C_29  and  C_31
REMARK    8  A    between atoms: C_32  and  C_35
REMARK    9  A    between atoms: C_39  and  C_40
REMARK                            x       y       z     vdW  Elec       q    Type
REMARK                         _______ _______ _______ _____ _____    ______ ____
ROOT
ATOM      1  O   UNL     1     106.443 125.876 145.849  0.00  0.00    +0.000 OA
ATOM      2  O   UNL     1     105.241 124.552 143.573  0.00  0.00    +0.000 OA
ATOM      3  O   UNL     1     105.087 123.967 144.883  0.00  0.00    +0.000 OA
ATOM      4  C   UNL     1     106.414 126.389 143.698  0.00  0.00    +0.000 A 
ATOM      5  C   UNL     1     105.972 125.766 143.387  0.00  0.00    +0.000 A 
ATOM      6  C   UNL     1     106.566 126.421 144.508  0.00  0.00    +0.000 A 
ATOM      7  C   UNL     1     106.277 125.830 145.007  0.00  0.00    +0.000 A 
ATOM      8  C   UNL     1     105.835 125.208 144.695  0.00  0.00    +0.000 A 
ATOM      9  C   UNL     1     105.683 125.175 143.886  0.00  0.00    +0.000 A 
ATOM     10  C   UNL     1     105.529 124.587 145.204  0.00  0.00    +0.000 A 
ATOM     11  C   UNL     1     106.144 125.264 146.373  0.00  0.00    +0.000 A 
ATOM     12  C   UNL     1     105.684 124.615 146.049  0.00  0.00    +0.000 A 
ENDROOT
BRANCH  11  14
ATOM     13  O   UNL     1     106.761 125.404 149.612  0.00  0.00    +0.000 OA
ATOM     14  C   UNL     1     106.298 125.299 147.183  0.00  0.00    +0.000 A 
ATOM     15  C   UNL     1     105.756 125.658 147.691  0.00  0.00    +0.000 A 
ATOM     16  C   UNL     1     106.995 124.976 147.485  0.00  0.00    +0.000 A 
ATOM     17  C   UNL     1     105.910 125.693 148.501  0.00  0.00    +0.000 A 
ATOM     18  C   UNL     1     107.149 125.011 148.294  0.00  0.00    +0.000 A 
ATOM     19  C   UNL     1     106.607 125.369 148.802  0.00  0.00    +0.000 A 
ENDBRANCH  11  14
BRANCH   4  20
ATOM     20  O   UNL     1     106.703 126.979 143.200  0.00  0.00    +0.000 OA
BRANCH  20  29
ATOM     21  O   UNL     1     105.822 128.047 143.552  0.00  0.00    +0.000 OA
ATOM     22  O   UNL     1     107.741 129.608 143.623  0.00  0.00    +0.000 OA
ATOM     23  O   UNL     1     106.219 130.156 143.952  0.00  0.00    +0.000 OA
ATOM     24  O   UNL     1     107.983 128.020 143.247  0.00  0.00    +0.000 OA
ATOM     25  C   UNL     1     107.101 129.088 143.600  0.00  0.00    +0.000 C 
ATOM     26  C   UNL     1     106.340 129.361 143.764  0.00  0.00    +0.000 C 
ATOM     27  C   UNL     1     107.222 128.293 143.412  0.00  0.00    +0.000 C 
ATOM     28  C   UNL     1     105.701 128.841 143.740  0.00  0.00    +0.000 C 
ATOM     29  C   UNL     1     106.582 127.773 143.388  0.00  0.00    +0.000 C 
BRANCH  28  32
ATOM     30  O   UNL     1     104.405 129.243 143.291  0.00  0.00    +0.000 OA
ATOM     31  O   UNL     1     104.715 129.262 144.685  0.00  0.00    +0.000 OA
ATOM     32  C   UNL     1     104.940 129.115 143.905  0.00  0.00    +0.000 C 
ENDBRANCH  28  32
ENDBRANCH  20  29
ENDBRANCH   4  20
BRANCH   5  33
ATOM     33  O   UNL     1     105.820 125.733 142.576  0.00  0.00    +0.000 OA
BRANCH  33  35
ATOM     34  O   UNL     1     107.019 125.049 142.209  0.00  0.00    +0.000 OA
ATOM     35  C   UNL     1     106.211 125.181 142.106  0.00  0.00    +0.000 C 
BRANCH  35  36
ATOM     36  C   UNL     1     105.794 124.760 141.530  0.00  0.00    +0.000 C 
ATOM     37  C   UNL     1     106.066 124.748 140.752  0.00  0.00    +0.000 C 
BRANCH  37  39
ATOM     38  O   UNL     1     104.399 123.065 138.453  0.00  0.00    +0.000 OA
ATOM     39  C   UNL     1     105.649 124.327 140.176  0.00  0.00    +0.000 A 
ATOM     40  C   UNL     1     105.157 124.726 139.649  0.00  0.00    +0.000 A 
ATOM     41  C   UNL     1     105.725 123.507 140.130  0.00  0.00    +0.000 A 
ATOM     42  C   UNL     1     104.740 124.306 139.074  0.00  0.00    +0.000 A 
ATOM     43  C   UNL     1     105.308 123.086 139.555  0.00  0.00    +0.000 A 
ATOM     44  C   UNL     1     104.816 123.486 139.027  0.00  0.00    +0.000 A 
BRANCH  42  45
ATOM     45  O   UNL     1     104.248 124.706 138.547  0.00  0.00    +0.000 OA
ATOM     46  C   UNL     1     103.653 125.202 138.832  0.00  0.00    +0.000 C 
ENDBRANCH  42  45
ENDBRANCH  37  39
ENDBRANCH  35  36
ENDBRANCH  33  35
ENDBRANCH   5  33
TORSDOF 9
ENDMDL
