MODEL 1
REMARK VINA RESULT:     -10.1      0.000      0.000
REMARK  Name = 12302038
REMARK  11 active torsions:
REMARK  status: ('A' for Active; 'I' for Inactive)
REMARK    1  A    between atoms: O_1  and  C_23
REMARK    2  A    between atoms: O_1  and  C_26
REMARK    3  A    between atoms: O_4  and  C_28
REMARK    4  A    between atoms: O_4  and  C_40
REMARK    5  A    between atoms: O_13  and  C_39
REMARK    6  A    between atoms: O_13  and  C_45
REMARK    7  A    between atoms: O_21  and  C_53
REMARK    8  A    between atoms: C_29  and  C_33
REMARK    9  A    between atoms: C_32  and  C_34
REMARK   10  A    between atoms: C_38  and  C_41
REMARK   11  A    between atoms: C_42  and  C_49
REMARK                            x       y       z     vdW  Elec       q    Type
REMARK                         _______ _______ _______ _____ _____    ______ ____
ROOT
ATOM      1  O   UNL     1     112.496 127.871 139.406  0.00  0.00    +0.000 OA
ATOM      2  O   UNL     1     111.757 129.619 137.816  0.00  0.00    +0.000 OA
ATOM      3  O   UNL     1     112.195 130.660 138.714  0.00  0.00    +0.000 OA
ATOM      4  C   UNL     1     111.905 128.239 138.158  0.00  0.00    +0.000 A 
ATOM      5  C   UNL     1     112.151 127.656 138.687  0.00  0.00    +0.000 A 
ATOM      6  C   UNL     1     112.003 129.036 138.346  0.00  0.00    +0.000 A 
ATOM      7  C   UNL     1     112.348 129.250 139.064  0.00  0.00    +0.000 A 
ATOM      8  C   UNL     1     113.058 129.707 140.548  0.00  0.00    +0.000 A 
ATOM      9  C   UNL     1     112.594 128.668 139.594  0.00  0.00    +0.000 A 
ATOM     10  C   UNL     1     112.954 128.878 140.346  0.00  0.00    +0.000 A 
ATOM     11  C   UNL     1     112.444 130.084 139.249  0.00  0.00    +0.000 A 
ATOM     12  C   UNL     1     112.802 130.315 139.996  0.00  0.00    +0.000 A 
ENDROOT
BRANCH   5  14
ATOM     13  O   UNL     1     111.759 124.467 137.934  0.00  0.00    +0.000 OA
ATOM     14  C   UNL     1     112.053 126.859 138.499  0.00  0.00    +0.000 A 
ATOM     15  C   UNL     1     112.684 126.428 138.187  0.00  0.00    +0.000 A 
ATOM     16  C   UNL     1     111.325 126.493 138.622  0.00  0.00    +0.000 A 
ATOM     17  C   UNL     1     112.586 125.631 137.999  0.00  0.00    +0.000 A 
ATOM     18  C   UNL     1     111.226 125.695 138.434  0.00  0.00    +0.000 A 
ATOM     19  C   UNL     1     111.857 125.265 138.122  0.00  0.00    +0.000 A 
BRANCH  17  20
ATOM     20  O   UNL     1     113.216 125.200 137.687  0.00  0.00    +0.000 OA
ATOM     21  C   UNL     1     113.992 125.448 137.821  0.00  0.00    +0.000 C 
ENDBRANCH  17  20
ENDBRANCH   5  14
BRANCH   4  22
ATOM     22  O   UNL     1     111.561 128.025 137.439  0.00  0.00    +0.000 OA
BRANCH  22  29
ATOM     23  O   UNL     1     112.670 128.376 136.609  0.00  0.00    +0.000 OA
ATOM     24  O   UNL     1     111.109 129.166 134.859  0.00  0.00    +0.000 OA
ATOM     25  O   UNL     1     112.738 129.255 134.612  0.00  0.00    +0.000 OA
ATOM     26  C   UNL     1     111.334 128.595 136.149  0.00  0.00    +0.000 C 
ATOM     27  C   UNL     1     111.629 128.903 135.442  0.00  0.00    +0.000 C 
ATOM     28  C   UNL     1     112.443 128.947 135.319  0.00  0.00    +0.000 C 
ATOM     29  C   UNL     1     111.855 128.332 136.732  0.00  0.00    +0.000 C 
ATOM     30  C   UNL     1     112.963 128.684 135.902  0.00  0.00    +0.000 C 
BRANCH  30  32
ATOM     31  O   UNL     1     114.226 128.037 135.730  0.00  0.00    +0.000 OA
ATOM     32  C   UNL     1     113.779 128.728 135.779  0.00  0.00    +0.000 C 
ENDBRANCH  30  32
BRANCH  26  33
ATOM     33  O   UNL     1     110.520 128.551 136.272  0.00  0.00    +0.000 OA
BRANCH  33  38
ATOM     34  O   UNL     1     110.459 127.372 135.466  0.00  0.00    +0.000 OA
ATOM     35  O   UNL     1     108.918 128.389 136.630  0.00  0.00    +0.000 OA
ATOM     36  O   UNL     1     108.056 127.129 136.003  0.00  0.00    +0.000 OA
ATOM     37  O   UNL     1     108.797 126.032 135.018  0.00  0.00    +0.000 OA
ATOM     38  C   UNL     1     110.090 127.921 135.959  0.00  0.00    +0.000 C 
ATOM     39  C   UNL     1     109.288 127.840 136.137  0.00  0.00    +0.000 C 
ATOM     40  C   UNL     1     108.857 127.210 135.824  0.00  0.00    +0.000 C 
ATOM     41  C   UNL     1     109.228 126.662 135.331  0.00  0.00    +0.000 C 
ATOM     42  C   UNL     1     110.029 126.743 135.153  0.00  0.00    +0.000 C 
BRANCH  42  44
ATOM     43  O   UNL     1     110.877 125.605 134.984  0.00  0.00    +0.000 OA
ATOM     44  C   UNL     1     110.400 126.194 134.660  0.00  0.00    +0.000 C 
ENDBRANCH  42  44
ENDBRANCH  33  38
ENDBRANCH  26  33
ENDBRANCH  22  29
ENDBRANCH   4  22
BRANCH   8  45
ATOM     45  O   UNL     1     113.403 129.919 141.267  0.00  0.00    +0.000 OA
BRANCH  45  54
ATOM     46  O   UNL     1     112.360 129.652 142.208  0.00  0.00    +0.000 OA
ATOM     47  O   UNL     1     112.643 131.918 143.162  0.00  0.00    +0.000 OA
ATOM     48  O   UNL     1     111.507 130.897 143.785  0.00  0.00    +0.000 OA
ATOM     49  O   UNL     1     113.591 131.429 141.903  0.00  0.00    +0.000 OA
ATOM     50  C   UNL     1     112.549 131.163 142.844  0.00  0.00    +0.000 C 
ATOM     51  C   UNL     1     111.981 130.652 143.155  0.00  0.00    +0.000 C 
ATOM     52  C   UNL     1     113.023 130.918 142.215  0.00  0.00    +0.000 C 
ATOM     53  C   UNL     1     111.886 129.897 142.837  0.00  0.00    +0.000 C 
ATOM     54  C   UNL     1     112.928 130.163 141.896  0.00  0.00    +0.000 C 
BRANCH  53  56
ATOM     55  O   UNL     1     111.513 128.599 143.306  0.00  0.00    +0.000 OA
ATOM     56  C   UNL     1     111.318 129.386 143.148  0.00  0.00    +0.000 C 
ENDBRANCH  53  56
ENDBRANCH  45  54
ENDBRANCH   8  45
TORSDOF 11
ENDMDL
MODEL 2
REMARK VINA RESULT:      -9.9      1.761      2.874
REMARK  Name = 12302038
REMARK  11 active torsions:
REMARK  status: ('A' for Active; 'I' for Inactive)
REMARK    1  A    between atoms: O_1  and  C_23
REMARK    2  A    between atoms: O_1  and  C_26
REMARK    3  A    between atoms: O_4  and  C_28
REMARK    4  A    between atoms: O_4  and  C_40
REMARK    5  A    between atoms: O_13  and  C_39
REMARK    6  A    between atoms: O_13  and  C_45
REMARK    7  A    between atoms: O_21  and  C_53
REMARK    8  A    between atoms: C_29  and  C_33
REMARK    9  A    between atoms: C_32  and  C_34
REMARK   10  A    between atoms: C_38  and  C_41
REMARK   11  A    between atoms: C_42  and  C_49
REMARK                            x       y       z     vdW  Elec       q    Type
REMARK                         _______ _______ _______ _____ _____    ______ ____
ROOT
ATOM      1  O   UNL     1     111.266 130.181 139.356  0.00  0.00    +0.000 OA
ATOM      2  O   UNL     1     108.998 129.393 138.753  0.00  0.00    +0.000 OA
ATOM      3  O   UNL     1     108.443 129.985 139.946  0.00  0.00    +0.000 OA
ATOM      4  C   UNL     1     110.393 129.489 138.461  0.00  0.00    +0.000 A 
ATOM      5  C   UNL     1     111.150 129.752 138.661  0.00  0.00    +0.000 A 
ATOM      6  C   UNL     1     109.754 129.656 138.954  0.00  0.00    +0.000 A 
ATOM      7  C   UNL     1     109.870 130.085 139.649  0.00  0.00    +0.000 A 
ATOM      8  C   UNL     1     110.097 130.972 141.089  0.00  0.00    +0.000 A 
ATOM      9  C   UNL     1     110.625 130.348 139.850  0.00  0.00    +0.000 A 
ATOM     10  C   UNL     1     110.760 130.796 140.571  0.00  0.00    +0.000 A 
ATOM     11  C   UNL     1     109.196 130.252 140.154  0.00  0.00    +0.000 A 
ATOM     12  C   UNL     1     109.310 130.699 140.880  0.00  0.00    +0.000 A 
ENDROOT
BRANCH   5  14
ATOM     13  O   UNL     1     113.709 129.087 136.687  0.00  0.00    +0.000 OA
ATOM     14  C   UNL     1     111.789 129.586 138.168  0.00  0.00    +0.000 A 
ATOM     15  C   UNL     1     112.163 128.851 138.209  0.00  0.00    +0.000 A 
ATOM     16  C   UNL     1     112.055 130.154 137.633  0.00  0.00    +0.000 A 
ATOM     17  C   UNL     1     112.802 128.685 137.716  0.00  0.00    +0.000 A 
ATOM     18  C   UNL     1     112.696 129.988 137.139  0.00  0.00    +0.000 A 
ATOM     19  C   UNL     1     113.069 129.253 137.181  0.00  0.00    +0.000 A 
BRANCH  17  20
ATOM     20  O   UNL     1     113.176 127.950 137.758  0.00  0.00    +0.000 OA
ATOM     21  C   UNL     1     113.062 127.466 138.416  0.00  0.00    +0.000 C 
ENDBRANCH  17  20
ENDBRANCH   5  14
BRANCH   4  22
ATOM     22  O   UNL     1     110.277 129.060 137.766  0.00  0.00    +0.000 OA
BRANCH  22  29
ATOM     23  O   UNL     1     109.671 130.122 137.027  0.00  0.00    +0.000 OA
ATOM     24  O   UNL     1     108.194 128.491 135.894  0.00  0.00    +0.000 OA
ATOM     25  O   UNL     1     108.080 130.096 135.532  0.00  0.00    +0.000 OA
ATOM     26  C   UNL     1     109.236 128.775 136.830  0.00  0.00    +0.000 C 
ATOM     27  C   UNL     1     108.686 129.034 136.272  0.00  0.00    +0.000 C 
ATOM     28  C   UNL     1     108.629 129.837 136.091  0.00  0.00    +0.000 C 
ATOM     29  C   UNL     1     109.728 129.318 137.207  0.00  0.00    +0.000 C 
ATOM     30  C   UNL     1     109.122 130.380 136.468  0.00  0.00    +0.000 C 
BRANCH  30  32
ATOM     31  O   UNL     1     109.713 131.581 135.967  0.00  0.00    +0.000 OA
ATOM     32  C   UNL     1     109.065 131.184 136.287  0.00  0.00    +0.000 C 
ENDBRANCH  30  32
BRANCH  26  33
ATOM     33  O   UNL     1     109.293 127.972 137.011  0.00  0.00    +0.000 OA
BRANCH  33  38
ATOM     34  O   UNL     1     110.038 127.753 135.811  0.00  0.00    +0.000 OA
ATOM     35  O   UNL     1     109.498 126.389 137.428  0.00  0.00    +0.000 OA
ATOM     36  O   UNL     1     110.347 125.379 136.437  0.00  0.00    +0.000 OA
ATOM     37  O   UNL     1     110.989 125.951 135.029  0.00  0.00    +0.000 OA
ATOM     38  C   UNL     1     109.717 127.467 136.515  0.00  0.00    +0.000 C 
ATOM     39  C   UNL     1     109.820 126.675 136.724  0.00  0.00    +0.000 C 
ATOM     40  C   UNL     1     110.244 126.170 136.228  0.00  0.00    +0.000 C 
ATOM     41  C   UNL     1     110.565 126.457 135.524  0.00  0.00    +0.000 C 
ATOM     42  C   UNL     1     110.462 127.248 135.316  0.00  0.00    +0.000 C 
BRANCH  42  44
ATOM     43  O   UNL     1     111.445 128.027 134.630  0.00  0.00    +0.000 OA
ATOM     44  C   UNL     1     110.784 127.535 134.612  0.00  0.00    +0.000 C 
ENDBRANCH  42  44
ENDBRANCH  33  38
ENDBRANCH  26  33
ENDBRANCH  22  29
ENDBRANCH   4  22
BRANCH   8  45
ATOM     45  O   UNL     1     110.216 131.402 141.783  0.00  0.00    +0.000 OA
BRANCH  45  54
ATOM     46  O   UNL     1     110.411 130.315 142.691  0.00  0.00    +0.000 OA
ATOM     47  O   UNL     1     112.279 131.539 143.757  0.00  0.00    +0.000 OA
ATOM     48  O   UNL     1     111.851 130.045 144.309  0.00  0.00    +0.000 OA
ATOM     49  O   UNL     1     111.462 132.218 142.494  0.00  0.00    +0.000 OA
ATOM     50  C   UNL     1     111.656 131.131 143.401  0.00  0.00    +0.000 C 
ATOM     51  C   UNL     1     111.442 130.384 143.678  0.00  0.00    +0.000 C 
ATOM     52  C   UNL     1     111.248 131.470 142.770  0.00  0.00    +0.000 C 
ATOM     53  C   UNL     1     110.819 129.976 143.322  0.00  0.00    +0.000 C 
ATOM     54  C   UNL     1     110.625 131.062 142.415  0.00  0.00    +0.000 C 
BRANCH  53  56
ATOM     55  O   UNL     1     110.719 128.564 143.121  0.00  0.00    +0.000 OA
ATOM     56  C   UNL     1     110.605 129.228 143.599  0.00  0.00    +0.000 C 
ENDBRANCH  53  56
ENDBRANCH  45  54
ENDBRANCH   8  45
TORSDOF 11
ENDMDL
MODEL 3
REMARK VINA RESULT:      -9.9      1.279      2.689
REMARK  Name = 12302038
REMARK  11 active torsions:
REMARK  status: ('A' for Active; 'I' for Inactive)
REMARK    1  A    between atoms: O_1  and  C_23
REMARK    2  A    between atoms: O_1  and  C_26
REMARK    3  A    between atoms: O_4  and  C_28
REMARK    4  A    between atoms: O_4  and  C_40
REMARK    5  A    between atoms: O_13  and  C_39
REMARK    6  A    between atoms: O_13  and  C_45
REMARK    7  A    between atoms: O_21  and  C_53
REMARK    8  A    between atoms: C_29  and  C_33
REMARK    9  A    between atoms: C_32  and  C_34
REMARK   10  A    between atoms: C_38  and  C_41
REMARK   11  A    between atoms: C_42  and  C_49
REMARK                            x       y       z     vdW  Elec       q    Type
REMARK                         _______ _______ _______ _____ _____    ______ ____
ROOT
ATOM      1  O   UNL     1     111.343 129.736 139.365  0.00  0.00    +0.000 OA
ATOM      2  O   UNL     1     113.295 128.264 138.980  0.00  0.00    +0.000 OA
ATOM      3  O   UNL     1     113.975 128.817 140.127  0.00  0.00    +0.000 OA
ATOM      4  C   UNL     1     111.994 128.718 138.603  0.00  0.00    +0.000 A 
ATOM      5  C   UNL     1     111.343 129.208 138.731  0.00  0.00    +0.000 A 
ATOM      6  C   UNL     1     112.644 128.755 139.108  0.00  0.00    +0.000 A 
ATOM      7  C   UNL     1     112.645 129.282 139.743  0.00  0.00    +0.000 A 
ATOM      8  C   UNL     1     112.657 130.370 141.058  0.00  0.00    +0.000 A 
ATOM      9  C   UNL     1     111.994 129.773 139.872  0.00  0.00    +0.000 A 
ATOM     10  C   UNL     1     111.982 130.327 140.528  0.00  0.00    +0.000 A 
ATOM     11  C   UNL     1     113.329 129.312 140.262  0.00  0.00    +0.000 A 
ATOM     12  C   UNL     1     113.335 129.859 140.925  0.00  0.00    +0.000 A 
ENDROOT
BRANCH   5  14
ATOM     13  O   UNL     1     108.739 129.060 136.710  0.00  0.00    +0.000 OA
ATOM     14  C   UNL     1     110.692 129.171 138.226  0.00  0.00    +0.000 A 
ATOM     15  C   UNL     1     110.598 129.736 137.632  0.00  0.00    +0.000 A 
ATOM     16  C   UNL     1     110.135 128.569 138.315  0.00  0.00    +0.000 A 
ATOM     17  C   UNL     1     109.947 129.699 137.127  0.00  0.00    +0.000 A 
ATOM     18  C   UNL     1     109.484 128.532 137.809  0.00  0.00    +0.000 A 
ATOM     19  C   UNL     1     109.390 129.097 137.215  0.00  0.00    +0.000 A 
BRANCH  17  20
ATOM     20  O   UNL     1     109.853 130.264 136.533  0.00  0.00    +0.000 OA
ATOM     21  C   UNL     1     110.027 131.056 136.685  0.00  0.00    +0.000 C 
ENDBRANCH  17  20
ENDBRANCH   5  14
BRANCH   4  22
ATOM     22  O   UNL     1     111.994 128.190 137.969  0.00  0.00    +0.000 OA
BRANCH  22  29
ATOM     23  O   UNL     1     112.881 128.938 137.136  0.00  0.00    +0.000 OA
ATOM     24  O   UNL     1     113.873 126.831 136.299  0.00  0.00    +0.000 OA
ATOM     25  O   UNL     1     114.429 128.282 135.744  0.00  0.00    +0.000 OA
ATOM     26  C   UNL     1     112.933 127.510 137.134  0.00  0.00    +0.000 C 
ATOM     27  C   UNL     1     113.542 127.534 136.578  0.00  0.00    +0.000 C 
ATOM     28  C   UNL     1     113.820 128.258 136.301  0.00  0.00    +0.000 C 
ATOM     29  C   UNL     1     112.602 128.212 137.413  0.00  0.00    +0.000 C 
ATOM     30  C   UNL     1     113.489 128.961 136.579  0.00  0.00    +0.000 C 
BRANCH  30  32
ATOM     31  O   UNL     1     113.264 130.187 135.882  0.00  0.00    +0.000 OA
ATOM     32  C   UNL     1     113.767 129.687 136.302  0.00  0.00    +0.000 C 
ENDBRANCH  30  32
BRANCH  26  33
ATOM     33  O   UNL     1     112.655 126.785 137.412  0.00  0.00    +0.000 OA
BRANCH  33  38
ATOM     34  O   UNL     1     111.883 126.619 136.221  0.00  0.00    +0.000 OA
ATOM     35  O   UNL     1     112.256 125.255 137.884  0.00  0.00    +0.000 OA
ATOM     36  O   UNL     1     111.283 124.325 136.929  0.00  0.00    +0.000 OA
ATOM     37  O   UNL     1     110.711 124.924 135.502  0.00  0.00    +0.000 OA
ATOM     38  C   UNL     1     112.169 126.320 136.934  0.00  0.00    +0.000 C 
ATOM     39  C   UNL     1     111.969 125.554 137.171  0.00  0.00    +0.000 C 
ATOM     40  C   UNL     1     111.483 125.089 136.693  0.00  0.00    +0.000 C 
ATOM     41  C   UNL     1     111.197 125.389 135.980  0.00  0.00    +0.000 C 
ATOM     42  C   UNL     1     111.397 126.153 135.744  0.00  0.00    +0.000 C 
BRANCH  42  44
ATOM     43  O   UNL     1     110.517 127.025 135.031  0.00  0.00    +0.000 OA
ATOM     44  C   UNL     1     111.111 126.454 135.030  0.00  0.00    +0.000 C 
ENDBRANCH  42  44
ENDBRANCH  33  38
ENDBRANCH  26  33
ENDBRANCH  22  29
ENDBRANCH   4  22
BRANCH   8  45
ATOM     45  O   UNL     1     112.654 130.899 141.691  0.00  0.00    +0.000 OA
BRANCH  45  54
ATOM     46  O   UNL     1     112.187 130.015 142.713  0.00  0.00    +0.000 OA
ATOM     47  O   UNL     1     110.719 131.805 143.589  0.00  0.00    +0.000 OA
ATOM     48  O   UNL     1     110.741 130.325 144.318  0.00  0.00    +0.000 OA
ATOM     49  O   UNL     1     111.676 132.092 142.276  0.00  0.00    +0.000 OA
ATOM     50  C   UNL     1     111.208 131.208 143.297  0.00  0.00    +0.000 C 
ATOM     51  C   UNL     1     111.219 130.468 143.662  0.00  0.00    +0.000 C 
ATOM     52  C   UNL     1     111.687 131.352 142.641  0.00  0.00    +0.000 C 
ATOM     53  C   UNL     1     111.708 129.871 143.369  0.00  0.00    +0.000 C 
ATOM     54  C   UNL     1     112.176 130.755 142.348  0.00  0.00    +0.000 C 
BRANCH  53  56
ATOM     55  O   UNL     1     111.444 128.467 143.327  0.00  0.00    +0.000 OA
ATOM     56  C   UNL     1     111.719 129.131 143.734  0.00  0.00    +0.000 C 
ENDBRANCH  53  56
ENDBRANCH  45  54
ENDBRANCH   8  45
TORSDOF 11
ENDMDL
MODEL 4
REMARK VINA RESULT:      -9.8      2.158      4.247
REMARK  Name = 12302038
REMARK  11 active torsions:
REMARK  status: ('A' for Active; 'I' for Inactive)
REMARK    1  A    between atoms: O_1  and  C_23
REMARK    2  A    between atoms: O_1  and  C_26
REMARK    3  A    between atoms: O_4  and  C_28
REMARK    4  A    between atoms: O_4  and  C_40
REMARK    5  A    between atoms: O_13  and  C_39
REMARK    6  A    between atoms: O_13  and  C_45
REMARK    7  A    between atoms: O_21  and  C_53
REMARK    8  A    between atoms: C_29  and  C_33
REMARK    9  A    between atoms: C_32  and  C_34
REMARK   10  A    between atoms: C_38  and  C_41
REMARK   11  A    between atoms: C_42  and  C_49
REMARK                            x       y       z     vdW  Elec       q    Type
REMARK                         _______ _______ _______ _____ _____    ______ ____
ROOT
ATOM      1  O   UNL     1     111.570 129.534 143.126  0.00  0.00    +0.000 OA
ATOM      2  O   UNL     1     111.946 131.301 141.434  0.00  0.00    +0.000 OA
ATOM      3  O   UNL     1     112.113 132.295 142.466  0.00  0.00    +0.000 OA
ATOM      4  C   UNL     1     111.678 129.935 141.759  0.00  0.00    +0.000 A 
ATOM      5  C   UNL     1     111.553 129.346 142.322  0.00  0.00    +0.000 A 
ATOM      6  C   UNL     1     111.821 130.711 141.997  0.00  0.00    +0.000 A 
ATOM      7  C   UNL     1     111.838 130.899 142.800  0.00  0.00    +0.000 A 
ATOM      8  C   UNL     1     111.877 131.300 144.459  0.00  0.00    +0.000 A 
ATOM      9  C   UNL     1     111.713 130.311 143.365  0.00  0.00    +0.000 A 
ATOM     10  C   UNL     1     111.728 130.493 144.204  0.00  0.00    +0.000 A 
ATOM     11  C   UNL     1     111.988 131.712 143.037  0.00  0.00    +0.000 A 
ATOM     12  C   UNL     1     112.008 131.914 143.872  0.00  0.00    +0.000 A 
ENDROOT
BRANCH   5  14
ATOM     13  O   UNL     1     110.982 126.239 141.367  0.00  0.00    +0.000 OA
ATOM     14  C   UNL     1     111.410 128.570 142.084  0.00  0.00    +0.000 A 
ATOM     15  C   UNL     1     110.646 128.335 141.876  0.00  0.00    +0.000 A 
ATOM     16  C   UNL     1     112.031 128.027 142.052  0.00  0.00    +0.000 A 
ATOM     17  C   UNL     1     110.504 127.559 141.638  0.00  0.00    +0.000 A 
ATOM     18  C   UNL     1     111.888 127.250 141.813  0.00  0.00    +0.000 A 
ATOM     19  C   UNL     1     111.124 127.016 141.606  0.00  0.00    +0.000 A 
BRANCH  17  20
ATOM     20  O   UNL     1     109.740 127.324 141.430  0.00  0.00    +0.000 OA
ATOM     21  C   UNL     1     109.088 127.713 141.753  0.00  0.00    +0.000 C 
ENDBRANCH  17  20
ENDBRANCH   5  14
BRANCH   4  22
ATOM     22  O   UNL     1     111.661 129.748 140.955  0.00  0.00    +0.000 OA
BRANCH  22  29
ATOM     23  O   UNL     1     113.071 129.848 140.749  0.00  0.00    +0.000 OA
ATOM     24  O   UNL     1     112.675 130.723 138.468  0.00  0.00    +0.000 OA
ATOM     25  O   UNL     1     114.217 130.532 139.021  0.00  0.00    +0.000 OA
ATOM     26  C   UNL     1     112.167 130.235 139.711  0.00  0.00    +0.000 C 
ATOM     27  C   UNL     1     112.807 130.431 139.228  0.00  0.00    +0.000 C 
ATOM     28  C   UNL     1     113.577 130.336 139.504  0.00  0.00    +0.000 C 
ATOM     29  C   UNL     1     112.299 129.944 140.472  0.00  0.00    +0.000 C 
ATOM     30  C   UNL     1     113.710 130.044 140.265  0.00  0.00    +0.000 C 
BRANCH  30  32
ATOM     31  O   UNL     1     114.757 129.197 140.742  0.00  0.00    +0.000 OA
ATOM     32  C   UNL     1     114.482 129.949 140.542  0.00  0.00    +0.000 C 
ENDBRANCH  30  32
BRANCH  26  33
ATOM     33  O   UNL     1     111.396 130.331 139.435  0.00  0.00    +0.000 OA
BRANCH  33  38
ATOM     34  O   UNL     1     111.518 129.130 138.669  0.00  0.00    +0.000 OA
ATOM     35  O   UNL     1     109.804 130.436 139.016  0.00  0.00    +0.000 OA
ATOM     36  O   UNL     1     109.129 129.288 138.042  0.00  0.00    +0.000 OA
ATOM     37  O   UNL     1     110.047 128.035 137.485  0.00  0.00    +0.000 OA
ATOM     38  C   UNL     1     111.059 129.757 138.947  0.00  0.00    +0.000 C 
ATOM     39  C   UNL     1     110.262 129.809 138.738  0.00  0.00    +0.000 C 
ATOM     40  C   UNL     1     109.925 129.235 138.251  0.00  0.00    +0.000 C 
ATOM     41  C   UNL     1     110.385 128.609 137.973  0.00  0.00    +0.000 C 
ATOM     42  C   UNL     1     111.180 128.556 138.182  0.00  0.00    +0.000 C 
BRANCH  42  44
ATOM     43  O   UNL     1     111.899 127.345 138.424  0.00  0.00    +0.000 OA
ATOM     44  C   UNL     1     111.640 127.930 137.904  0.00  0.00    +0.000 C 
ENDBRANCH  42  44
ENDBRANCH  33  38
ENDBRANCH  26  33
ENDBRANCH  22  29
ENDBRANCH   4  22
BRANCH   8  45
ATOM     45  O   UNL     1     111.893 131.485 145.263  0.00  0.00    +0.000 OA
BRANCH  45  54
ATOM     46  O   UNL     1     110.510 131.814 145.407  0.00  0.00    +0.000 OA
ATOM     47  O   UNL     1     111.109 133.658 146.945  0.00  0.00    +0.000 OA
ATOM     48  O   UNL     1     109.526 133.373 146.576  0.00  0.00    +0.000 OA
ATOM     49  O   UNL     1     112.292 132.714 146.288  0.00  0.00    +0.000 OA
ATOM     50  C   UNL     1     110.909 133.044 146.432  0.00  0.00    +0.000 C 
ATOM     51  C   UNL     1     110.118 132.901 146.248  0.00  0.00    +0.000 C 
ATOM     52  C   UNL     1     111.501 132.572 146.104  0.00  0.00    +0.000 C 
ATOM     53  C   UNL     1     109.918 132.286 145.735  0.00  0.00    +0.000 C 
ATOM     54  C   UNL     1     111.301 131.957 145.591  0.00  0.00    +0.000 C 
BRANCH  53  56
ATOM     55  O   UNL     1     108.860 132.237 144.775  0.00  0.00    +0.000 OA
ATOM     56  C   UNL     1     109.127 132.143 145.551  0.00  0.00    +0.000 C 
ENDBRANCH  53  56
ENDBRANCH  45  54
ENDBRANCH   8  45
TORSDOF 11
ENDMDL
MODEL 5
REMARK VINA RESULT:      -9.8      1.836      6.542
REMARK  Name = 12302038
REMARK  11 active torsions:
REMARK  status: ('A' for Active; 'I' for Inactive)
REMARK    1  A    between atoms: O_1  and  C_23
REMARK    2  A    between atoms: O_1  and  C_26
REMARK    3  A    between atoms: O_4  and  C_28
REMARK    4  A    between atoms: O_4  and  C_40
REMARK    5  A    between atoms: O_13  and  C_39
REMARK    6  A    between atoms: O_13  and  C_45
REMARK    7  A    between atoms: O_21  and  C_53
REMARK    8  A    between atoms: C_29  and  C_33
REMARK    9  A    between atoms: C_32  and  C_34
REMARK   10  A    between atoms: C_38  and  C_41
REMARK   11  A    between atoms: C_42  and  C_49
REMARK                            x       y       z     vdW  Elec       q    Type
REMARK                         _______ _______ _______ _____ _____    ______ ____
ROOT
ATOM      1  O   UNL     1     112.705 128.177 138.684  0.00  0.00    +0.000 OA
ATOM      2  O   UNL     1     110.421 128.249 139.636  0.00  0.00    +0.000 OA
ATOM      3  O   UNL     1     109.931 127.370 138.602  0.00  0.00    +0.000 OA
ATOM      4  C   UNL     1     111.793 128.649 139.677  0.00  0.00    +0.000 A 
ATOM      5  C   UNL     1     112.554 128.625 139.360  0.00  0.00    +0.000 A 
ATOM      6  C   UNL     1     111.183 128.225 139.319  0.00  0.00    +0.000 A 
ATOM      7  C   UNL     1     111.334 127.778 138.642  0.00  0.00    +0.000 A 
ATOM      8  C   UNL     1     111.633 126.847 137.243  0.00  0.00    +0.000 A 
ATOM      9  C   UNL     1     112.094 127.753 138.324  0.00  0.00    +0.000 A 
ATOM     10  C   UNL     1     112.265 127.291 137.621  0.00  0.00    +0.000 A 
ATOM     11  C   UNL     1     110.689 127.341 138.278  0.00  0.00    +0.000 A 
ATOM     12  C   UNL     1     110.840 126.872 137.573  0.00  0.00    +0.000 A 
ENDROOT
BRANCH   5  14
ATOM     13  O   UNL     1     114.996 130.319 140.795  0.00  0.00    +0.000 OA
ATOM     14  C   UNL     1     113.164 129.048 139.718  0.00  0.00    +0.000 A 
ATOM     15  C   UNL     1     113.418 129.762 139.393  0.00  0.00    +0.000 A 
ATOM     16  C   UNL     1     113.521 128.757 140.403  0.00  0.00    +0.000 A 
ATOM     17  C   UNL     1     114.028 130.186 139.751  0.00  0.00    +0.000 A 
ATOM     18  C   UNL     1     114.132 129.181 140.762  0.00  0.00    +0.000 A 
ATOM     19  C   UNL     1     114.385 129.895 140.436  0.00  0.00    +0.000 A 
BRANCH  17  20
ATOM     20  O   UNL     1     114.283 130.900 139.425  0.00  0.00    +0.000 OA
ATOM     21  C   UNL     1     114.334 130.984 138.606  0.00  0.00    +0.000 C 
ENDBRANCH  17  20
ENDBRANCH   5  14
BRANCH   4  22
ATOM     22  O   UNL     1     111.642 129.096 140.353  0.00  0.00    +0.000 OA
BRANCH  22  29
ATOM     23  O   UNL     1     110.971 130.167 139.686  0.00  0.00    +0.000 OA
ATOM     24  O   UNL     1     109.452 130.421 141.624  0.00  0.00    +0.000 OA
ATOM     25  O   UNL     1     109.287 131.408 140.311  0.00  0.00    +0.000 OA
ATOM     26  C   UNL     1     110.547 129.759 140.989  0.00  0.00    +0.000 C 
ATOM     27  C   UNL     1     109.958 130.337 140.978  0.00  0.00    +0.000 C 
ATOM     28  C   UNL     1     109.876 130.830 140.322  0.00  0.00    +0.000 C 
ATOM     29  C   UNL     1     111.053 129.674 140.343  0.00  0.00    +0.000 C 
ATOM     30  C   UNL     1     110.382 130.745 139.677  0.00  0.00    +0.000 C 
BRANCH  30  32
ATOM     31  O   UNL     1     110.914 131.746 138.807  0.00  0.00    +0.000 OA
ATOM     32  C   UNL     1     110.300 131.238 139.020  0.00  0.00    +0.000 C 
ENDBRANCH  30  32
BRANCH  26  33
ATOM     33  O   UNL     1     110.629 129.266 141.645  0.00  0.00    +0.000 OA
BRANCH  33  38
ATOM     34  O   UNL     1     111.278 130.321 142.357  0.00  0.00    +0.000 OA
ATOM     35  O   UNL     1     110.779 128.285 142.963  0.00  0.00    +0.000 OA
ATOM     36  O   UNL     1     111.502 128.851 144.334  0.00  0.00    +0.000 OA
ATOM     37  O   UNL     1     112.075 130.397 144.387  0.00  0.00    +0.000 OA
ATOM     38  C   UNL     1     110.991 129.549 142.330  0.00  0.00    +0.000 C 
ATOM     39  C   UNL     1     111.066 129.058 142.990  0.00  0.00    +0.000 C 
ATOM     40  C   UNL     1     111.427 129.341 143.676  0.00  0.00    +0.000 C 
ATOM     41  C   UNL     1     111.714 130.114 143.701  0.00  0.00    +0.000 C 
ATOM     42  C   UNL     1     111.639 130.604 143.043  0.00  0.00    +0.000 C 
BRANCH  42  44
ATOM     43  O   UNL     1     112.545 131.605 142.574  0.00  0.00    +0.000 OA
ATOM     44  C   UNL     1     111.926 131.378 143.068  0.00  0.00    +0.000 C 
ENDBRANCH  42  44
ENDBRANCH  33  38
ENDBRANCH  26  33
ENDBRANCH  22  29
ENDBRANCH   4  22
BRANCH   8  45
ATOM     45  O   UNL     1     111.787 126.400 136.566  0.00  0.00    +0.000 OA
BRANCH  45  54
ATOM     46  O   UNL     1     112.792 125.496 137.029  0.00  0.00    +0.000 OA
ATOM     47  O   UNL     1     111.531 123.599 136.060  0.00  0.00    +0.000 OA
ATOM     48  O   UNL     1     112.956 123.327 136.846  0.00  0.00    +0.000 OA
ATOM     49  O   UNL     1     110.947 125.136 135.921  0.00  0.00    +0.000 OA
ATOM     50  C   UNL     1     111.951 124.231 136.383  0.00  0.00    +0.000 C 
ATOM     51  C   UNL     1     112.664 124.095 136.776  0.00  0.00    +0.000 C 
ATOM     52  C   UNL     1     111.659 125.000 136.313  0.00  0.00    +0.000 C 
ATOM     53  C   UNL     1     113.084 124.727 137.099  0.00  0.00    +0.000 C 
ATOM     54  C   UNL     1     112.080 125.632 136.637  0.00  0.00    +0.000 C 
BRANCH  53  56
ATOM     55  O   UNL     1     114.483 124.982 137.250  0.00  0.00    +0.000 OA
ATOM     56  C   UNL     1     113.797 124.591 137.492  0.00  0.00    +0.000 C 
ENDBRANCH  53  56
ENDBRANCH  45  54
ENDBRANCH   8  45
TORSDOF 11
ENDMDL
MODEL 6
REMARK VINA RESULT:      -9.7      2.838      4.903
REMARK  Name = 12302038
REMARK  11 active torsions:
REMARK  status: ('A' for Active; 'I' for Inactive)
REMARK    1  A    between atoms: O_1  and  C_23
REMARK    2  A    between atoms: O_1  and  C_26
REMARK    3  A    between atoms: O_4  and  C_28
REMARK    4  A    between atoms: O_4  and  C_40
REMARK    5  A    between atoms: O_13  and  C_39
REMARK    6  A    between atoms: O_13  and  C_45
REMARK    7  A    between atoms: O_21  and  C_53
REMARK    8  A    between atoms: C_29  and  C_33
REMARK    9  A    between atoms: C_32  and  C_34
REMARK   10  A    between atoms: C_38  and  C_41
REMARK   11  A    between atoms: C_42  and  C_49
REMARK                            x       y       z     vdW  Elec       q    Type
REMARK                         _______ _______ _______ _____ _____    ______ ____
ROOT
ATOM      1  O   UNL     1     110.164 130.419 142.981  0.00  0.00    +0.000 OA
ATOM      2  O   UNL     1     111.909 131.344 141.489  0.00  0.00    +0.000 OA
ATOM      3  O   UNL     1     112.723 131.712 142.622  0.00  0.00    +0.000 OA
ATOM      4  C   UNL     1     110.643 130.705 141.665  0.00  0.00    +0.000 A 
ATOM      5  C   UNL     1     110.061 130.396 142.162  0.00  0.00    +0.000 A 
ATOM      6  C   UNL     1     111.327 131.036 141.986  0.00  0.00    +0.000 A 
ATOM      7  C   UNL     1     111.429 131.058 142.804  0.00  0.00    +0.000 A 
ATOM      8  C   UNL     1     111.654 131.111 144.496  0.00  0.00    +0.000 A 
ATOM      9  C   UNL     1     110.848 130.750 143.302  0.00  0.00    +0.000 A 
ATOM     10  C   UNL     1     110.943 130.767 144.156  0.00  0.00    +0.000 A 
ATOM     11  C   UNL     1     112.147 131.405 143.126  0.00  0.00    +0.000 A 
ATOM     12  C   UNL     1     112.260 131.432 143.978  0.00  0.00    +0.000 A 
ENDROOT
BRANCH   5  14
ATOM     13  O   UNL     1     107.323 129.074 140.880  0.00  0.00    +0.000 OA
ATOM     14  C   UNL     1     109.377 130.066 141.842  0.00  0.00    +0.000 A 
ATOM     15  C   UNL     1     109.322 129.249 141.739  0.00  0.00    +0.000 A 
ATOM     16  C   UNL     1     108.747 130.552 141.624  0.00  0.00    +0.000 A 
ATOM     17  C   UNL     1     108.638 128.918 141.419  0.00  0.00    +0.000 A 
ATOM     18  C   UNL     1     108.062 130.221 141.303  0.00  0.00    +0.000 A 
ATOM     19  C   UNL     1     108.008 129.404 141.201  0.00  0.00    +0.000 A 
BRANCH  17  20
ATOM     20  O   UNL     1     108.583 128.101 141.316  0.00  0.00    +0.000 OA
ATOM     21  C   UNL     1     108.878 127.593 141.894  0.00  0.00    +0.000 C 
ENDBRANCH  17  20
ENDBRANCH   5  14
BRANCH   4  22
ATOM     22  O   UNL     1     110.540 130.682 140.847  0.00  0.00    +0.000 OA
BRANCH  22  29
ATOM     23  O   UNL     1     111.505 129.654 140.620  0.00  0.00    +0.000 OA
ATOM     24  O   UNL     1     112.063 130.660 138.429  0.00  0.00    +0.000 OA
ATOM     25  O   UNL     1     112.842 129.295 138.932  0.00  0.00    +0.000 OA
ATOM     26  C   UNL     1     111.301 130.672 139.638  0.00  0.00    +0.000 C 
ATOM     27  C   UNL     1     111.877 130.324 139.159  0.00  0.00    +0.000 C 
ATOM     28  C   UNL     1     112.266 129.643 139.410  0.00  0.00    +0.000 C 
ATOM     29  C   UNL     1     111.115 130.336 140.368  0.00  0.00    +0.000 C 
ATOM     30  C   UNL     1     112.081 129.307 140.141  0.00  0.00    +0.000 C 
BRANCH  30  32
ATOM     31  O   UNL     1     112.046 127.927 140.508  0.00  0.00    +0.000 OA
ATOM     32  C   UNL     1     112.471 128.625 140.393  0.00  0.00    +0.000 C 
ENDBRANCH  30  32
BRANCH  26  33
ATOM     33  O   UNL     1     110.912 131.353 139.386  0.00  0.00    +0.000 OA
BRANCH  33  38
ATOM     34  O   UNL     1     110.105 130.571 138.503  0.00  0.00    +0.000 OA
ATOM     35  O   UNL     1     110.045 132.698 138.984  0.00  0.00    +0.000 OA
ATOM     36  O   UNL     1     108.805 132.588 137.901  0.00  0.00    +0.000 OA
ATOM     37  O   UNL     1     108.433 131.132 137.219  0.00  0.00    +0.000 OA
ATOM     38  C   UNL     1     110.292 131.298 138.844  0.00  0.00    +0.000 C 
ATOM     39  C   UNL     1     109.858 131.971 138.643  0.00  0.00    +0.000 C 
ATOM     40  C   UNL     1     109.238 131.916 138.101  0.00  0.00    +0.000 C 
ATOM     41  C   UNL     1     109.053 131.187 137.761  0.00  0.00    +0.000 C 
ATOM     42  C   UNL     1     109.486 130.515 137.961  0.00  0.00    +0.000 C 
BRANCH  42  44
ATOM     43  O   UNL     1     109.031 129.167 138.093  0.00  0.00    +0.000 OA
ATOM     44  C   UNL     1     109.300 129.787 137.621  0.00  0.00    +0.000 C 
ENDBRANCH  42  44
ENDBRANCH  33  38
ENDBRANCH  26  33
ENDBRANCH  22  29
ENDBRANCH   4  22
BRANCH   8  45
ATOM     45  O   UNL     1     111.754 131.132 145.314  0.00  0.00    +0.000 OA
BRANCH  45  54
ATOM     46  O   UNL     1     110.912 132.266 145.536  0.00  0.00    +0.000 OA
ATOM     47  O   UNL     1     112.378 132.990 147.394  0.00  0.00    +0.000 OA
ATOM     48  O   UNL     1     111.048 133.882 146.997  0.00  0.00    +0.000 OA
ATOM     49  O   UNL     1     112.731 131.615 146.552  0.00  0.00    +0.000 OA
ATOM     50  C   UNL     1     111.889 132.749 146.775  0.00  0.00    +0.000 C 
ATOM     51  C   UNL     1     111.224 133.195 146.576  0.00  0.00    +0.000 C 
ATOM     52  C   UNL     1     112.066 132.061 146.354  0.00  0.00    +0.000 C 
ATOM     53  C   UNL     1     110.736 132.953 145.957  0.00  0.00    +0.000 C 
ATOM     54  C   UNL     1     111.577 131.820 145.735  0.00  0.00    +0.000 C 
BRANCH  53  56
ATOM     55  O   UNL     1     110.032 133.779 145.026  0.00  0.00    +0.000 OA
ATOM     56  C   UNL     1     110.071 133.399 145.758  0.00  0.00    +0.000 C 
ENDBRANCH  53  56
ENDBRANCH  45  54
ENDBRANCH   8  45
TORSDOF 11
ENDMDL
MODEL 7
REMARK VINA RESULT:      -9.7      6.780      9.768
REMARK  Name = 12302038
REMARK  11 active torsions:
REMARK  status: ('A' for Active; 'I' for Inactive)
REMARK    1  A    between atoms: O_1  and  C_23
REMARK    2  A    between atoms: O_1  and  C_26
REMARK    3  A    between atoms: O_4  and  C_28
REMARK    4  A    between atoms: O_4  and  C_40
REMARK    5  A    between atoms: O_13  and  C_39
REMARK    6  A    between atoms: O_13  and  C_45
REMARK    7  A    between atoms: O_21  and  C_53
REMARK    8  A    between atoms: C_29  and  C_33
REMARK    9  A    between atoms: C_32  and  C_34
REMARK   10  A    between atoms: C_38  and  C_41
REMARK   11  A    between atoms: C_42  and  C_49
REMARK                            x       y       z     vdW  Elec       q    Type
REMARK                         _______ _______ _______ _____ _____    ______ ____
ROOT
ATOM      1  O   UNL     1     105.061 127.399 145.248  0.00  0.00    +0.000 OA
ATOM      2  O   UNL     1     107.123 126.290 144.444  0.00  0.00    +0.000 OA
ATOM      3  O   UNL     1     106.911 125.180 145.342  0.00  0.00    +0.000 OA
ATOM      4  C   UNL     1     106.209 127.388 144.398  0.00  0.00    +0.000 A 
ATOM      5  C   UNL     1     105.522 127.757 144.665  0.00  0.00    +0.000 A 
ATOM      6  C   UNL     1     106.436 126.660 144.712  0.00  0.00    +0.000 A 
ATOM      7  C   UNL     1     105.975 126.301 145.295  0.00  0.00    +0.000 A 
ATOM      8  C   UNL     1     105.031 125.549 146.502  0.00  0.00    +0.000 A 
ATOM      9  C   UNL     1     105.288 126.670 145.564  0.00  0.00    +0.000 A 
ATOM     10  C   UNL     1     104.800 126.307 146.170  0.00  0.00    +0.000 A 
ATOM     11  C   UNL     1     106.223 125.543 145.615  0.00  0.00    +0.000 A 
ATOM     12  C   UNL     1     105.747 125.164 146.223  0.00  0.00    +0.000 A 
ENDROOT
BRANCH   5  14
ATOM     13  O   UNL     1     104.613 130.669 143.405  0.00  0.00    +0.000 OA
ATOM     14  C   UNL     1     105.295 128.485 144.351  0.00  0.00    +0.000 A 
ATOM     15  C   UNL     1     105.617 129.183 144.650  0.00  0.00    +0.000 A 
ATOM     16  C   UNL     1     104.745 128.515 143.736  0.00  0.00    +0.000 A 
ATOM     17  C   UNL     1     105.390 129.911 144.335  0.00  0.00    +0.000 A 
ATOM     18  C   UNL     1     104.518 129.243 143.421  0.00  0.00    +0.000 A 
ATOM     19  C   UNL     1     104.840 129.941 143.721  0.00  0.00    +0.000 A 
BRANCH  17  20
ATOM     20  O   UNL     1     105.712 130.609 144.635  0.00  0.00    +0.000 OA
ATOM     21  C   UNL     1     106.045 130.619 145.390  0.00  0.00    +0.000 C 
ENDBRANCH  17  20
ENDBRANCH   5  14
BRANCH   4  22
ATOM     22  O   UNL     1     106.669 127.746 143.815  0.00  0.00    +0.000 OA
BRANCH  22  29
ATOM     23  O   UNL     1     106.287 126.855 142.765  0.00  0.00    +0.000 OA
ATOM     24  O   UNL     1     108.541 127.063 141.766  0.00  0.00    +0.000 OA
ATOM     25  O   UNL     1     107.407 126.102 141.050  0.00  0.00    +0.000 OA
ATOM     26  C   UNL     1     107.606 127.405 142.790  0.00  0.00    +0.000 C 
ATOM     27  C   UNL     1     107.790 126.994 142.099  0.00  0.00    +0.000 C 
ATOM     28  C   UNL     1     107.223 126.514 141.741  0.00  0.00    +0.000 C 
ATOM     29  C   UNL     1     106.854 127.336 143.123  0.00  0.00    +0.000 C 
ATOM     30  C   UNL     1     106.471 126.444 142.074  0.00  0.00    +0.000 C 
BRANCH  30  32
ATOM     31  O   UNL     1     105.192 126.290 141.457  0.00  0.00    +0.000 OA
ATOM     32  C   UNL     1     105.904 125.964 141.716  0.00  0.00    +0.000 C 
ENDBRANCH  30  32
BRANCH  26  33
ATOM     33  O   UNL     1     108.173 127.885 143.148  0.00  0.00    +0.000 OA
BRANCH  33  38
ATOM     34  O   UNL     1     107.949 128.895 142.162  0.00  0.00    +0.000 OA
ATOM     35  O   UNL     1     109.157 128.915 143.980  0.00  0.00    +0.000 OA
ATOM     36  O   UNL     1     109.426 130.440 143.409  0.00  0.00    +0.000 OA
ATOM     37  O   UNL     1     108.710 130.934 142.007  0.00  0.00    +0.000 OA
ATOM     38  C   UNL     1     108.307 128.647 142.863  0.00  0.00    +0.000 C 
ATOM     39  C   UNL     1     108.799 129.163 143.279  0.00  0.00    +0.000 C 
ATOM     40  C   UNL     1     108.934 129.925 142.994  0.00  0.00    +0.000 C 
ATOM     41  C   UNL     1     108.576 130.172 142.292  0.00  0.00    +0.000 C 
ATOM     42  C   UNL     1     108.084 129.657 141.877  0.00  0.00    +0.000 C 
BRANCH  42  44
ATOM     43  O   UNL     1     106.905 129.964 141.130  0.00  0.00    +0.000 OA
ATOM     44  C   UNL     1     107.725 129.904 141.176  0.00  0.00    +0.000 C 
ENDBRANCH  42  44
ENDBRANCH  33  38
ENDBRANCH  26  33
ENDBRANCH  22  29
ENDBRANCH   4  22
BRANCH   8  45
ATOM     45  O   UNL     1     104.569 125.193 147.085  0.00  0.00    +0.000 OA
BRANCH  45  54
ATOM     46  O   UNL     1     104.022 124.111 146.326  0.00  0.00    +0.000 OA
ATOM     47  O   UNL     1     101.797 124.536 147.324  0.00  0.00    +0.000 OA
ATOM     48  O   UNL     1     101.992 123.314 146.233  0.00  0.00    +0.000 OA
ATOM     49  O   UNL     1     103.086 125.475 147.750  0.00  0.00    +0.000 OA
ATOM     50  C   UNL     1     102.539 124.395 146.992  0.00  0.00    +0.000 C 
ATOM     51  C   UNL     1     102.636 123.783 146.446  0.00  0.00    +0.000 C 
ATOM     52  C   UNL     1     103.183 124.864 147.204  0.00  0.00    +0.000 C 
ATOM     53  C   UNL     1     103.378 123.642 146.113  0.00  0.00    +0.000 C 
ATOM     54  C   UNL     1     103.924 124.722 146.871  0.00  0.00    +0.000 C 
BRANCH  53  56
ATOM     55  O   UNL     1     103.661 123.204 144.782  0.00  0.00    +0.000 OA
ATOM     56  C   UNL     1     103.475 123.030 145.568  0.00  0.00    +0.000 C 
ENDBRANCH  53  56
ENDBRANCH  45  54
ENDBRANCH   8  45
TORSDOF 11
ENDMDL
MODEL 8
REMARK VINA RESULT:      -9.7      2.477      3.778
REMARK  Name = 12302038
REMARK  11 active torsions:
REMARK  status: ('A' for Active; 'I' for Inactive)
REMARK    1  A    between atoms: O_1  and  C_23
REMARK    2  A    between atoms: O_1  and  C_26
REMARK    3  A    between atoms: O_4  and  C_28
REMARK    4  A    between atoms: O_4  and  C_40
REMARK    5  A    between atoms: O_13  and  C_39
REMARK    6  A    between atoms: O_13  and  C_45
REMARK    7  A    between atoms: O_21  and  C_53
REMARK    8  A    between atoms: C_29  and  C_33
REMARK    9  A    between atoms: C_32  and  C_34
REMARK   10  A    between atoms: C_38  and  C_41
REMARK   11  A    between atoms: C_42  and  C_49
REMARK                            x       y       z     vdW  Elec       q    Type
REMARK                         _______ _______ _______ _____ _____    ______ ____
ROOT
ATOM      1  O   UNL     1     111.347 128.648 140.431  0.00  0.00    +0.000 OA
ATOM      2  O   UNL     1     110.568 128.096 138.147  0.00  0.00    +0.000 OA
ATOM      3  O   UNL     1     109.378 128.891 138.330  0.00  0.00    +0.000 OA
ATOM      4  C   UNL     1     111.542 127.976 139.186  0.00  0.00    +0.000 A 
ATOM      5  C   UNL     1     111.803 128.159 139.947  0.00  0.00    +0.000 A 
ATOM      6  C   UNL     1     110.828 128.280 138.909  0.00  0.00    +0.000 A 
ATOM      7  C   UNL     1     110.373 128.769 139.393  0.00  0.00    +0.000 A 
ATOM      8  C   UNL     1     109.422 129.782 140.385  0.00  0.00    +0.000 A 
ATOM      9  C   UNL     1     110.632 128.953 140.154  0.00  0.00    +0.000 A 
ATOM     10  C   UNL     1     110.168 129.461 140.668  0.00  0.00    +0.000 A 
ATOM     11  C   UNL     1     109.630 129.080 139.092  0.00  0.00    +0.000 A 
ATOM     12  C   UNL     1     109.151 129.590 139.592  0.00  0.00    +0.000 A 
ENDROOT
BRANCH   5  14
ATOM     13  O   UNL     1     114.661 126.939 141.056  0.00  0.00    +0.000 OA
ATOM     14  C   UNL     1     112.517 127.855 140.224  0.00  0.00    +0.000 A 
ATOM     15  C   UNL     1     113.188 128.334 140.252  0.00  0.00    +0.000 A 
ATOM     16  C   UNL     1     112.561 127.070 140.474  0.00  0.00    +0.000 A 
ATOM     17  C   UNL     1     113.902 128.030 140.529  0.00  0.00    +0.000 A 
ATOM     18  C   UNL     1     113.276 126.764 140.751  0.00  0.00    +0.000 A 
ATOM     19  C   UNL     1     113.946 127.245 140.778  0.00  0.00    +0.000 A 
BRANCH  17  20
ATOM     20  O   UNL     1     114.573 128.509 140.556  0.00  0.00    +0.000 OA
ATOM     21  C   UNL     1     114.494 129.320 140.687  0.00  0.00    +0.000 C 
ENDBRANCH  17  20
ENDBRANCH   5  14
BRANCH   4  22
ATOM     22  O   UNL     1     111.998 127.487 138.702  0.00  0.00    +0.000 OA
BRANCH  22  29
ATOM     23  O   UNL     1     112.521 128.502 137.843  0.00  0.00    +0.000 OA
ATOM     24  O   UNL     1     112.278 126.986 135.902  0.00  0.00    +0.000 OA
ATOM     25  O   UNL     1     112.883 128.507 135.691  0.00  0.00    +0.000 OA
ATOM     26  C   UNL     1     112.138 127.236 137.302  0.00  0.00    +0.000 C 
ATOM     27  C   UNL     1     112.359 127.492 136.549  0.00  0.00    +0.000 C 
ATOM     28  C   UNL     1     112.661 128.251 136.443  0.00  0.00    +0.000 C 
ATOM     29  C   UNL     1     112.219 127.741 137.949  0.00  0.00    +0.000 C 
ATOM     30  C   UNL     1     112.742 128.757 137.090  0.00  0.00    +0.000 C 
BRANCH  30  32
ATOM     31  O   UNL     1     113.739 129.742 137.370  0.00  0.00    +0.000 OA
ATOM     32  C   UNL     1     113.045 129.517 136.985  0.00  0.00    +0.000 C 
ENDBRANCH  30  32
BRANCH  26  33
ATOM     33  O   UNL     1     111.836 126.476 137.407  0.00  0.00    +0.000 OA
BRANCH  33  38
ATOM     34  O   UNL     1     113.152 125.921 137.401  0.00  0.00    +0.000 OA
ATOM     35  O   UNL     1     111.200 124.969 137.190  0.00  0.00    +0.000 OA
ATOM     36  O   UNL     1     112.199 123.661 137.075  0.00  0.00    +0.000 OA
ATOM     37  O   UNL     1     113.833 123.860 137.177  0.00  0.00    +0.000 OA
ATOM     38  C   UNL     1     112.335 125.822 137.350  0.00  0.00    +0.000 C 
ATOM     39  C   UNL     1     112.017 125.068 137.241  0.00  0.00    +0.000 C 
ATOM     40  C   UNL     1     112.516 124.414 137.184  0.00  0.00    +0.000 C 
ATOM     41  C   UNL     1     113.334 124.514 137.235  0.00  0.00    +0.000 C 
ATOM     42  C   UNL     1     113.652 125.267 137.343  0.00  0.00    +0.000 C 
BRANCH  42  44
ATOM     43  O   UNL     1     114.827 125.474 138.129  0.00  0.00    +0.000 OA
ATOM     44  C   UNL     1     114.469 125.367 137.395  0.00  0.00    +0.000 C 
ENDBRANCH  42  44
ENDBRANCH  33  38
ENDBRANCH  26  33
ENDBRANCH  22  29
ENDBRANCH   4  22
BRANCH   8  45
ATOM     45  O   UNL     1     108.969 130.270 140.871  0.00  0.00    +0.000 OA
BRANCH  45  54
ATOM     46  O   UNL     1     108.340 129.263 141.667  0.00  0.00    +0.000 OA
ATOM     47  O   UNL     1     106.197 130.495 141.530  0.00  0.00    +0.000 OA
ATOM     48  O   UNL     1     106.282 129.078 142.371  0.00  0.00    +0.000 OA
ATOM     49  O   UNL     1     107.541 131.091 140.780  0.00  0.00    +0.000 OA
ATOM     50  C   UNL     1     106.911 130.084 141.576  0.00  0.00    +0.000 C 
ATOM     51  C   UNL     1     106.953 129.376 141.996  0.00  0.00    +0.000 C 
ATOM     52  C   UNL     1     107.583 130.382 141.201  0.00  0.00    +0.000 C 
ATOM     53  C   UNL     1     107.668 128.965 142.042  0.00  0.00    +0.000 C 
ATOM     54  C   UNL     1     108.297 129.972 141.247  0.00  0.00    +0.000 C 
BRANCH  53  56
ATOM     55  O   UNL     1     108.295 128.152 143.037  0.00  0.00    +0.000 OA
ATOM     56  C   UNL     1     107.710 128.257 142.463  0.00  0.00    +0.000 C 
ENDBRANCH  53  56
ENDBRANCH  45  54
ENDBRANCH   8  45
TORSDOF 11
ENDMDL
MODEL 9
REMARK VINA RESULT:      -9.7      2.392      5.625
REMARK  Name = 12302038
REMARK  11 active torsions:
REMARK  status: ('A' for Active; 'I' for Inactive)
REMARK    1  A    between atoms: O_1  and  C_23
REMARK    2  A    between atoms: O_1  and  C_26
REMARK    3  A    between atoms: O_4  and  C_28
REMARK    4  A    between atoms: O_4  and  C_40
REMARK    5  A    between atoms: O_13  and  C_39
REMARK    6  A    between atoms: O_13  and  C_45
REMARK    7  A    between atoms: O_21  and  C_53
REMARK    8  A    between atoms: C_29  and  C_33
REMARK    9  A    between atoms: C_32  and  C_34
REMARK   10  A    between atoms: C_38  and  C_41
REMARK   11  A    between atoms: C_42  and  C_49
REMARK                            x       y       z     vdW  Elec       q    Type
REMARK                         _______ _______ _______ _____ _____    ______ ____
ROOT
ATOM      1  O   UNL     1     112.116 128.318 137.733  0.00  0.00    +0.000 OA
ATOM      2  O   UNL     1     109.671 128.579 138.018  0.00  0.00    +0.000 OA
ATOM      3  O   UNL     1     109.543 127.203 138.431  0.00  0.00    +0.000 OA
ATOM      4  C   UNL     1     110.943 129.132 137.673  0.00  0.00    +0.000 A 
ATOM      5  C   UNL     1     111.758 129.045 137.577  0.00  0.00    +0.000 A 
ATOM      6  C   UNL     1     110.486 128.493 137.923  0.00  0.00    +0.000 A 
ATOM      7  C   UNL     1     110.844 127.766 138.078  0.00  0.00    +0.000 A 
ATOM      8  C   UNL     1     111.573 126.257 138.403  0.00  0.00    +0.000 A 
ATOM      9  C   UNL     1     111.658 127.678 137.983  0.00  0.00    +0.000 A 
ATOM     10  C   UNL     1     112.043 126.926 138.142  0.00  0.00    +0.000 A 
ATOM     11  C   UNL     1     110.357 127.107 138.339  0.00  0.00    +0.000 A 
ATOM     12  C   UNL     1     110.723 126.347 138.502  0.00  0.00    +0.000 A 
ENDROOT
BRANCH   5  14
ATOM     13  O   UNL     1     113.586 131.603 136.575  0.00  0.00    +0.000 OA
ATOM     14  C   UNL     1     112.214 129.684 137.327  0.00  0.00    +0.000 A 
ATOM     15  C   UNL     1     112.670 130.105 137.872  0.00  0.00    +0.000 A 
ATOM     16  C   UNL     1     112.217 129.903 136.532  0.00  0.00    +0.000 A 
ATOM     17  C   UNL     1     113.126 130.744 137.621  0.00  0.00    +0.000 A 
ATOM     18  C   UNL     1     112.674 130.543 136.281  0.00  0.00    +0.000 A 
ATOM     19  C   UNL     1     113.129 130.963 136.826  0.00  0.00    +0.000 A 
BRANCH  17  20
ATOM     20  O   UNL     1     113.582 131.165 138.166  0.00  0.00    +0.000 OA
ATOM     21  C   UNL     1     114.025 130.761 138.732  0.00  0.00    +0.000 C 
ENDBRANCH  17  20
ENDBRANCH   5  14
BRANCH   4  22
ATOM     22  O   UNL     1     110.585 129.858 137.517  0.00  0.00    +0.000 OA
BRANCH  22  29
ATOM     23  O   UNL     1     110.410 130.277 138.873  0.00  0.00    +0.000 OA
ATOM     24  O   UNL     1     108.202 131.232 138.293  0.00  0.00    +0.000 OA
ATOM     25  O   UNL     1     108.763 131.332 139.842  0.00  0.00    +0.000 OA
ATOM     26  C   UNL     1     109.393 130.545 137.905  0.00  0.00    +0.000 C 
ATOM     27  C   UNL     1     108.938 130.914 138.486  0.00  0.00    +0.000 C 
ATOM     28  C   UNL     1     109.218 130.963 139.260  0.00  0.00    +0.000 C 
ATOM     29  C   UNL     1     110.129 130.227 138.098  0.00  0.00    +0.000 C 
ATOM     30  C   UNL     1     109.954 130.645 139.453  0.00  0.00    +0.000 C 
BRANCH  30  32
ATOM     31  O   UNL     1     110.912 131.136 140.393  0.00  0.00    +0.000 OA
ATOM     32  C   UNL     1     110.235 130.695 140.228  0.00  0.00    +0.000 C 
ENDBRANCH  30  32
BRANCH  26  33
ATOM     33  O   UNL     1     109.113 130.496 137.131  0.00  0.00    +0.000 OA
BRANCH  33  38
ATOM     34  O   UNL     1     109.550 131.833 136.884  0.00  0.00    +0.000 OA
ATOM     35  O   UNL     1     108.463 130.430 135.616  0.00  0.00    +0.000 OA
ATOM     36  O   UNL     1     108.576 131.734 134.612  0.00  0.00    +0.000 OA
ATOM     37  O   UNL     1     109.338 133.105 135.124  0.00  0.00    +0.000 OA
ATOM     38  C   UNL     1     109.169 131.148 136.629  0.00  0.00    +0.000 C 
ATOM     39  C   UNL     1     108.844 131.115 135.871  0.00  0.00    +0.000 C 
ATOM     40  C   UNL     1     108.900 131.767 135.369  0.00  0.00    +0.000 C 
ATOM     41  C   UNL     1     109.282 132.453 135.626  0.00  0.00    +0.000 C 
ATOM     42  C   UNL     1     109.607 132.486 136.383  0.00  0.00    +0.000 C 
BRANCH  42  44
ATOM     43  O   UNL     1     110.804 133.170 136.757  0.00  0.00    +0.000 OA
ATOM     44  C   UNL     1     109.988 133.171 136.639  0.00  0.00    +0.000 C 
ENDBRANCH  42  44
ENDBRANCH  33  38
ENDBRANCH  26  33
ENDBRANCH  22  29
ENDBRANCH   4  22
BRANCH   8  45
ATOM     45  O   UNL     1     111.933 125.531 138.557  0.00  0.00    +0.000 OA
BRANCH  45  54
ATOM     46  O   UNL     1     111.752 124.796 137.345  0.00  0.00    +0.000 OA
ATOM     47  O   UNL     1     114.181 124.327 137.267  0.00  0.00    +0.000 OA
ATOM     48  O   UNL     1     113.191 123.748 136.081  0.00  0.00    +0.000 OA
ATOM     49  O   UNL     1     113.552 125.218 138.505  0.00  0.00    +0.000 OA
ATOM     50  C   UNL     1     113.372 124.483 137.293  0.00  0.00    +0.000 C 
ATOM     51  C   UNL     1     112.876 124.194 136.700  0.00  0.00    +0.000 C 
ATOM     52  C   UNL     1     113.057 124.929 137.912  0.00  0.00    +0.000 C 
ATOM     53  C   UNL     1     112.067 124.350 136.726  0.00  0.00    +0.000 C 
ATOM     54  C   UNL     1     112.247 125.085 137.938  0.00  0.00    +0.000 C 
BRANCH  53  56
ATOM     55  O   UNL     1     111.061 124.574 135.735  0.00  0.00    +0.000 OA
ATOM     56  C   UNL     1     111.572 124.061 136.132  0.00  0.00    +0.000 C 
ENDBRANCH  53  56
ENDBRANCH  45  54
ENDBRANCH   8  45
TORSDOF 11
ENDMDL
MODEL 10
REMARK VINA RESULT:      -9.7      2.529      6.163
REMARK  Name = 12302038
REMARK  11 active torsions:
REMARK  status: ('A' for Active; 'I' for Inactive)
REMARK    1  A    between atoms: O_1  and  C_23
REMARK    2  A    between atoms: O_1  and  C_26
REMARK    3  A    between atoms: O_4  and  C_28
REMARK    4  A    between atoms: O_4  and  C_40
REMARK    5  A    between atoms: O_13  and  C_39
REMARK    6  A    between atoms: O_13  and  C_45
REMARK    7  A    between atoms: O_21  and  C_53
REMARK    8  A    between atoms: C_29  and  C_33
REMARK    9  A    between atoms: C_32  and  C_34
REMARK   10  A    between atoms: C_38  and  C_41
REMARK   11  A    between atoms: C_42  and  C_49
REMARK                            x       y       z     vdW  Elec       q    Type
REMARK                         _______ _______ _______ _____ _____    ______ ____
ROOT
ATOM      1  O   UNL     1     111.822 127.930 139.399  0.00  0.00    +0.000 OA
ATOM      2  O   UNL     1     109.477 128.394 138.757  0.00  0.00    +0.000 OA
ATOM      3  O   UNL     1     109.760 128.070 137.380  0.00  0.00    +0.000 OA
ATOM      4  C   UNL     1     110.496 128.325 139.756  0.00  0.00    +0.000 A 
ATOM      5  C   UNL     1     111.278 128.171 139.971  0.00  0.00    +0.000 A 
ATOM      6  C   UNL     1     110.259 128.239 138.971  0.00  0.00    +0.000 A 
ATOM      7  C   UNL     1     110.803 127.999 138.400  0.00  0.00    +0.000 A 
ATOM      8  C   UNL     1     111.920 127.502 137.209  0.00  0.00    +0.000 A 
ATOM      9  C   UNL     1     111.585 127.844 138.613  0.00  0.00    +0.000 A 
ATOM     10  C   UNL     1     112.162 127.593 138.028  0.00  0.00    +0.000 A 
ATOM     11  C   UNL     1     110.544 127.913 137.585  0.00  0.00    +0.000 A 
ATOM     12  C   UNL     1     111.106 127.663 136.985  0.00  0.00    +0.000 A 
ENDROOT
BRANCH   5  14
ATOM     13  O   UNL     1     112.228 128.514 143.113  0.00  0.00    +0.000 OA
ATOM     14  C   UNL     1     111.516 128.257 140.756  0.00  0.00    +0.000 A 
ATOM     15  C   UNL     1     111.894 128.948 141.000  0.00  0.00    +0.000 A 
ATOM     16  C   UNL     1     111.375 127.651 141.298  0.00  0.00    +0.000 A 
ATOM     17  C   UNL     1     112.131 129.034 141.785  0.00  0.00    +0.000 A 
ATOM     18  C   UNL     1     111.613 127.736 142.084  0.00  0.00    +0.000 A 
ATOM     19  C   UNL     1     111.990 128.428 142.326  0.00  0.00    +0.000 A 
BRANCH  17  20
ATOM     20  O   UNL     1     112.509 129.726 142.029  0.00  0.00    +0.000 OA
ATOM     21  C   UNL     1     113.083 130.073 141.548  0.00  0.00    +0.000 C 
ENDBRANCH  17  20
ENDBRANCH   5  14
BRANCH   4  22
ATOM     22  O   UNL     1     109.952 128.566 140.328  0.00  0.00    +0.000 OA
BRANCH  22  29
ATOM     23  O   UNL     1     109.900 129.931 139.908  0.00  0.00    +0.000 OA
ATOM     24  O   UNL     1     107.511 130.035 140.547  0.00  0.00    +0.000 OA
ATOM     25  O   UNL     1     108.255 131.366 139.915  0.00  0.00    +0.000 OA
ATOM     26  C   UNL     1     108.731 129.300 140.438  0.00  0.00    +0.000 C 
ATOM     27  C   UNL     1     108.307 130.000 140.334  0.00  0.00    +0.000 C 
ATOM     28  C   UNL     1     108.679 130.665 140.018  0.00  0.00    +0.000 C 
ATOM     29  C   UNL     1     109.527 129.265 140.225  0.00  0.00    +0.000 C 
ATOM     30  C   UNL     1     109.475 130.630 139.806  0.00  0.00    +0.000 C 
BRANCH  30  32
ATOM     31  O   UNL     1     110.467 131.655 139.899  0.00  0.00    +0.000 OA
ATOM     32  C   UNL     1     109.847 131.296 139.489  0.00  0.00    +0.000 C 
ENDBRANCH  30  32
BRANCH  26  33
ATOM     33  O   UNL     1     108.360 128.635 140.753  0.00  0.00    +0.000 OA
BRANCH  33  38
ATOM     34  O   UNL     1     108.451 129.203 142.062  0.00  0.00    +0.000 OA
ATOM     35  O   UNL     1     107.728 127.254 141.397  0.00  0.00    +0.000 OA
ATOM     36  O   UNL     1     107.503 127.131 143.027  0.00  0.00    +0.000 OA
ATOM     37  O   UNL     1     107.911 128.389 144.013  0.00  0.00    +0.000 OA
ATOM     38  C   UNL     1     108.247 128.574 141.568  0.00  0.00    +0.000 C 
ATOM     39  C   UNL     1     107.931 127.882 141.891  0.00  0.00    +0.000 C 
ATOM     40  C   UNL     1     107.819 127.821 142.706  0.00  0.00    +0.000 C 
ATOM     41  C   UNL     1     108.023 128.451 143.198  0.00  0.00    +0.000 C 
ATOM     42  C   UNL     1     108.339 129.141 142.877  0.00  0.00    +0.000 C 
BRANCH  42  44
ATOM     43  O   UNL     1     109.335 129.972 143.476  0.00  0.00    +0.000 OA
ATOM     44  C   UNL     1     108.543 129.771 143.370  0.00  0.00    +0.000 C 
ENDBRANCH  42  44
ENDBRANCH  33  38
ENDBRANCH  26  33
ENDBRANCH  22  29
ENDBRANCH   4  22
BRANCH   8  45
ATOM     45  O   UNL     1     112.467 127.261 136.639  0.00  0.00    +0.000 OA
BRANCH  45  54
ATOM     46  O   UNL     1     112.124 125.874 136.576  0.00  0.00    +0.000 OA
ATOM     47  O   UNL     1     114.527 125.285 136.497  0.00  0.00    +0.000 OA
ATOM     48  O   UNL     1     113.384 124.096 136.460  0.00  0.00    +0.000 OA
ATOM     49  O   UNL     1     114.068 126.867 136.586  0.00  0.00    +0.000 OA
ATOM     50  C   UNL     1     113.726 125.481 136.523  0.00  0.00    +0.000 C 
ATOM     51  C   UNL     1     113.154 124.887 136.505  0.00  0.00    +0.000 C 
ATOM     52  C   UNL     1     113.496 126.273 136.568  0.00  0.00    +0.000 C 
ATOM     53  C   UNL     1     112.353 125.083 136.531  0.00  0.00    +0.000 C 
ATOM     54  C   UNL     1     112.695 126.469 136.594  0.00  0.00    +0.000 C 
BRANCH  53  56
ATOM     55  O   UNL     1     111.174 124.517 135.954  0.00  0.00    +0.000 OA
ATOM     56  C   UNL     1     111.782 124.488 136.513  0.00  0.00    +0.000 C 
ENDBRANCH  53  56
ENDBRANCH  45  54
ENDBRANCH   8  45
TORSDOF 11
ENDMDL
