MODEL 1
REMARK VINA RESULT:     -10.0      0.000      0.000
REMARK  Name = 44258245
REMARK  9 active torsions:
REMARK  status: ('A' for Active; 'I' for Inactive)
REMARK    1  A    between atoms: O_1  and  C_17
REMARK    2  A    between atoms: O_1  and  C_20
REMARK    3  A    between atoms: O_4  and  C_21
REMARK    4  A    between atoms: O_4  and  C_29
REMARK    5  A    between atoms: C_22  and  C_27
REMARK    6  A    between atoms: C_34  and  C_35
REMARK    7  A    between atoms: C_35  and  C_36
REMARK    8  A    between atoms: C_36  and  C_40
REMARK    9  A    between atoms: C_38  and  C_41
REMARK                            x       y       z     vdW  Elec       q    Type
REMARK                         _______ _______ _______ _____ _____    ______ ____
ROOT
ATOM      1  O   UNL     1     112.845 128.384 140.253  0.00  0.00    +0.000 OA
ATOM      2  O   UNL     1     112.228 128.710 137.879  0.00  0.00    +0.000 OA
ATOM      3  O   UNL     1     111.430 125.840 140.293  0.00  0.00    +0.000 OA
ATOM      4  C   UNL     1     111.718 127.338 138.653  0.00  0.00    +0.000 A 
ATOM      5  C   UNL     1     112.188 127.924 139.071  0.00  0.00    +0.000 A 
ATOM      6  C   UNL     1     111.459 126.630 139.065  0.00  0.00    +0.000 A 
ATOM      7  C   UNL     1     112.394 127.814 139.863  0.00  0.00    +0.000 A 
ATOM      8  C   UNL     1     112.433 128.601 138.670  0.00  0.00    +0.000 A 
ATOM      9  C   UNL     1     112.885 129.171 139.061  0.00  0.00    +0.000 A 
ATOM     10  C   UNL     1     111.674 126.517 139.889  0.00  0.00    +0.000 A 
ATOM     11  C   UNL     1     113.091 129.062 139.852  0.00  0.00    +0.000 A 
ATOM     12  C   UNL     1     112.144 127.113 140.291  0.00  0.00    +0.000 A 
ENDROOT
BRANCH  11  16
ATOM     13  O   UNL     1     113.253 131.358 141.546  0.00  0.00    +0.000 OA
ATOM     14  O   UNL     1     115.639 130.182 140.501  0.00  0.00    +0.000 OA
ATOM     15  O   UNL     1     114.898 131.340 141.415  0.00  0.00    +0.000 OA
ATOM     16  C   UNL     1     113.543 129.631 140.243  0.00  0.00    +0.000 A 
ATOM     17  C   UNL     1     114.365 129.623 140.177  0.00  0.00    +0.000 A 
ATOM     18  C   UNL     1     113.172 130.210 140.699  0.00  0.00    +0.000 A 
ATOM     19  C   UNL     1     113.623 130.780 141.090  0.00  0.00    +0.000 A 
ATOM     20  C   UNL     1     114.816 130.192 140.567  0.00  0.00    +0.000 A 
ATOM     21  C   UNL     1     114.446 130.770 141.024  0.00  0.00    +0.000 A 
ENDBRANCH  11  16
BRANCH   4  22
ATOM     22  O   UNL     1     111.517 127.455 137.861  0.00  0.00    +0.000 OA
BRANCH  22  29
ATOM     23  O   UNL     1     112.317 126.457 137.224  0.00  0.00    +0.000 OA
ATOM     24  O   UNL     1     110.358 125.736 135.894  0.00  0.00    +0.000 OA
ATOM     25  O   UNL     1     111.811 124.978 135.701  0.00  0.00    +0.000 OA
ATOM     26  C   UNL     1     110.937 126.596 136.878  0.00  0.00    +0.000 C 
ATOM     27  C   UNL     1     111.011 125.976 136.338  0.00  0.00    +0.000 C 
ATOM     28  C   UNL     1     111.737 125.598 136.241  0.00  0.00    +0.000 C 
ATOM     29  C   UNL     1     111.590 126.836 137.322  0.00  0.00    +0.000 C 
ATOM     30  C   UNL     1     112.390 125.838 136.685  0.00  0.00    +0.000 C 
BRANCH  30  32
ATOM     31  O   UNL     1     113.813 125.899 136.567  0.00  0.00    +0.000 OA
ATOM     32  C   UNL     1     113.117 125.459 136.587  0.00  0.00    +0.000 C 
ENDBRANCH  30  32
BRANCH  26  33
ATOM     33  O   UNL     1     110.211 126.974 136.975  0.00  0.00    +0.000 OA
BRANCH  33  38
ATOM     34  O   UNL     1     110.501 127.867 135.898  0.00  0.00    +0.000 OA
ATOM     35  O   UNL     1     108.623 127.419 136.916  0.00  0.00    +0.000 OA
ATOM     36  O   UNL     1     108.119 128.534 135.809  0.00  0.00    +0.000 OA
ATOM     37  O   UNL     1     109.203 129.204 134.761  0.00  0.00    +0.000 OA
ATOM     38  C   UNL     1     109.959 127.532 136.421  0.00  0.00    +0.000 C 
ATOM     39  C   UNL     1     109.165 127.754 136.392  0.00  0.00    +0.000 C 
ATOM     40  C   UNL     1     108.913 128.311 135.839  0.00  0.00    +0.000 C 
ATOM     41  C   UNL     1     109.455 128.647 135.314  0.00  0.00    +0.000 C 
ATOM     42  C   UNL     1     110.249 128.424 135.345  0.00  0.00    +0.000 C 
ATOM     43  C   UNL     1     110.791 128.760 134.820  0.00  0.00    +0.000 C 
ENDBRANCH  33  38
ENDBRANCH  26  33
ENDBRANCH  22  29
ENDBRANCH   4  22
BRANCH   9  44
ATOM     44  C   UNL     1     113.131 129.848 138.661  0.00  0.00    +0.000 C 
BRANCH  44  45
ATOM     45  C   UNL     1     112.959 129.939 137.859  0.00  0.00    +0.000 C 
BRANCH  45  46
ATOM     46  C   UNL     1     113.182 130.629 137.465  0.00  0.00    +0.000 C 
ATOM     47  C   UNL     1     113.920 130.676 137.099  0.00  0.00    +0.000 C 
ATOM     48  C   UNL     1     112.668 131.273 137.437  0.00  0.00    +0.000 C 
ENDBRANCH  45  46
ENDBRANCH  44  45
ENDBRANCH   9  44
TORSDOF 9
ENDMDL
MODEL 2
REMARK VINA RESULT:     -10.0      2.466      5.037
REMARK  Name = 44258245
REMARK  9 active torsions:
REMARK  status: ('A' for Active; 'I' for Inactive)
REMARK    1  A    between atoms: O_1  and  C_17
REMARK    2  A    between atoms: O_1  and  C_20
REMARK    3  A    between atoms: O_4  and  C_21
REMARK    4  A    between atoms: O_4  and  C_29
REMARK    5  A    between atoms: C_22  and  C_27
REMARK    6  A    between atoms: C_34  and  C_35
REMARK    7  A    between atoms: C_35  and  C_36
REMARK    8  A    between atoms: C_36  and  C_40
REMARK    9  A    between atoms: C_38  and  C_41
REMARK                            x       y       z     vdW  Elec       q    Type
REMARK                         _______ _______ _______ _____ _____    ______ ____
ROOT
ATOM      1  O   UNL     1     112.877 127.253 136.272  0.00  0.00    +0.000 OA
ATOM      2  O   UNL     1     111.160 128.013 137.885  0.00  0.00    +0.000 OA
ATOM      3  O   UNL     1     112.385 129.593 134.612  0.00  0.00    +0.000 OA
ATOM      4  C   UNL     1     111.460 128.939 136.545  0.00  0.00    +0.000 A 
ATOM      5  C   UNL     1     111.894 128.209 136.674  0.00  0.00    +0.000 A 
ATOM      6  C   UNL     1     111.625 129.411 135.846  0.00  0.00    +0.000 A 
ATOM      7  C   UNL     1     112.467 127.955 136.137  0.00  0.00    +0.000 A 
ATOM      8  C   UNL     1     111.732 127.760 137.347  0.00  0.00    +0.000 A 
ATOM      9  C   UNL     1     112.142 127.057 137.483  0.00  0.00    +0.000 A 
ATOM     10  C   UNL     1     112.220 129.147 135.286  0.00  0.00    +0.000 A 
ATOM     11  C   UNL     1     112.714 126.803 136.945  0.00  0.00    +0.000 A 
ATOM     12  C   UNL     1     112.644 128.414 135.433  0.00  0.00    +0.000 A 
ENDROOT
BRANCH  11  16
ATOM     13  O   UNL     1     112.963 123.977 136.603  0.00  0.00    +0.000 OA
ATOM     14  O   UNL     1     114.927 125.412 138.101  0.00  0.00    +0.000 OA
ATOM     15  O   UNL     1     114.355 123.991 137.487  0.00  0.00    +0.000 OA
ATOM     16  C   UNL     1     113.124 126.101 137.081  0.00  0.00    +0.000 A 
ATOM     17  C   UNL     1     113.821 126.107 137.523  0.00  0.00    +0.000 A 
ATOM     18  C   UNL     1     112.839 125.390 136.774  0.00  0.00    +0.000 A 
ATOM     19  C   UNL     1     113.248 124.687 136.909  0.00  0.00    +0.000 A 
ATOM     20  C   UNL     1     114.231 125.405 137.659  0.00  0.00    +0.000 A 
ATOM     21  C   UNL     1     113.945 124.694 137.352  0.00  0.00    +0.000 A 
ENDBRANCH  11  16
BRANCH   4  22
ATOM     22  O   UNL     1     110.889 129.185 137.087  0.00  0.00    +0.000 OA
BRANCH  22  29
ATOM     23  O   UNL     1     109.690 128.826 136.399  0.00  0.00    +0.000 OA
ATOM     24  O   UNL     1     108.729 131.048 136.913  0.00  0.00    +0.000 OA
ATOM     25  O   UNL     1     107.850 129.948 136.054  0.00  0.00    +0.000 OA
ATOM     26  C   UNL     1     109.810 130.116 137.000  0.00  0.00    +0.000 C 
ATOM     27  C   UNL     1     109.049 130.308 136.742  0.00  0.00    +0.000 C 
ATOM     28  C   UNL     1     108.610 129.757 136.312  0.00  0.00    +0.000 C 
ATOM     29  C   UNL     1     110.130 129.376 136.829  0.00  0.00    +0.000 C 
ATOM     30  C   UNL     1     108.930 129.016 136.141  0.00  0.00    +0.000 C 
BRANCH  30  32
ATOM     31  O   UNL     1     108.414 127.693 135.986  0.00  0.00    +0.000 OA
ATOM     32  C   UNL     1     108.490 128.466 135.711  0.00  0.00    +0.000 C 
ENDBRANCH  30  32
BRANCH  26  33
ATOM     33  O   UNL     1     110.249 130.667 137.430  0.00  0.00    +0.000 OA
BRANCH  33  38
ATOM     34  O   UNL     1     109.626 130.270 138.652  0.00  0.00    +0.000 OA
ATOM     35  O   UNL     1     110.753 132.068 138.142  0.00  0.00    +0.000 OA
ATOM     36  O   UNL     1     110.381 132.371 139.721  0.00  0.00    +0.000 OA
ATOM     37  O   UNL     1     109.505 131.273 140.587  0.00  0.00    +0.000 OA
ATOM     38  C   UNL     1     110.063 130.818 138.219  0.00  0.00    +0.000 C 
ATOM     39  C   UNL     1     110.315 131.519 138.575  0.00  0.00    +0.000 C 
ATOM     40  C   UNL     1     110.129 131.671 139.364  0.00  0.00    +0.000 C 
ATOM     41  C   UNL     1     109.691 131.121 139.798  0.00  0.00    +0.000 C 
ATOM     42  C   UNL     1     109.440 130.421 139.441  0.00  0.00    +0.000 C 
ATOM     43  C   UNL     1     109.001 129.872 139.875  0.00  0.00    +0.000 C 
ENDBRANCH  33  38
ENDBRANCH  26  33
ENDBRANCH  22  29
ENDBRANCH   4  22
BRANCH   9  44
ATOM     44  C   UNL     1     111.981 126.608 138.155  0.00  0.00    +0.000 C 
BRANCH  44  45
ATOM     45  C   UNL     1     111.461 126.894 138.727  0.00  0.00    +0.000 C 
BRANCH  45  46
ATOM     46  C   UNL     1     111.296 126.443 139.399  0.00  0.00    +0.000 C 
ATOM     47  C   UNL     1     110.686 125.887 139.383  0.00  0.00    +0.000 C 
ATOM     48  C   UNL     1     111.741 126.547 140.085  0.00  0.00    +0.000 C 
ENDBRANCH  45  46
ENDBRANCH  44  45
ENDBRANCH   9  44
TORSDOF 9
ENDMDL
MODEL 3
REMARK VINA RESULT:      -9.7      1.745      5.616
REMARK  Name = 44258245
REMARK  9 active torsions:
REMARK  status: ('A' for Active; 'I' for Inactive)
REMARK    1  A    between atoms: O_1  and  C_17
REMARK    2  A    between atoms: O_1  and  C_20
REMARK    3  A    between atoms: O_4  and  C_21
REMARK    4  A    between atoms: O_4  and  C_29
REMARK    5  A    between atoms: C_22  and  C_27
REMARK    6  A    between atoms: C_34  and  C_35
REMARK    7  A    between atoms: C_35  and  C_36
REMARK    8  A    between atoms: C_36  and  C_40
REMARK    9  A    between atoms: C_38  and  C_41
REMARK                            x       y       z     vdW  Elec       q    Type
REMARK                         _______ _______ _______ _____ _____    ______ ____
ROOT
ATOM      1  O   UNL     1     111.193 129.118 136.494  0.00  0.00    +0.000 OA
ATOM      2  O   UNL     1     111.532 129.701 138.876  0.00  0.00    +0.000 OA
ATOM      3  O   UNL     1     113.645 127.548 136.508  0.00  0.00    +0.000 OA
ATOM      4  C   UNL     1     112.647 128.733 138.126  0.00  0.00    +0.000 A 
ATOM      5  C   UNL     1     111.964 129.026 137.693  0.00  0.00    +0.000 A 
ATOM      6  C   UNL     1     113.219 128.232 137.726  0.00  0.00    +0.000 A 
ATOM      7  C   UNL     1     111.852 128.831 136.899  0.00  0.00    +0.000 A 
ATOM      8  C   UNL     1     111.419 129.507 138.082  0.00  0.00    +0.000 A 
ATOM      9  C   UNL     1     110.760 129.794 137.677  0.00  0.00    +0.000 A 
ATOM     10  C   UNL     1     113.101 128.030 136.900  0.00  0.00    +0.000 A 
ATOM     11  C   UNL     1     110.647 129.600 136.884  0.00  0.00    +0.000 A 
ATOM     12  C   UNL     1     112.413 128.331 136.484  0.00  0.00    +0.000 A 
ENDROOT
BRANCH  11  16
ATOM     13  O   UNL     1     107.938 129.287 136.027  0.00  0.00    +0.000 OA
ATOM     14  O   UNL     1     109.401 131.635 135.310  0.00  0.00    +0.000 OA
ATOM     15  O   UNL     1     108.010 130.748 135.264  0.00  0.00    +0.000 OA
ATOM     16  C   UNL     1     109.988 129.887 136.479  0.00  0.00    +0.000 A 
ATOM     17  C   UNL     1     110.023 130.617 136.097  0.00  0.00    +0.000 A 
ATOM     18  C   UNL     1     109.293 129.444 136.455  0.00  0.00    +0.000 A 
ATOM     19  C   UNL     1     108.633 129.730 136.051  0.00  0.00    +0.000 A 
ATOM     20  C   UNL     1     109.365 130.904 135.692  0.00  0.00    +0.000 A 
ATOM     21  C   UNL     1     108.669 130.461 135.669  0.00  0.00    +0.000 A 
ENDBRANCH  11  16
BRANCH   4  22
ATOM     22  O   UNL     1     112.752 128.933 138.920  0.00  0.00    +0.000 OA
BRANCH  22  29
ATOM     23  O   UNL     1     112.519 127.663 139.534  0.00  0.00    +0.000 OA
ATOM     24  O   UNL     1     114.510 127.991 140.967  0.00  0.00    +0.000 OA
ATOM     25  O   UNL     1     113.614 126.613 141.103  0.00  0.00    +0.000 OA
ATOM     26  C   UNL     1     113.631 128.462 139.943  0.00  0.00    +0.000 C 
ATOM     27  C   UNL     1     113.847 127.882 140.489  0.00  0.00    +0.000 C 
ATOM     28  C   UNL     1     113.398 127.193 140.557  0.00  0.00    +0.000 C 
ATOM     29  C   UNL     1     112.967 128.353 139.465  0.00  0.00    +0.000 C 
ATOM     30  C   UNL     1     112.734 127.084 140.079  0.00  0.00    +0.000 C 
BRANCH  30  32
ATOM     31  O   UNL     1     111.463 126.437 140.168  0.00  0.00    +0.000 OA
ATOM     32  C   UNL     1     112.286 126.394 140.148  0.00  0.00    +0.000 C 
ENDBRANCH  30  32
BRANCH  26  33
ATOM     33  O   UNL     1     114.080 129.151 139.875  0.00  0.00    +0.000 OA
BRANCH  33  38
ATOM     34  O   UNL     1     113.354 129.753 140.949  0.00  0.00    +0.000 OA
ATOM     35  O   UNL     1     115.199 130.361 139.955  0.00  0.00    +0.000 OA
ATOM     36  O   UNL     1     115.033 131.567 141.068  0.00  0.00    +0.000 OA
ATOM     37  O   UNL     1     113.747 131.564 142.102  0.00  0.00    +0.000 OA
ATOM     38  C   UNL     1     113.997 129.755 140.432  0.00  0.00    +0.000 C 
ATOM     39  C   UNL     1     114.557 130.359 140.471  0.00  0.00    +0.000 C 
ATOM     40  C   UNL     1     114.474 130.962 141.028  0.00  0.00    +0.000 C 
ATOM     41  C   UNL     1     113.830 130.961 141.545  0.00  0.00    +0.000 C 
ATOM     42  C   UNL     1     113.271 130.356 141.505  0.00  0.00    +0.000 C 
ATOM     43  C   UNL     1     112.628 130.355 142.023  0.00  0.00    +0.000 C 
ENDBRANCH  33  38
ENDBRANCH  26  33
ENDBRANCH  22  29
ENDBRANCH   4  22
BRANCH   9  44
ATOM     44  C   UNL     1     110.214 130.275 138.065  0.00  0.00    +0.000 C 
BRANCH  44  45
ATOM     45  C   UNL     1     110.272 130.390 138.880  0.00  0.00    +0.000 C 
BRANCH  45  46
ATOM     46  C   UNL     1     109.744 130.895 139.264  0.00  0.00    +0.000 C 
ATOM     47  C   UNL     1     109.894 131.706 139.292  0.00  0.00    +0.000 C 
ATOM     48  C   UNL     1     109.066 130.590 139.620  0.00  0.00    +0.000 C 
ENDBRANCH  45  46
ENDBRANCH  44  45
ENDBRANCH   9  44
TORSDOF 9
ENDMDL
MODEL 4
REMARK VINA RESULT:      -9.6      1.887      4.803
REMARK  Name = 44258245
REMARK  9 active torsions:
REMARK  status: ('A' for Active; 'I' for Inactive)
REMARK    1  A    between atoms: O_1  and  C_17
REMARK    2  A    between atoms: O_1  and  C_20
REMARK    3  A    between atoms: O_4  and  C_21
REMARK    4  A    between atoms: O_4  and  C_29
REMARK    5  A    between atoms: C_22  and  C_27
REMARK    6  A    between atoms: C_34  and  C_35
REMARK    7  A    between atoms: C_35  and  C_36
REMARK    8  A    between atoms: C_36  and  C_40
REMARK    9  A    between atoms: C_38  and  C_41
REMARK                            x       y       z     vdW  Elec       q    Type
REMARK                         _______ _______ _______ _____ _____    ______ ____
ROOT
ATOM      1  O   UNL     1     112.766 126.564 138.189  0.00  0.00    +0.000 OA
ATOM      2  O   UNL     1     111.453 128.119 136.782  0.00  0.00    +0.000 OA
ATOM      3  O   UNL     1     113.529 128.760 139.942  0.00  0.00    +0.000 OA
ATOM      4  C   UNL     1     112.250 128.721 138.103  0.00  0.00    +0.000 A 
ATOM      5  C   UNL     1     112.294 127.883 137.913  0.00  0.00    +0.000 A 
ATOM      6  C   UNL     1     112.668 129.021 138.791  0.00  0.00    +0.000 A 
ATOM      7  C   UNL     1     112.732 127.365 138.382  0.00  0.00    +0.000 A 
ATOM      8  C   UNL     1     111.891 127.601 137.251  0.00  0.00    +0.000 A 
ATOM      9  C   UNL     1     111.925 126.799 137.058  0.00  0.00    +0.000 A 
ATOM     10  C   UNL     1     113.124 128.481 139.279  0.00  0.00    +0.000 A 
ATOM     11  C   UNL     1     112.363 126.281 137.527  0.00  0.00    +0.000 A 
ATOM     12  C   UNL     1     113.156 127.647 139.073  0.00  0.00    +0.000 A 
ENDROOT
BRANCH  11  16
ATOM     13  O   UNL     1     111.352 123.623 137.806  0.00  0.00    +0.000 OA
ATOM     14  O   UNL     1     113.581 124.130 136.091  0.00  0.00    +0.000 OA
ATOM     15  O   UNL     1     112.500 123.075 136.756  0.00  0.00    +0.000 OA
ATOM     16  C   UNL     1     112.397 125.480 137.334  0.00  0.00    +0.000 A 
ATOM     17  C   UNL     1     112.971 125.205 136.809  0.00  0.00    +0.000 A 
ATOM     18  C   UNL     1     111.857 124.952 137.666  0.00  0.00    +0.000 A 
ATOM     19  C   UNL     1     111.891 124.150 137.474  0.00  0.00    +0.000 A 
ATOM     20  C   UNL     1     113.006 124.404 136.617  0.00  0.00    +0.000 A 
ATOM     21  C   UNL     1     112.466 123.876 136.949  0.00  0.00    +0.000 A 
ENDBRANCH  11  16
BRANCH   4  22
ATOM     22  O   UNL     1     111.810 129.232 137.628  0.00  0.00    +0.000 OA
BRANCH  22  29
ATOM     23  O   UNL     1     112.858 129.974 137.001  0.00  0.00    +0.000 OA
ATOM     24  O   UNL     1     111.642 132.080 137.460  0.00  0.00    +0.000 OA
ATOM     25  O   UNL     1     113.096 132.120 136.680  0.00  0.00    +0.000 OA
ATOM     26  C   UNL     1     111.726 130.655 137.544  0.00  0.00    +0.000 C 
ATOM     27  C   UNL     1     112.047 131.378 137.307  0.00  0.00    +0.000 C 
ATOM     28  C   UNL     1     112.774 131.397 136.917  0.00  0.00    +0.000 C 
ATOM     29  C   UNL     1     112.131 129.953 137.391  0.00  0.00    +0.000 C 
ATOM     30  C   UNL     1     113.180 130.695 136.765  0.00  0.00    +0.000 C 
BRANCH  30  32
ATOM     31  O   UNL     1     114.080 130.157 135.794  0.00  0.00    +0.000 OA
ATOM     32  C   UNL     1     113.907 130.716 136.375  0.00  0.00    +0.000 C 
ENDBRANCH  30  32
BRANCH  26  33
ATOM     33  O   UNL     1     110.999 130.636 137.934  0.00  0.00    +0.000 OA
BRANCH  33  38
ATOM     34  O   UNL     1     110.300 130.617 136.688  0.00  0.00    +0.000 OA
ATOM     35  O   UNL     1     109.596 131.016 138.715  0.00  0.00    +0.000 OA
ATOM     36  O   UNL     1     108.196 131.187 137.860  0.00  0.00    +0.000 OA
ATOM     37  O   UNL     1     108.198 130.978 136.223  0.00  0.00    +0.000 OA
ATOM     38  C   UNL     1     110.299 130.722 137.506  0.00  0.00    +0.000 C 
ATOM     39  C   UNL     1     109.598 130.912 137.897  0.00  0.00    +0.000 C 
ATOM     40  C   UNL     1     108.897 130.997 137.470  0.00  0.00    +0.000 C 
ATOM     41  C   UNL     1     108.898 130.892 136.651  0.00  0.00    +0.000 C 
ATOM     42  C   UNL     1     109.600 130.702 136.261  0.00  0.00    +0.000 C 
ATOM     43  C   UNL     1     109.600 130.598 135.442  0.00  0.00    +0.000 C 
ENDBRANCH  33  38
ENDBRANCH  26  33
ENDBRANCH  22  29
ENDBRANCH   4  22
BRANCH   9  44
ATOM     44  C   UNL     1     111.522 126.516 136.397  0.00  0.00    +0.000 C 
BRANCH  44  45
ATOM     45  C   UNL     1     110.932 126.974 136.046  0.00  0.00    +0.000 C 
BRANCH  45  46
ATOM     46  C   UNL     1     110.511 126.679 135.400  0.00  0.00    +0.000 C 
ATOM     47  C   UNL     1     109.767 126.341 135.512  0.00  0.00    +0.000 C 
ATOM     48  C   UNL     1     110.834 126.723 134.642  0.00  0.00    +0.000 C 
ENDBRANCH  45  46
ENDBRANCH  44  45
ENDBRANCH   9  44
TORSDOF 9
ENDMDL
MODEL 5
REMARK VINA RESULT:      -9.6      2.108      4.716
REMARK  Name = 44258245
REMARK  9 active torsions:
REMARK  status: ('A' for Active; 'I' for Inactive)
REMARK    1  A    between atoms: O_1  and  C_17
REMARK    2  A    between atoms: O_1  and  C_20
REMARK    3  A    between atoms: O_4  and  C_21
REMARK    4  A    between atoms: O_4  and  C_29
REMARK    5  A    between atoms: C_22  and  C_27
REMARK    6  A    between atoms: C_34  and  C_35
REMARK    7  A    between atoms: C_35  and  C_36
REMARK    8  A    between atoms: C_36  and  C_40
REMARK    9  A    between atoms: C_38  and  C_41
REMARK                            x       y       z     vdW  Elec       q    Type
REMARK                         _______ _______ _______ _____ _____    ______ ____
ROOT
ATOM      1  O   UNL     1     112.224 126.216 139.441  0.00  0.00    +0.000 OA
ATOM      2  O   UNL     1     111.906 128.548 138.673  0.00  0.00    +0.000 OA
ATOM      3  O   UNL     1     110.815 126.816 141.917  0.00  0.00    +0.000 OA
ATOM      4  C   UNL     1     111.304 128.107 140.152  0.00  0.00    +0.000 A 
ATOM      5  C   UNL     1     111.719 127.534 139.663  0.00  0.00    +0.000 A 
ATOM      6  C   UNL     1     110.997 127.866 140.917  0.00  0.00    +0.000 A 
ATOM      7  C   UNL     1     111.825 126.757 139.919  0.00  0.00    +0.000 A 
ATOM      8  C   UNL     1     112.012 127.771 138.929  0.00  0.00    +0.000 A 
ATOM      9  C   UNL     1     112.412 127.230 138.450  0.00  0.00    +0.000 A 
ATOM     10  C   UNL     1     111.107 127.056 141.183  0.00  0.00    +0.000 A 
ATOM     11  C   UNL     1     112.518 126.453 138.706  0.00  0.00    +0.000 A 
ATOM     12  C   UNL     1     111.524 126.498 140.681  0.00  0.00    +0.000 A 
ENDROOT
BRANCH  11  16
ATOM     13  O   UNL     1     112.478 124.445 136.673  0.00  0.00    +0.000 OA
ATOM     14  O   UNL     1     114.955 125.218 137.869  0.00  0.00    +0.000 OA
ATOM     15  O   UNL     1     114.116 124.291 136.792  0.00  0.00    +0.000 OA
ATOM     16  C   UNL     1     112.917 125.913 138.228  0.00  0.00    +0.000 A 
ATOM     17  C   UNL     1     113.736 125.835 138.287  0.00  0.00    +0.000 A 
ATOM     18  C   UNL     1     112.498 125.449 137.690  0.00  0.00    +0.000 A 
ATOM     19  C   UNL     1     112.897 124.908 137.211  0.00  0.00    +0.000 A 
ATOM     20  C   UNL     1     114.136 125.295 137.809  0.00  0.00    +0.000 A 
ATOM     21  C   UNL     1     113.717 124.831 137.271  0.00  0.00    +0.000 A 
ENDBRANCH  11  16
BRANCH   4  22
ATOM     22  O   UNL     1     111.202 128.882 139.888  0.00  0.00    +0.000 OA
BRANCH  22  29
ATOM     23  O   UNL     1     112.065 129.579 140.789  0.00  0.00    +0.000 OA
ATOM     24  O   UNL     1     110.303 131.276 141.163  0.00  0.00    +0.000 OA
ATOM     25  O   UNL     1     111.753 131.407 141.940  0.00  0.00    +0.000 OA
ATOM     26  C   UNL     1     110.753 130.078 140.526  0.00  0.00    +0.000 C 
ATOM     27  C   UNL     1     110.890 130.710 141.039  0.00  0.00    +0.000 C 
ATOM     28  C   UNL     1     111.615 130.775 141.427  0.00  0.00    +0.000 C 
ATOM     29  C   UNL     1     111.340 129.513 140.401  0.00  0.00    +0.000 C 
ATOM     30  C   UNL     1     112.203 130.210 141.302  0.00  0.00    +0.000 C 
BRANCH  30  32
ATOM     31  O   UNL     1     113.628 130.105 141.290  0.00  0.00    +0.000 OA
ATOM     32  C   UNL     1     112.928 130.276 141.691  0.00  0.00    +0.000 C 
ENDBRANCH  30  32
BRANCH  26  33
ATOM     33  O   UNL     1     110.027 130.013 140.138  0.00  0.00    +0.000 OA
BRANCH  33  38
ATOM     34  O   UNL     1     110.479 130.866 139.085  0.00  0.00    +0.000 OA
ATOM     35  O   UNL     1     108.470 130.212 139.631  0.00  0.00    +0.000 OA
ATOM     36  O   UNL     1     108.143 131.165 138.324  0.00  0.00    +0.000 OA
ATOM     37  O   UNL     1     109.374 131.919 137.525  0.00  0.00    +0.000 OA
ATOM     38  C   UNL     1     109.864 130.490 139.484  0.00  0.00    +0.000 C 
ATOM     39  C   UNL     1     109.085 130.589 139.231  0.00  0.00    +0.000 C 
ATOM     40  C   UNL     1     108.922 131.065 138.578  0.00  0.00    +0.000 C 
ATOM     41  C   UNL     1     109.537 131.443 138.178  0.00  0.00    +0.000 C 
ATOM     42  C   UNL     1     110.316 131.343 138.432  0.00  0.00    +0.000 C 
ATOM     43  C   UNL     1     110.931 131.720 138.032  0.00  0.00    +0.000 C 
ENDBRANCH  33  38
ENDBRANCH  26  33
ENDBRANCH  22  29
ENDBRANCH   4  22
BRANCH   9  44
ATOM     44  C   UNL     1     112.705 127.466 137.717  0.00  0.00    +0.000 C 
BRANCH  44  45
ATOM     45  C   UNL     1     112.488 128.197 137.402  0.00  0.00    +0.000 C 
BRANCH  45  46
ATOM     46  C   UNL     1     112.767 128.425 136.659  0.00  0.00    +0.000 C 
ATOM     47  C   UNL     1     113.520 128.753 136.584  0.00  0.00    +0.000 C 
ATOM     48  C   UNL     1     112.292 128.326 135.992  0.00  0.00    +0.000 C 
ENDBRANCH  45  46
ENDBRANCH  44  45
ENDBRANCH   9  44
TORSDOF 9
ENDMDL
MODEL 6
REMARK VINA RESULT:      -9.4      2.277      4.274
REMARK  Name = 44258245
REMARK  9 active torsions:
REMARK  status: ('A' for Active; 'I' for Inactive)
REMARK    1  A    between atoms: O_1  and  C_17
REMARK    2  A    between atoms: O_1  and  C_20
REMARK    3  A    between atoms: O_4  and  C_21
REMARK    4  A    between atoms: O_4  and  C_29
REMARK    5  A    between atoms: C_22  and  C_27
REMARK    6  A    between atoms: C_34  and  C_35
REMARK    7  A    between atoms: C_35  and  C_36
REMARK    8  A    between atoms: C_36  and  C_40
REMARK    9  A    between atoms: C_38  and  C_41
REMARK                            x       y       z     vdW  Elec       q    Type
REMARK                         _______ _______ _______ _____ _____    ______ ____
ROOT
ATOM      1  O   UNL     1     111.607 126.321 138.454  0.00  0.00    +0.000 OA
ATOM      2  O   UNL     1     111.472 128.645 137.612  0.00  0.00    +0.000 OA
ATOM      3  O   UNL     1     109.048 126.639 139.804  0.00  0.00    +0.000 OA
ATOM      4  C   UNL     1     110.238 128.065 138.553  0.00  0.00    +0.000 A 
ATOM      5  C   UNL     1     110.912 127.565 138.362  0.00  0.00    +0.000 A 
ATOM      6  C   UNL     1     109.605 127.753 139.042  0.00  0.00    +0.000 A 
ATOM      7  C   UNL     1     110.957 126.791 138.643  0.00  0.00    +0.000 A 
ATOM      8  C   UNL     1     111.517 127.870 137.893  0.00  0.00    +0.000 A 
ATOM      9  C   UNL     1     112.169 127.400 137.703  0.00  0.00    +0.000 A 
ATOM     10  C   UNL     1     109.652 126.947 139.334  0.00  0.00    +0.000 A 
ATOM     11  C   UNL     1     112.214 126.626 137.983  0.00  0.00    +0.000 A 
ATOM     12  C   UNL     1     110.332 126.462 139.133  0.00  0.00    +0.000 A 
ENDROOT
BRANCH  11  16
ATOM     13  O   UNL     1     114.853 125.702 138.570  0.00  0.00    +0.000 OA
ATOM     14  O   UNL     1     113.480 124.731 136.260  0.00  0.00    +0.000 OA
ATOM     15  O   UNL     1     114.818 124.746 137.225  0.00  0.00    +0.000 OA
ATOM     16  C   UNL     1     112.864 126.156 137.794  0.00  0.00    +0.000 A 
ATOM     17  C   UNL     1     112.847 125.678 137.122  0.00  0.00    +0.000 A 
ATOM     18  C   UNL     1     113.533 126.164 138.277  0.00  0.00    +0.000 A 
ATOM     19  C   UNL     1     114.185 125.694 138.088  0.00  0.00    +0.000 A 
ATOM     20  C   UNL     1     113.498 125.208 136.932  0.00  0.00    +0.000 A 
ATOM     21  C   UNL     1     114.167 125.216 137.415  0.00  0.00    +0.000 A 
ENDBRANCH  11  16
BRANCH   4  22
ATOM     22  O   UNL     1     110.202 128.839 138.268  0.00  0.00    +0.000 OA
BRANCH  22  29
ATOM     23  O   UNL     1     110.351 129.584 139.478  0.00  0.00    +0.000 OA
ATOM     24  O   UNL     1     108.439 131.017 138.831  0.00  0.00    +0.000 OA
ATOM     25  O   UNL     1     109.225 131.284 140.257  0.00  0.00    +0.000 OA
ATOM     26  C   UNL     1     109.321 129.927 138.549  0.00  0.00    +0.000 C 
ATOM     27  C   UNL     1     109.076 130.539 139.047  0.00  0.00    +0.000 C 
ATOM     28  C   UNL     1     109.470 130.672 139.760  0.00  0.00    +0.000 C 
ATOM     29  C   UNL     1     109.958 129.450 138.765  0.00  0.00    +0.000 C 
ATOM     30  C   UNL     1     110.107 130.195 139.975  0.00  0.00    +0.000 C 
BRANCH  30  32
ATOM     31  O   UNL     1     111.323 130.333 140.712  0.00  0.00    +0.000 OA
ATOM     32  C   UNL     1     110.499 130.329 140.689  0.00  0.00    +0.000 C 
ENDBRANCH  30  32
BRANCH  26  33
ATOM     33  O   UNL     1     108.928 129.794 137.837  0.00  0.00    +0.000 OA
BRANCH  33  38
ATOM     34  O   UNL     1     109.721 130.796 137.200  0.00  0.00    +0.000 OA
ATOM     35  O   UNL     1     107.979 129.690 136.490  0.00  0.00    +0.000 OA
ATOM     36  O   UNL     1     108.300 130.640 135.180  0.00  0.00    +0.000 OA
ATOM     37  O   UNL     1     109.568 131.695 135.216  0.00  0.00    +0.000 OA
ATOM     38  C   UNL     1     109.088 130.269 137.181  0.00  0.00    +0.000 C 
ATOM     39  C   UNL     1     108.613 130.216 136.508  0.00  0.00    +0.000 C 
ATOM     40  C   UNL     1     108.773 130.692 135.853  0.00  0.00    +0.000 C 
ATOM     41  C   UNL     1     109.408 131.220 135.871  0.00  0.00    +0.000 C 
ATOM     42  C   UNL     1     109.881 131.271 136.544  0.00  0.00    +0.000 C 
ATOM     43  C   UNL     1     110.516 131.799 136.562  0.00  0.00    +0.000 C 
ENDBRANCH  33  38
ENDBRANCH  26  33
ENDBRANCH  22  29
ENDBRANCH   4  22
BRANCH   9  44
ATOM     44  C   UNL     1     112.774 127.704 137.233  0.00  0.00    +0.000 C 
BRANCH  44  45
ATOM     45  C   UNL     1     112.675 128.427 136.849  0.00  0.00    +0.000 C 
BRANCH  45  46
ATOM     46  C   UNL     1     113.282 128.732 136.380  0.00  0.00    +0.000 C 
ATOM     47  C   UNL     1     113.285 128.593 135.566  0.00  0.00    +0.000 C 
ATOM     48  C   UNL     1     113.885 129.176 136.724  0.00  0.00    +0.000 C 
ENDBRANCH  45  46
ENDBRANCH  44  45
ENDBRANCH   9  44
TORSDOF 9
ENDMDL
MODEL 7
REMARK VINA RESULT:      -9.4      2.166      5.269
REMARK  Name = 44258245
REMARK  9 active torsions:
REMARK  status: ('A' for Active; 'I' for Inactive)
REMARK    1  A    between atoms: O_1  and  C_17
REMARK    2  A    between atoms: O_1  and  C_20
REMARK    3  A    between atoms: O_4  and  C_21
REMARK    4  A    between atoms: O_4  and  C_29
REMARK    5  A    between atoms: C_22  and  C_27
REMARK    6  A    between atoms: C_34  and  C_35
REMARK    7  A    between atoms: C_35  and  C_36
REMARK    8  A    between atoms: C_36  and  C_40
REMARK    9  A    between atoms: C_38  and  C_41
REMARK                            x       y       z     vdW  Elec       q    Type
REMARK                         _______ _______ _______ _____ _____    ______ ____
ROOT
ATOM      1  O   UNL     1     111.610 126.845 136.096  0.00  0.00    +0.000 OA
ATOM      2  O   UNL     1     111.710 128.297 138.098  0.00  0.00    +0.000 OA
ATOM      3  O   UNL     1     110.250 128.948 134.612  0.00  0.00    +0.000 OA
ATOM      4  C   UNL     1     111.000 128.885 136.722  0.00  0.00    +0.000 A 
ATOM      5  C   UNL     1     111.327 128.089 136.737  0.00  0.00    +0.000 A 
ATOM      6  C   UNL     1     110.634 129.179 136.003  0.00  0.00    +0.000 A 
ATOM      7  C   UNL     1     111.293 127.606 136.069  0.00  0.00    +0.000 A 
ATOM      8  C   UNL     1     111.677 127.813 137.430  0.00  0.00    +0.000 A 
ATOM      9  C   UNL     1     111.994 127.051 137.457  0.00  0.00    +0.000 A 
ATOM     10  C   UNL     1     110.599 128.674 135.308  0.00  0.00    +0.000 A 
ATOM     11  C   UNL     1     111.961 126.568 136.790  0.00  0.00    +0.000 A 
ATOM     12  C   UNL     1     110.931 127.883 135.342  0.00  0.00    +0.000 A 
ENDROOT
BRANCH  11  16
ATOM     13  O   UNL     1     114.174 124.795 136.438  0.00  0.00    +0.000 OA
ATOM     14  O   UNL     1     111.649 123.773 137.300  0.00  0.00    +0.000 OA
ATOM     15  O   UNL     1     113.229 123.523 136.895  0.00  0.00    +0.000 OA
ATOM     16  C   UNL     1     112.278 125.807 136.816  0.00  0.00    +0.000 A 
ATOM     17  C   UNL     1     111.805 125.170 137.045  0.00  0.00    +0.000 A 
ATOM     18  C   UNL     1     113.068 125.681 136.614  0.00  0.00    +0.000 A 
ATOM     19  C   UNL     1     113.385 124.920 136.640  0.00  0.00    +0.000 A 
ATOM     20  C   UNL     1     112.122 124.409 137.071  0.00  0.00    +0.000 A 
ATOM     21  C   UNL     1     112.912 124.284 136.869  0.00  0.00    +0.000 A 
ENDBRANCH  11  16
BRANCH   4  22
ATOM     22  O   UNL     1     111.038 129.362 137.394  0.00  0.00    +0.000 OA
BRANCH  22  29
ATOM     23  O   UNL     1     112.064 130.296 137.056  0.00  0.00    +0.000 OA
ATOM     24  O   UNL     1     110.576 132.165 137.701  0.00  0.00    +0.000 OA
ATOM     25  O   UNL     1     112.099 132.477 137.148  0.00  0.00    +0.000 OA
ATOM     26  C   UNL     1     110.807 130.763 137.548  0.00  0.00    +0.000 C 
ATOM     27  C   UNL     1     111.072 131.542 137.486  0.00  0.00    +0.000 C 
ATOM     28  C   UNL     1     111.833 131.697 137.210  0.00  0.00    +0.000 C 
ATOM     29  C   UNL     1     111.303 130.140 137.333  0.00  0.00    +0.000 C 
ATOM     30  C   UNL     1     112.330 131.074 136.995  0.00  0.00    +0.000 C 
BRANCH  30  32
ATOM     31  O   UNL     1     113.726 130.772 136.975  0.00  0.00    +0.000 OA
ATOM     32  C   UNL     1     113.091 131.231 136.718  0.00  0.00    +0.000 C 
ENDBRANCH  30  32
BRANCH  26  33
ATOM     33  O   UNL     1     110.045 130.608 137.824  0.00  0.00    +0.000 OA
BRANCH  33  38
ATOM     34  O   UNL     1     110.482 130.645 139.184  0.00  0.00    +0.000 OA
ATOM     35  O   UNL     1     108.487 130.832 138.319  0.00  0.00    +0.000 OA
ATOM     36  O   UNL     1     108.146 130.980 139.927  0.00  0.00    +0.000 OA
ATOM     37  O   UNL     1     109.362 130.905 141.039  0.00  0.00    +0.000 OA
ATOM     38  C   UNL     1     109.874 130.682 138.628  0.00  0.00    +0.000 C 
ATOM     39  C   UNL     1     109.095 130.794 138.875  0.00  0.00    +0.000 C 
ATOM     40  C   UNL     1     108.924 130.869 139.679  0.00  0.00    +0.000 C 
ATOM     41  C   UNL     1     109.533 130.831 140.235  0.00  0.00    +0.000 C 
ATOM     42  C   UNL     1     110.312 130.719 139.987  0.00  0.00    +0.000 C 
ATOM     43  C   UNL     1     110.920 130.682 140.544  0.00  0.00    +0.000 C 
ENDBRANCH  33  38
ENDBRANCH  26  33
ENDBRANCH  22  29
ENDBRANCH   4  22
BRANCH   9  44
ATOM     44  C   UNL     1     112.344 126.774 138.150  0.00  0.00    +0.000 C 
BRANCH  44  45
ATOM     45  C   UNL     1     112.352 127.247 138.826  0.00  0.00    +0.000 C 
BRANCH  45  46
ATOM     46  C   UNL     1     112.691 126.964 139.523  0.00  0.00    +0.000 C 
ATOM     47  C   UNL     1     112.224 126.580 140.084  0.00  0.00    +0.000 C 
ATOM     48  C   UNL     1     113.498 127.065 139.660  0.00  0.00    +0.000 C 
ENDBRANCH  45  46
ENDBRANCH  44  45
ENDBRANCH   9  44
TORSDOF 9
ENDMDL
MODEL 8
REMARK VINA RESULT:      -9.4      2.175      5.380
REMARK  Name = 44258245
REMARK  9 active torsions:
REMARK  status: ('A' for Active; 'I' for Inactive)
REMARK    1  A    between atoms: O_1  and  C_17
REMARK    2  A    between atoms: O_1  and  C_20
REMARK    3  A    between atoms: O_4  and  C_21
REMARK    4  A    between atoms: O_4  and  C_29
REMARK    5  A    between atoms: C_22  and  C_27
REMARK    6  A    between atoms: C_34  and  C_35
REMARK    7  A    between atoms: C_35  and  C_36
REMARK    8  A    between atoms: C_36  and  C_40
REMARK    9  A    between atoms: C_38  and  C_41
REMARK                            x       y       z     vdW  Elec       q    Type
REMARK                         _______ _______ _______ _____ _____    ______ ____
ROOT
ATOM      1  O   UNL     1     109.443 131.467 137.787  0.00  0.00    +0.000 OA
ATOM      2  O   UNL     1     110.800 129.422 137.465  0.00  0.00    +0.000 OA
ATOM      3  O   UNL     1     110.451 131.733 140.505  0.00  0.00    +0.000 OA
ATOM      4  C   UNL     1     110.871 130.204 138.923  0.00  0.00    +0.000 A 
ATOM      5  C   UNL     1     110.371 130.506 138.292  0.00  0.00    +0.000 A 
ATOM      6  C   UNL     1     110.900 130.619 139.675  0.00  0.00    +0.000 A 
ATOM      7  C   UNL     1     109.919 131.188 138.400  0.00  0.00    +0.000 A 
ATOM      8  C   UNL     1     110.348 130.104 137.572  0.00  0.00    +0.000 A 
ATOM      9  C   UNL     1     109.871 130.383 136.959  0.00  0.00    +0.000 A 
ATOM     10  C   UNL     1     110.429 131.328 139.786  0.00  0.00    +0.000 A 
ATOM     11  C   UNL     1     109.419 131.065 137.066  0.00  0.00    +0.000 A 
ATOM     12  C   UNL     1     109.935 131.615 139.144  0.00  0.00    +0.000 A 
ENDROOT
BRANCH  11  16
ATOM     13  O   UNL     1     106.891 131.148 135.737  0.00  0.00    +0.000 OA
ATOM     14  O   UNL     1     109.091 132.660 134.717  0.00  0.00    +0.000 OA
ATOM     15  O   UNL     1     107.514 132.183 134.614  0.00  0.00    +0.000 OA
ATOM     16  C   UNL     1     108.943 131.345 136.454  0.00  0.00    +0.000 A 
ATOM     17  C   UNL     1     109.254 131.862 135.892  0.00  0.00    +0.000 A 
ATOM     18  C   UNL     1     108.155 131.107 136.402  0.00  0.00    +0.000 A 
ATOM     19  C   UNL     1     107.678 131.386 135.789  0.00  0.00    +0.000 A 
ATOM     20  C   UNL     1     108.779 132.142 135.279  0.00  0.00    +0.000 A 
ATOM     21  C   UNL     1     107.990 131.904 135.227  0.00  0.00    +0.000 A 
ENDBRANCH  11  16
BRANCH   4  22
ATOM     22  O   UNL     1     111.320 129.522 138.807  0.00  0.00    +0.000 OA
BRANCH  22  29
ATOM     23  O   UNL     1     112.651 130.043 138.824  0.00  0.00    +0.000 OA
ATOM     24  O   UNL     1     113.323 128.275 140.420  0.00  0.00    +0.000 OA
ATOM     25  O   UNL     1     114.429 129.386 139.905  0.00  0.00    +0.000 OA
ATOM     26  C   UNL     1     112.321 128.898 139.613  0.00  0.00    +0.000 C 
ATOM     27  C   UNL     1     113.099 128.864 139.888  0.00  0.00    +0.000 C 
ATOM     28  C   UNL     1     113.651 129.420 139.631  0.00  0.00    +0.000 C 
ATOM     29  C   UNL     1     112.097 129.488 139.081  0.00  0.00    +0.000 C 
ATOM     30  C   UNL     1     113.427 130.009 139.099  0.00  0.00    +0.000 C 
BRANCH  30  32
ATOM     31  O   UNL     1     113.979 130.818 138.057  0.00  0.00    +0.000 OA
ATOM     32  C   UNL     1     113.981 130.564 138.842  0.00  0.00    +0.000 C 
ENDBRANCH  30  32
BRANCH  26  33
ATOM     33  O   UNL     1     111.768 128.343 139.871  0.00  0.00    +0.000 OA
BRANCH  33  38
ATOM     34  O   UNL     1     112.198 127.431 138.859  0.00  0.00    +0.000 OA
ATOM     35  O   UNL     1     110.838 127.158 140.544  0.00  0.00    +0.000 OA
ATOM     36  O   UNL     1     110.802 125.653 139.867  0.00  0.00    +0.000 OA
ATOM     37  O   UNL     1     111.697 125.334 138.518  0.00  0.00    +0.000 OA
ATOM     38  C   UNL     1     111.751 127.590 139.533  0.00  0.00    +0.000 C 
ATOM     39  C   UNL     1     111.285 126.998 139.870  0.00  0.00    +0.000 C 
ATOM     40  C   UNL     1     111.267 126.246 139.531  0.00  0.00    +0.000 C 
ATOM     41  C   UNL     1     111.715 126.086 138.856  0.00  0.00    +0.000 C 
ATOM     42  C   UNL     1     112.180 126.679 138.520  0.00  0.00    +0.000 C 
ATOM     43  C   UNL     1     112.627 126.519 137.845  0.00  0.00    +0.000 C 
ENDBRANCH  33  38
ENDBRANCH  26  33
ENDBRANCH  22  29
ENDBRANCH   4  22
BRANCH   9  44
ATOM     44  C   UNL     1     109.847 129.982 136.239  0.00  0.00    +0.000 C 
BRANCH  44  45
ATOM     45  C   UNL     1     110.240 129.261 136.155  0.00  0.00    +0.000 C 
BRANCH  45  46
ATOM     46  C   UNL     1     110.207 128.855 135.438  0.00  0.00    +0.000 C 
ATOM     47  C   UNL     1     110.742 129.035 134.836  0.00  0.00    +0.000 C 
ATOM     48  C   UNL     1     109.639 128.268 135.321  0.00  0.00    +0.000 C 
ENDBRANCH  45  46
ENDBRANCH  44  45
ENDBRANCH   9  44
TORSDOF 9
ENDMDL
MODEL 9
REMARK VINA RESULT:      -9.3      2.466      4.773
REMARK  Name = 44258245
REMARK  9 active torsions:
REMARK  status: ('A' for Active; 'I' for Inactive)
REMARK    1  A    between atoms: O_1  and  C_17
REMARK    2  A    between atoms: O_1  and  C_20
REMARK    3  A    between atoms: O_4  and  C_21
REMARK    4  A    between atoms: O_4  and  C_29
REMARK    5  A    between atoms: C_22  and  C_27
REMARK    6  A    between atoms: C_34  and  C_35
REMARK    7  A    between atoms: C_35  and  C_36
REMARK    8  A    between atoms: C_36  and  C_40
REMARK    9  A    between atoms: C_38  and  C_41
REMARK                            x       y       z     vdW  Elec       q    Type
REMARK                         _______ _______ _______ _____ _____    ______ ____
ROOT
ATOM      1  O   UNL     1     113.051 128.359 138.087  0.00  0.00    +0.000 OA
ATOM      2  O   UNL     1     110.863 128.893 137.060  0.00  0.00    +0.000 OA
ATOM      3  O   UNL     1     112.917 130.789 139.685  0.00  0.00    +0.000 OA
ATOM      4  C   UNL     1     111.491 129.935 138.183  0.00  0.00    +0.000 A 
ATOM      5  C   UNL     1     111.920 129.223 137.964  0.00  0.00    +0.000 A 
ATOM      6  C   UNL     1     111.827 130.468 138.767  0.00  0.00    +0.000 A 
ATOM      7  C   UNL     1     112.649 129.046 138.306  0.00  0.00    +0.000 A 
ATOM      8  C   UNL     1     111.592 128.715 137.403  0.00  0.00    +0.000 A 
ATOM      9  C   UNL     1     111.994 128.028 137.183  0.00  0.00    +0.000 A 
ATOM     10  C   UNL     1     112.587 130.283 139.123  0.00  0.00    +0.000 A 
ATOM     11  C   UNL     1     112.724 127.851 137.526  0.00  0.00    +0.000 A 
ATOM     12  C   UNL     1     113.000 129.567 138.891  0.00  0.00    +0.000 A 
ENDROOT
BRANCH  11  16
ATOM     13  O   UNL     1     114.654 126.530 135.883  0.00  0.00    +0.000 OA
ATOM     14  O   UNL     1     113.205 125.052 137.854  0.00  0.00    +0.000 OA
ATOM     15  O   UNL     1     114.332 125.105 136.649  0.00  0.00    +0.000 OA
ATOM     16  C   UNL     1     113.125 127.165 137.307  0.00  0.00    +0.000 A 
ATOM     17  C   UNL     1     112.965 126.452 137.689  0.00  0.00    +0.000 A 
ATOM     18  C   UNL     1     113.689 127.190 136.705  0.00  0.00    +0.000 A 
ATOM     19  C   UNL     1     114.091 126.504 136.485  0.00  0.00    +0.000 A 
ATOM     20  C   UNL     1     113.366 125.765 137.470  0.00  0.00    +0.000 A 
ATOM     21  C   UNL     1     113.930 125.791 136.868  0.00  0.00    +0.000 A 
ENDBRANCH  11  16
BRANCH   4  22
ATOM     22  O   UNL     1     110.762 130.105 137.836  0.00  0.00    +0.000 OA
BRANCH  22  29
ATOM     23  O   UNL     1     109.884 129.888 138.942  0.00  0.00    +0.000 OA
ATOM     24  O   UNL     1     108.721 132.013 138.436  0.00  0.00    +0.000 OA
ATOM     25  O   UNL     1     108.230 131.087 139.710  0.00  0.00    +0.000 OA
ATOM     26  C   UNL     1     109.742 131.059 138.136  0.00  0.00    +0.000 C 
ATOM     27  C   UNL     1     109.109 131.305 138.604  0.00  0.00    +0.000 C 
ATOM     28  C   UNL     1     108.864 130.841 139.241  0.00  0.00    +0.000 C 
ATOM     29  C   UNL     1     110.130 130.350 138.304  0.00  0.00    +0.000 C 
ATOM     30  C   UNL     1     109.251 130.133 139.410  0.00  0.00    +0.000 C 
BRANCH  30  32
ATOM     31  O   UNL     1     108.885 128.861 139.948  0.00  0.00    +0.000 OA
ATOM     32  C   UNL     1     109.005 129.670 140.048  0.00  0.00    +0.000 C 
ENDBRANCH  30  32
BRANCH  26  33
ATOM     33  O   UNL     1     109.987 131.522 137.499  0.00  0.00    +0.000 OA
BRANCH  33  38
ATOM     34  O   UNL     1     109.044 130.897 136.627  0.00  0.00    +0.000 OA
ATOM     35  O   UNL     1     110.134 132.778 136.439  0.00  0.00    +0.000 OA
ATOM     36  O   UNL     1     109.264 132.781 135.037  0.00  0.00    +0.000 OA
ATOM     37  O   UNL     1     108.247 131.528 134.694  0.00  0.00    +0.000 OA
ATOM     38  C   UNL     1     109.552 131.524 136.798  0.00  0.00    +0.000 C 
ATOM     39  C   UNL     1     109.626 132.152 136.268  0.00  0.00    +0.000 C 
ATOM     40  C   UNL     1     109.191 132.154 135.567  0.00  0.00    +0.000 C 
ATOM     41  C   UNL     1     108.682 131.526 135.395  0.00  0.00    +0.000 C 
ATOM     42  C   UNL     1     108.609 130.899 135.926  0.00  0.00    +0.000 C 
ATOM     43  C   UNL     1     108.100 130.272 135.754  0.00  0.00    +0.000 C 
ENDBRANCH  33  38
ENDBRANCH  26  33
ENDBRANCH  22  29
ENDBRANCH   4  22
BRANCH   9  44
ATOM     44  C   UNL     1     111.668 127.520 136.623  0.00  0.00    +0.000 C 
BRANCH  44  45
ATOM     45  C   UNL     1     111.012 127.758 136.182  0.00  0.00    +0.000 C 
BRANCH  45  46
ATOM     46  C   UNL     1     110.695 127.255 135.610  0.00  0.00    +0.000 C 
ATOM     47  C   UNL     1     110.197 126.637 135.834  0.00  0.00    +0.000 C 
ATOM     48  C   UNL     1     110.875 127.370 134.813  0.00  0.00    +0.000 C 
ENDBRANCH  45  46
ENDBRANCH  44  45
ENDBRANCH   9  44
TORSDOF 9
ENDMDL
MODEL 10
REMARK VINA RESULT:      -9.3      8.160     10.252
REMARK  Name = 44258245
REMARK  9 active torsions:
REMARK  status: ('A' for Active; 'I' for Inactive)
REMARK    1  A    between atoms: O_1  and  C_17
REMARK    2  A    between atoms: O_1  and  C_20
REMARK    3  A    between atoms: O_4  and  C_21
REMARK    4  A    between atoms: O_4  and  C_29
REMARK    5  A    between atoms: C_22  and  C_27
REMARK    6  A    between atoms: C_34  and  C_35
REMARK    7  A    between atoms: C_35  and  C_36
REMARK    8  A    between atoms: C_36  and  C_40
REMARK    9  A    between atoms: C_38  and  C_41
REMARK                            x       y       z     vdW  Elec       q    Type
REMARK                         _______ _______ _______ _____ _____    ______ ____
ROOT
ATOM      1  O   UNL     1     103.220 129.932 141.481  0.00  0.00    +0.000 OA
ATOM      2  O   UNL     1     104.558 129.600 143.537  0.00  0.00    +0.000 OA
ATOM      3  O   UNL     1     104.178 127.394 140.423  0.00  0.00    +0.000 OA
ATOM      4  C   UNL     1     104.611 128.440 142.356  0.00  0.00    +0.000 A 
ATOM      5  C   UNL     1     104.126 129.143 142.253  0.00  0.00    +0.000 A 
ATOM      6  C   UNL     1     104.630 127.845 141.736  0.00  0.00    +0.000 A 
ATOM      7  C   UNL     1     103.680 129.253 141.568  0.00  0.00    +0.000 A 
ATOM      8  C   UNL     1     104.112 129.710 142.851  0.00  0.00    +0.000 A 
ATOM      9  C   UNL     1     103.651 130.390 142.765  0.00  0.00    +0.000 A 
ATOM     10  C   UNL     1     104.165 127.960 141.023  0.00  0.00    +0.000 A 
ATOM     11  C   UNL     1     103.205 130.500 142.080  0.00  0.00    +0.000 A 
ATOM     12  C   UNL     1     103.687 128.669 140.938  0.00  0.00    +0.000 A 
ENDROOT
BRANCH  11  16
ATOM     13  O   UNL     1     102.934 133.216 141.234  0.00  0.00    +0.000 OA
ATOM     14  O   UNL     1     100.710 131.857 142.405  0.00  0.00    +0.000 OA
ATOM     15  O   UNL     1     101.361 133.215 141.732  0.00  0.00    +0.000 OA
ATOM     16  C   UNL     1     102.744 131.178 141.993  0.00  0.00    +0.000 A 
ATOM     17  C   UNL     1     101.958 131.179 142.242  0.00  0.00    +0.000 A 
ATOM     18  C   UNL     1     103.069 131.858 141.657  0.00  0.00    +0.000 A 
ATOM     19  C   UNL     1     102.609 132.537 141.569  0.00  0.00    +0.000 A 
ATOM     20  C   UNL     1     101.497 131.857 142.155  0.00  0.00    +0.000 A 
ATOM     21  C   UNL     1     101.822 132.537 141.819  0.00  0.00    +0.000 A 
ENDBRANCH  11  16
BRANCH   4  22
ATOM     22  O   UNL     1     105.054 128.337 143.044  0.00  0.00    +0.000 OA
BRANCH  22  29
ATOM     23  O   UNL     1     106.373 128.513 142.524  0.00  0.00    +0.000 OA
ATOM     24  O   UNL     1     107.139 126.534 143.796  0.00  0.00    +0.000 OA
ATOM     25  O   UNL     1     108.203 127.369 142.851  0.00  0.00    +0.000 OA
ATOM     26  C   UNL     1     106.096 127.436 143.420  0.00  0.00    +0.000 C 
ATOM     27  C   UNL     1     106.883 127.193 143.372  0.00  0.00    +0.000 C 
ATOM     28  C   UNL     1     107.415 127.612 142.900  0.00  0.00    +0.000 C 
ATOM     29  C   UNL     1     105.840 128.096 142.996  0.00  0.00    +0.000 C 
ATOM     30  C   UNL     1     107.159 128.272 142.476  0.00  0.00    +0.000 C 
BRANCH  30  32
ATOM     31  O   UNL     1     107.653 129.512 141.965  0.00  0.00    +0.000 OA
ATOM     32  C   UNL     1     107.692 128.689 142.003  0.00  0.00    +0.000 C 
ENDBRANCH  30  32
BRANCH  26  33
ATOM     33  O   UNL     1     105.564 127.018 143.893  0.00  0.00    +0.000 OA
BRANCH  33  38
ATOM     34  O   UNL     1     105.930 127.768 145.051  0.00  0.00    +0.000 OA
ATOM     35  O   UNL     1     104.932 125.837 144.857  0.00  0.00    +0.000 OA
ATOM     36  O   UNL     1     104.982 125.999 146.498  0.00  0.00    +0.000 OA
ATOM     37  O   UNL     1     105.664 127.340 147.175  0.00  0.00    +0.000 OA
ATOM     38  C   UNL     1     105.589 127.098 144.713  0.00  0.00    +0.000 C 
ATOM     39  C   UNL     1     105.273 126.508 145.195  0.00  0.00    +0.000 C 
ATOM     40  C   UNL     1     105.298 126.588 146.016  0.00  0.00    +0.000 C 
ATOM     41  C   UNL     1     105.639 127.259 146.355  0.00  0.00    +0.000 C 
ATOM     42  C   UNL     1     105.955 127.849 145.872  0.00  0.00    +0.000 C 
ATOM     43  C   UNL     1     106.297 128.520 146.211  0.00  0.00    +0.000 C 
ENDBRANCH  33  38
ENDBRANCH  26  33
ENDBRANCH  22  29
ENDBRANCH   4  22
BRANCH   9  44
ATOM     44  C   UNL     1     103.636 130.957 143.362  0.00  0.00    +0.000 C 
BRANCH  44  45
ATOM     45  C   UNL     1     103.942 130.780 144.107  0.00  0.00    +0.000 C 
BRANCH  45  46
ATOM     46  C   UNL     1     103.938 131.353 144.702  0.00  0.00    +0.000 C 
ATOM     47  C   UNL     1     103.352 131.342 145.282  0.00  0.00    +0.000 C 
ATOM     48  C   UNL     1     104.521 131.937 144.716  0.00  0.00    +0.000 C 
ENDBRANCH  45  46
ENDBRANCH  44  45
ENDBRANCH   9  44
TORSDOF 9
ENDMDL
