MODEL 1
REMARK VINA RESULT:      -8.7      0.000      0.000
REMARK  Name = 44260066
REMARK  4 active torsions:
REMARK  status: ('A' for Active; 'I' for Inactive)
REMARK    1  A    between atoms: O_2  and  C_13
REMARK    2  A    between atoms: O_3  and  C_15
REMARK    3  A    between atoms: O_4  and  C_17
REMARK    4  A    between atoms: C_12  and  C_18
REMARK                            x       y       z     vdW  Elec       q    Type
REMARK                         _______ _______ _______ _____ _____    ______ ____
ROOT
ATOM      1  O   UNL     1     105.072 124.242 147.116  0.00  0.00    +0.000 OA
ATOM      2  O   UNL     1     107.392 125.632 146.084  0.00  0.00    +0.000 OA
ATOM      3  O   UNL     1     108.051 125.662 147.597  0.00  0.00    +0.000 OA
ATOM      4  O   UNL     1     106.330 125.274 145.176  0.00  0.00    +0.000 OA
ATOM      5  C   UNL     1     106.248 124.946 146.595  0.00  0.00    +0.000 A 
ATOM      6  C   UNL     1     105.840 124.610 147.230  0.00  0.00    +0.000 A 
ATOM      7  C   UNL     1     104.724 124.223 146.330  0.00  0.00    +0.000 A 
ATOM      8  C   UNL     1     106.170 124.625 147.986  0.00  0.00    +0.000 A 
ATOM      9  C   UNL     1     105.916 124.936 145.804  0.00  0.00    +0.000 A 
ATOM     10  C   UNL     1     105.149 124.573 145.669  0.00  0.00    +0.000 A 
ATOM     11  C   UNL     1     106.985 125.296 146.718  0.00  0.00    +0.000 A 
ATOM     12  C   UNL     1     106.906 124.975 148.109  0.00  0.00    +0.000 A 
ATOM     13  C   UNL     1     107.314 125.311 147.474  0.00  0.00    +0.000 A 
ENDROOT
BRANCH   7  16
ATOM     14  O   UNL     1     101.871 124.370 146.408  0.00  0.00    +0.000 OA
ATOM     15  O   UNL     1     101.776 122.819 145.853  0.00  0.00    +0.000 OA
ATOM     16  C   UNL     1     103.987 123.872 146.211  0.00  0.00    +0.000 A 
ATOM     17  C   UNL     1     103.297 124.296 146.369  0.00  0.00    +0.000 A 
ATOM     18  C   UNL     1     103.940 123.096 145.933  0.00  0.00    +0.000 A 
ATOM     19  C   UNL     1     102.561 123.946 146.250  0.00  0.00    +0.000 A 
ATOM     20  C   UNL     1     103.202 122.745 145.814  0.00  0.00    +0.000 A 
ATOM     21  C   UNL     1     102.513 123.169 145.972  0.00  0.00    +0.000 A 
ENDBRANCH   7  16
BRANCH   8  22
ATOM     22  O   UNL     1     105.762 124.289 148.620  0.00  0.00    +0.000 OA
ATOM     23  C   UNL     1     105.380 124.774 149.167  0.00  0.00    +0.000 C 
ENDBRANCH   8  22
BRANCH  10  24
ATOM     24  O   UNL     1     104.822 124.559 144.912  0.00  0.00    +0.000 OA
ATOM     25  C   UNL     1     105.313 124.597 144.250  0.00  0.00    +0.000 C 
ENDBRANCH  10  24
BRANCH  12  26
ATOM     26  O   UNL     1     107.236 124.991 148.865  0.00  0.00    +0.000 OA
ATOM     27  C   UNL     1     107.896 124.528 149.037  0.00  0.00    +0.000 C 
ENDBRANCH  12  26
TORSDOF 4
ENDMDL
MODEL 2
REMARK VINA RESULT:      -8.4      1.192      4.569
REMARK  Name = 44260066
REMARK  4 active torsions:
REMARK  status: ('A' for Active; 'I' for Inactive)
REMARK    1  A    between atoms: O_2  and  C_13
REMARK    2  A    between atoms: O_3  and  C_15
REMARK    3  A    between atoms: O_4  and  C_17
REMARK    4  A    between atoms: C_12  and  C_18
REMARK                            x       y       z     vdW  Elec       q    Type
REMARK                         _______ _______ _______ _____ _____    ______ ____
ROOT
ATOM      1  O   UNL     1     104.935 124.347 147.227  0.00  0.00    +0.000 OA
ATOM      2  O   UNL     1     102.331 125.445 147.852  0.00  0.00    +0.000 OA
ATOM      3  O   UNL     1     101.627 124.380 146.807  0.00  0.00    +0.000 OA
ATOM      4  O   UNL     1     103.496 125.996 148.501  0.00  0.00    +0.000 OA
ATOM      5  C   UNL     1     103.615 124.902 147.542  0.00  0.00    +0.000 A 
ATOM      6  C   UNL     1     104.082 124.363 147.125  0.00  0.00    +0.000 A 
ATOM      7  C   UNL     1     105.308 124.900 147.770  0.00  0.00    +0.000 A 
ATOM      8  C   UNL     1     103.730 123.831 146.603  0.00  0.00    +0.000 A 
ATOM      9  C   UNL     1     103.970 125.461 148.089  0.00  0.00    +0.000 A 
ATOM     10  C   UNL     1     104.822 125.461 148.204  0.00  0.00    +0.000 A 
ATOM     11  C   UNL     1     102.797 124.907 147.436  0.00  0.00    +0.000 A 
ATOM     12  C   UNL     1     102.912 123.836 146.497  0.00  0.00    +0.000 A 
ATOM     13  C   UNL     1     102.445 124.375 146.914  0.00  0.00    +0.000 A 
ENDROOT
BRANCH   7  16
ATOM     14  O   UNL     1     107.920 125.666 146.901  0.00  0.00    +0.000 OA
ATOM     15  O   UNL     1     108.581 124.870 148.185  0.00  0.00    +0.000 OA
ATOM     16  C   UNL     1     106.126 124.892 147.874  0.00  0.00    +0.000 A 
ATOM     17  C   UNL     1     106.614 125.283 147.336  0.00  0.00    +0.000 A 
ATOM     18  C   UNL     1     106.456 124.494 148.517  0.00  0.00    +0.000 A 
ATOM     19  C   UNL     1     107.432 125.275 147.439  0.00  0.00    +0.000 A 
ATOM     20  C   UNL     1     107.275 124.487 148.620  0.00  0.00    +0.000 A 
ATOM     21  C   UNL     1     107.763 124.877 148.082  0.00  0.00    +0.000 A 
ENDBRANCH   7  16
BRANCH   8  22
ATOM     22  O   UNL     1     104.196 123.293 146.186  0.00  0.00    +0.000 OA
ATOM     23  C   UNL     1     104.322 123.396 145.378  0.00  0.00    +0.000 C 
ENDBRANCH   8  22
BRANCH  10  24
ATOM     24  O   UNL     1     105.171 125.995 148.727  0.00  0.00    +0.000 OA
ATOM     25  C   UNL     1     104.712 126.576 149.091  0.00  0.00    +0.000 C 
ENDBRANCH  10  24
BRANCH  12  26
ATOM     26  O   UNL     1     102.560 123.304 145.974  0.00  0.00    +0.000 OA
ATOM     27  C   UNL     1     102.029 122.739 146.255  0.00  0.00    +0.000 C 
ENDBRANCH  12  26
TORSDOF 4
ENDMDL
MODEL 3
REMARK VINA RESULT:      -8.3      1.298      1.878
REMARK  Name = 44260066
REMARK  4 active torsions:
REMARK  status: ('A' for Active; 'I' for Inactive)
REMARK    1  A    between atoms: O_2  and  C_13
REMARK    2  A    between atoms: O_3  and  C_15
REMARK    3  A    between atoms: O_4  and  C_17
REMARK    4  A    between atoms: C_12  and  C_18
REMARK                            x       y       z     vdW  Elec       q    Type
REMARK                         _______ _______ _______ _____ _____    ______ ____
ROOT
ATOM      1  O   UNL     1     104.278 124.720 147.429  0.00  0.00    +0.000 OA
ATOM      2  O   UNL     1     106.088 124.448 145.186  0.00  0.00    +0.000 OA
ATOM      3  O   UNL     1     107.257 125.253 146.028  0.00  0.00    +0.000 OA
ATOM      4  O   UNL     1     104.758 123.897 145.082  0.00  0.00    +0.000 OA
ATOM      5  C   UNL     1     105.196 124.583 146.294  0.00  0.00    +0.000 A 
ATOM      6  C   UNL     1     105.042 124.853 147.060  0.00  0.00    +0.000 A 
ATOM      7  C   UNL     1     103.665 124.301 146.995  0.00  0.00    +0.000 A 
ATOM      8  C   UNL     1     105.627 125.255 147.480  0.00  0.00    +0.000 A 
ATOM      9  C   UNL     1     104.596 124.163 145.847  0.00  0.00    +0.000 A 
ATOM     10  C   UNL     1     103.825 124.020 146.198  0.00  0.00    +0.000 A 
ATOM     11  C   UNL     1     105.935 124.717 145.951  0.00  0.00    +0.000 A 
ATOM     12  C   UNL     1     106.365 125.389 147.137  0.00  0.00    +0.000 A 
ATOM     13  C   UNL     1     106.518 125.119 146.371  0.00  0.00    +0.000 A 
ENDROOT
BRANCH   7  16
ATOM     14  O   UNL     1     101.971 122.744 148.689  0.00  0.00    +0.000 OA
ATOM     15  O   UNL     1     100.717 123.771 148.380  0.00  0.00    +0.000 OA
ATOM     16  C   UNL     1     102.928 124.169 147.341  0.00  0.00    +0.000 A 
ATOM     17  C   UNL     1     102.817 123.522 147.842  0.00  0.00    +0.000 A 
ATOM     18  C   UNL     1     102.301 124.683 147.187  0.00  0.00    +0.000 A 
ATOM     19  C   UNL     1     102.081 123.390 148.188  0.00  0.00    +0.000 A 
ATOM     20  C   UNL     1     101.564 124.550 147.534  0.00  0.00    +0.000 A 
ATOM     21  C   UNL     1     101.454 123.904 148.034  0.00  0.00    +0.000 A 
ENDBRANCH   7  16
BRANCH   8  22
ATOM     22  O   UNL     1     105.474 125.524 148.245  0.00  0.00    +0.000 OA
ATOM     23  C   UNL     1     105.326 126.324 148.378  0.00  0.00    +0.000 C 
ENDBRANCH   8  22
BRANCH  10  24
ATOM     24  O   UNL     1     103.243 123.617 145.775  0.00  0.00    +0.000 OA
ATOM     25  C   UNL     1     103.456 123.032 145.235  0.00  0.00    +0.000 C 
ENDBRANCH  10  24
BRANCH  12  26
ATOM     26  O   UNL     1     106.950 125.791 147.557  0.00  0.00    +0.000 OA
ATOM     27  C   UNL     1     107.622 125.391 147.816  0.00  0.00    +0.000 C 
ENDBRANCH  12  26
TORSDOF 4
ENDMDL
MODEL 4
REMARK VINA RESULT:      -7.9      1.136      4.119
REMARK  Name = 44260066
REMARK  4 active torsions:
REMARK  status: ('A' for Active; 'I' for Inactive)
REMARK    1  A    between atoms: O_2  and  C_13
REMARK    2  A    between atoms: O_3  and  C_15
REMARK    3  A    between atoms: O_4  and  C_17
REMARK    4  A    between atoms: C_12  and  C_18
REMARK                            x       y       z     vdW  Elec       q    Type
REMARK                         _______ _______ _______ _____ _____    ______ ____
ROOT
ATOM      1  O   UNL     1     104.577 124.876 147.015  0.00  0.00    +0.000 OA
ATOM      2  O   UNL     1     103.220 122.890 145.405  0.00  0.00    +0.000 OA
ATOM      3  O   UNL     1     102.026 122.784 146.538  0.00  0.00    +0.000 OA
ATOM      4  O   UNL     1     104.461 123.450 144.926  0.00  0.00    +0.000 OA
ATOM      5  C   UNL     1     103.889 123.871 146.201  0.00  0.00    +0.000 A 
ATOM      6  C   UNL     1     103.924 124.335 146.883  0.00  0.00    +0.000 A 
ATOM      7  C   UNL     1     105.203 124.937 146.428  0.00  0.00    +0.000 A 
ATOM      8  C   UNL     1     103.326 124.281 147.449  0.00  0.00    +0.000 A 
ATOM      9  C   UNL     1     104.504 123.918 145.604  0.00  0.00    +0.000 A 
ATOM     10  C   UNL     1     105.166 124.454 145.718  0.00  0.00    +0.000 A 
ATOM     11  C   UNL     1     103.256 123.354 146.086  0.00  0.00    +0.000 A 
ATOM     12  C   UNL     1     102.694 123.764 147.335  0.00  0.00    +0.000 A 
ATOM     13  C   UNL     1     102.659 123.300 146.652  0.00  0.00    +0.000 A 
ENDROOT
BRANCH   7  16
ATOM     14  O   UNL     1     107.868 125.421 147.337  0.00  0.00    +0.000 OA
ATOM     15  O   UNL     1     107.730 127.006 146.899  0.00  0.00    +0.000 OA
ATOM     16  C   UNL     1     105.835 125.454 146.546  0.00  0.00    +0.000 A 
ATOM     17  C   UNL     1     106.536 125.180 146.882  0.00  0.00    +0.000 A 
ATOM     18  C   UNL     1     105.765 126.247 146.327  0.00  0.00    +0.000 A 
ATOM     19  C   UNL     1     107.167 125.696 147.000  0.00  0.00    +0.000 A 
ATOM     20  C   UNL     1     106.397 126.764 146.445  0.00  0.00    +0.000 A 
ATOM     21  C   UNL     1     107.098 126.490 146.781  0.00  0.00    +0.000 A 
ENDBRANCH   7  16
BRANCH   8  22
ATOM     22  O   UNL     1     103.362 124.744 148.131  0.00  0.00    +0.000 OA
ATOM     23  C   UNL     1     103.580 124.404 148.850  0.00  0.00    +0.000 C 
ENDBRANCH   8  22
BRANCH  10  24
ATOM     24  O   UNL     1     105.762 124.505 145.149  0.00  0.00    +0.000 OA
ATOM     25  C   UNL     1     105.585 124.380 144.353  0.00  0.00    +0.000 C 
ENDBRANCH  10  24
BRANCH  12  26
ATOM     26  O   UNL     1     102.096 123.710 147.901  0.00  0.00    +0.000 OA
ATOM     27  C   UNL     1     101.334 123.969 147.723  0.00  0.00    +0.000 C 
ENDBRANCH  12  26
TORSDOF 4
ENDMDL
MODEL 5
REMARK VINA RESULT:      -7.9      1.119      2.550
REMARK  Name = 44260066
REMARK  4 active torsions:
REMARK  status: ('A' for Active; 'I' for Inactive)
REMARK    1  A    between atoms: O_2  and  C_13
REMARK    2  A    between atoms: O_3  and  C_15
REMARK    3  A    between atoms: O_4  and  C_17
REMARK    4  A    between atoms: C_12  and  C_18
REMARK                            x       y       z     vdW  Elec       q    Type
REMARK                         _______ _______ _______ _____ _____    ______ ____
ROOT
ATOM      1  O   UNL     1     104.321 124.588 145.904  0.00  0.00    +0.000 OA
ATOM      2  O   UNL     1     106.429 125.610 147.604  0.00  0.00    +0.000 OA
ATOM      3  O   UNL     1     107.254 126.130 146.273  0.00  0.00    +0.000 OA
ATOM      4  O   UNL     1     105.289 124.967 148.213  0.00  0.00    +0.000 OA
ATOM      5  C   UNL     1     105.389 125.107 146.763  0.00  0.00    +0.000 A 
ATOM      6  C   UNL     1     105.075 124.984 146.009  0.00  0.00    +0.000 A 
ATOM      7  C   UNL     1     103.886 124.315 146.594  0.00  0.00    +0.000 A 
ATOM      8  C   UNL     1     105.489 125.245 145.344  0.00  0.00    +0.000 A 
ATOM      9  C   UNL     1     104.969 124.841 147.463  0.00  0.00    +0.000 A 
ATOM     10  C   UNL     1     104.212 124.442 147.379  0.00  0.00    +0.000 A 
ATOM     11  C   UNL     1     106.115 125.488 146.851  0.00  0.00    +0.000 A 
ATOM     12  C   UNL     1     106.214 125.626 145.431  0.00  0.00    +0.000 A 
ATOM     13  C   UNL     1     106.528 125.748 146.186  0.00  0.00    +0.000 A 
ENDROOT
BRANCH   7  16
ATOM     14  O   UNL     1     101.032 124.418 146.498  0.00  0.00    +0.000 OA
ATOM     15  O   UNL     1     100.982 122.791 146.230  0.00  0.00    +0.000 OA
ATOM     16  C   UNL     1     103.160 123.934 146.503  0.00  0.00    +0.000 A 
ATOM     17  C   UNL     1     102.458 124.366 146.546  0.00  0.00    +0.000 A 
ATOM     18  C   UNL     1     103.135 123.120 146.369  0.00  0.00    +0.000 A 
ATOM     19  C   UNL     1     101.733 123.985 146.455  0.00  0.00    +0.000 A 
ATOM     20  C   UNL     1     102.409 122.739 146.278  0.00  0.00    +0.000 A 
ATOM     21  C   UNL     1     101.708 123.171 146.321  0.00  0.00    +0.000 A 
ENDBRANCH   7  16
BRANCH   8  22
ATOM     22  O   UNL     1     105.175 125.123 144.590  0.00  0.00    +0.000 OA
ATOM     23  C   UNL     1     105.499 124.546 144.098  0.00  0.00    +0.000 C 
ENDBRANCH   8  22
BRANCH  10  24
ATOM     24  O   UNL     1     103.802 124.183 148.046  0.00  0.00    +0.000 OA
ATOM     25  C   UNL     1     103.938 124.539 148.778  0.00  0.00    +0.000 C 
ENDBRANCH  10  24
BRANCH  12  26
ATOM     26  O   UNL     1     106.628 125.886 144.766  0.00  0.00    +0.000 OA
ATOM     27  C   UNL     1     106.643 126.689 144.577  0.00  0.00    +0.000 C 
ENDBRANCH  12  26
TORSDOF 4
ENDMDL
MODEL 6
REMARK VINA RESULT:      -7.9      9.443     11.451
REMARK  Name = 44260066
REMARK  4 active torsions:
REMARK  status: ('A' for Active; 'I' for Inactive)
REMARK    1  A    between atoms: O_2  and  C_13
REMARK    2  A    between atoms: O_3  and  C_15
REMARK    3  A    between atoms: O_4  and  C_17
REMARK    4  A    between atoms: C_12  and  C_18
REMARK                            x       y       z     vdW  Elec       q    Type
REMARK                         _______ _______ _______ _____ _____    ______ ____
ROOT
ATOM      1  O   UNL     1     113.342 126.595 139.130  0.00  0.00    +0.000 OA
ATOM      2  O   UNL     1     110.784 126.309 140.453  0.00  0.00    +0.000 OA
ATOM      3  O   UNL     1     111.320 127.247 141.700  0.00  0.00    +0.000 OA
ATOM      4  O   UNL     1     110.990 125.661 139.181  0.00  0.00    +0.000 OA
ATOM      5  C   UNL     1     112.047 126.452 139.802  0.00  0.00    +0.000 A 
ATOM      6  C   UNL     1     112.814 126.758 139.788  0.00  0.00    +0.000 A 
ATOM      7  C   UNL     1     113.069 126.107 138.477  0.00  0.00    +0.000 A 
ATOM      8  C   UNL     1     113.082 127.227 140.412  0.00  0.00    +0.000 A 
ATOM      9  C   UNL     1     111.757 125.963 139.159  0.00  0.00    +0.000 A 
ATOM     10  C   UNL     1     112.270 125.789 138.492  0.00  0.00    +0.000 A 
ATOM     11  C   UNL     1     111.550 126.615 140.440  0.00  0.00    +0.000 A 
ATOM     12  C   UNL     1     112.585 127.390 141.049  0.00  0.00    +0.000 A 
ATOM     13  C   UNL     1     111.818 127.084 141.063  0.00  0.00    +0.000 A 
ENDROOT
BRANCH   7  16
ATOM     14  O   UNL     1     115.062 124.468 137.252  0.00  0.00    +0.000 OA
ATOM     15  O   UNL     1     115.068 125.461 135.934  0.00  0.00    +0.000 OA
ATOM     16  C   UNL     1     113.569 125.946 137.841  0.00  0.00    +0.000 A 
ATOM     17  C   UNL     1     114.066 125.288 137.864  0.00  0.00    +0.000 A 
ATOM     18  C   UNL     1     113.571 126.442 137.182  0.00  0.00    +0.000 A 
ATOM     19  C   UNL     1     114.565 125.126 137.229  0.00  0.00    +0.000 A 
ATOM     20  C   UNL     1     114.072 126.280 136.546  0.00  0.00    +0.000 A 
ATOM     21  C   UNL     1     114.568 125.623 136.569  0.00  0.00    +0.000 A 
ENDBRANCH   7  16
BRANCH   8  22
ATOM     22  O   UNL     1     113.848 127.533 140.398  0.00  0.00    +0.000 OA
ATOM     23  C   UNL     1     114.435 127.194 140.867  0.00  0.00    +0.000 C 
ENDBRANCH   8  22
BRANCH  10  24
ATOM     24  O   UNL     1     111.999 125.319 137.870  0.00  0.00    +0.000 OA
ATOM     25  C   UNL     1     111.221 125.044 137.869  0.00  0.00    +0.000 C 
ENDBRANCH  10  24
BRANCH  12  26
ATOM     26  O   UNL     1     112.852 127.859 141.673  0.00  0.00    +0.000 OA
ATOM     27  C   UNL     1     112.518 128.601 141.805  0.00  0.00    +0.000 C 
ENDBRANCH  12  26
TORSDOF 4
ENDMDL
MODEL 7
REMARK VINA RESULT:      -7.8     12.846     13.444
REMARK  Name = 44260066
REMARK  4 active torsions:
REMARK  status: ('A' for Active; 'I' for Inactive)
REMARK    1  A    between atoms: O_2  and  C_13
REMARK    2  A    between atoms: O_3  and  C_15
REMARK    3  A    between atoms: O_4  and  C_17
REMARK    4  A    between atoms: C_12  and  C_18
REMARK                            x       y       z     vdW  Elec       q    Type
REMARK                         _______ _______ _______ _____ _____    ______ ____
ROOT
ATOM      1  O   UNL     1     110.246 130.685 136.028  0.00  0.00    +0.000 OA
ATOM      2  O   UNL     1     112.262 131.252 138.027  0.00  0.00    +0.000 OA
ATOM      3  O   UNL     1     113.066 129.872 137.612  0.00  0.00    +0.000 OA
ATOM      4  O   UNL     1     111.161 132.171 137.862  0.00  0.00    +0.000 OA
ATOM      5  C   UNL     1     111.268 130.970 137.040  0.00  0.00    +0.000 A 
ATOM      6  C   UNL     1     110.972 130.484 136.442  0.00  0.00    +0.000 A 
ATOM      7  C   UNL     1     109.823 131.403 136.239  0.00  0.00    +0.000 A 
ATOM      8  C   UNL     1     111.374 129.794 136.235  0.00  0.00    +0.000 A 
ATOM      9  C   UNL     1     110.858 131.691 137.264  0.00  0.00    +0.000 A 
ATOM     10  C   UNL     1     110.131 131.909 136.862  0.00  0.00    +0.000 A 
ATOM     11  C   UNL     1     111.966 130.766 137.429  0.00  0.00    +0.000 A 
ATOM     12  C   UNL     1     112.071 129.590 136.624  0.00  0.00    +0.000 A 
ATOM     13  C   UNL     1     112.368 130.076 137.222  0.00  0.00    +0.000 A 
ENDROOT
BRANCH   7  16
ATOM     14  O   UNL     1     106.986 131.189 135.971  0.00  0.00    +0.000 OA
ATOM     15  O   UNL     1     107.032 132.208 134.674  0.00  0.00    +0.000 OA
ATOM     16  C   UNL     1     109.125 131.604 135.848  0.00  0.00    +0.000 A 
ATOM     17  C   UNL     1     108.404 131.296 136.105  0.00  0.00    +0.000 A 
ATOM     18  C   UNL     1     109.148 132.114 135.199  0.00  0.00    +0.000 A 
ATOM     19  C   UNL     1     107.707 131.497 135.714  0.00  0.00    +0.000 A 
ATOM     20  C   UNL     1     108.450 132.315 134.808  0.00  0.00    +0.000 A 
ATOM     21  C   UNL     1     107.730 132.007 135.065  0.00  0.00    +0.000 A 
ENDBRANCH   7  16
BRANCH   8  22
ATOM     22  O   UNL     1     111.078 129.308 135.637  0.00  0.00    +0.000 OA
ATOM     23  C   UNL     1     111.431 129.309 134.893  0.00  0.00    +0.000 C 
ENDBRANCH   8  22
BRANCH  10  24
ATOM     24  O   UNL     1     109.731 132.600 137.071  0.00  0.00    +0.000 OA
ATOM     25  C   UNL     1     109.971 133.031 137.733  0.00  0.00    +0.000 C 
ENDBRANCH  10  24
BRANCH  12  26
ATOM     26  O   UNL     1     112.474 128.900 136.417  0.00  0.00    +0.000 OA
ATOM     27  C   UNL     1     112.524 128.275 136.953  0.00  0.00    +0.000 C 
ENDBRANCH  12  26
TORSDOF 4
ENDMDL
MODEL 8
REMARK VINA RESULT:      -7.8      9.264     11.479
REMARK  Name = 44260066
REMARK  4 active torsions:
REMARK  status: ('A' for Active; 'I' for Inactive)
REMARK    1  A    between atoms: O_2  and  C_13
REMARK    2  A    between atoms: O_3  and  C_15
REMARK    3  A    between atoms: O_4  and  C_17
REMARK    4  A    between atoms: C_12  and  C_18
REMARK                            x       y       z     vdW  Elec       q    Type
REMARK                         _______ _______ _______ _____ _____    ______ ____
ROOT
ATOM      1  O   UNL     1     111.855 125.768 138.265  0.00  0.00    +0.000 OA
ATOM      2  O   UNL     1     109.062 126.357 137.783  0.00  0.00    +0.000 OA
ATOM      3  O   UNL     1     108.833 126.609 139.397  0.00  0.00    +0.000 OA
ATOM      4  O   UNL     1     109.910 126.022 136.664  0.00  0.00    +0.000 OA
ATOM      5  C   UNL     1     110.440 126.066 138.023  0.00  0.00    +0.000 A 
ATOM      6  C   UNL     1     111.073 125.984 138.547  0.00  0.00    +0.000 A 
ATOM      7  C   UNL     1     111.980 125.635 137.425  0.00  0.00    +0.000 A 
ATOM      8  C   UNL     1     110.958 126.111 139.354  0.00  0.00    +0.000 A 
ATOM      9  C   UNL     1     110.547 125.938 137.181  0.00  0.00    +0.000 A 
ATOM     10  C   UNL     1     111.322 125.721 136.878  0.00  0.00    +0.000 A 
ATOM     11  C   UNL     1     109.694 126.275 138.307  0.00  0.00    +0.000 A 
ATOM     12  C   UNL     1     110.212 126.319 139.638  0.00  0.00    +0.000 A 
ATOM     13  C   UNL     1     109.580 126.401 139.113  0.00  0.00    +0.000 A 
ENDROOT
BRANCH   7  16
ATOM     14  O   UNL     1     114.520 126.390 136.356  0.00  0.00    +0.000 OA
ATOM     15  O   UNL     1     114.970 124.803 136.302  0.00  0.00    +0.000 OA
ATOM     16  C   UNL     1     112.728 125.427 137.144  0.00  0.00    +0.000 A 
ATOM     17  C   UNL     1     113.251 126.012 136.890  0.00  0.00    +0.000 A 
ATOM     18  C   UNL     1     112.952 124.633 137.117  0.00  0.00    +0.000 A 
ATOM     19  C   UNL     1     113.997 125.804 136.610  0.00  0.00    +0.000 A 
ATOM     20  C   UNL     1     113.700 124.426 136.837  0.00  0.00    +0.000 A 
ATOM     21  C   UNL     1     114.222 125.010 136.583  0.00  0.00    +0.000 A 
ENDBRANCH   7  16
BRANCH   8  22
ATOM     22  O   UNL     1     111.590 126.028 139.878  0.00  0.00    +0.000 OA
ATOM     23  C   UNL     1     111.958 126.698 140.188  0.00  0.00    +0.000 C 
ENDBRANCH   8  22
BRANCH  10  24
ATOM     24  O   UNL     1     111.433 125.595 136.071  0.00  0.00    +0.000 OA
ATOM     25  C   UNL     1     110.795 125.380 135.595  0.00  0.00    +0.000 C 
ENDBRANCH  10  24
BRANCH  12  26
ATOM     26  O   UNL     1     110.097 126.445 140.445  0.00  0.00    +0.000 OA
ATOM     27  C   UNL     1     109.601 125.946 140.874  0.00  0.00    +0.000 C 
ENDBRANCH  12  26
TORSDOF 4
ENDMDL
MODEL 9
REMARK VINA RESULT:      -7.8     12.125     13.462
REMARK  Name = 44260066
REMARK  4 active torsions:
REMARK  status: ('A' for Active; 'I' for Inactive)
REMARK    1  A    between atoms: O_2  and  C_13
REMARK    2  A    between atoms: O_3  and  C_15
REMARK    3  A    between atoms: O_4  and  C_17
REMARK    4  A    between atoms: C_12  and  C_18
REMARK                            x       y       z     vdW  Elec       q    Type
REMARK                         _______ _______ _______ _____ _____    ______ ____
ROOT
ATOM      1  O   UNL     1     112.524 127.199 136.218  0.00  0.00    +0.000 OA
ATOM      2  O   UNL     1     109.961 126.937 134.899  0.00  0.00    +0.000 OA
ATOM      3  O   UNL     1     109.939 128.562 134.612  0.00  0.00    +0.000 OA
ATOM      4  O   UNL     1     110.595 125.757 135.436  0.00  0.00    +0.000 OA
ATOM      5  C   UNL     1     111.226 127.068 135.550  0.00  0.00    +0.000 A 
ATOM      6  C   UNL     1     111.854 127.541 135.804  0.00  0.00    +0.000 A 
ATOM      7  C   UNL     1     112.541 126.353 136.371  0.00  0.00    +0.000 A 
ATOM      8  C   UNL     1     111.842 128.353 135.660  0.00  0.00    +0.000 A 
ATOM      9  C   UNL     1     111.226 126.222 135.693  0.00  0.00    +0.000 A 
ATOM     10  C   UNL     1     111.887 125.860 136.106  0.00  0.00    +0.000 A 
ATOM     11  C   UNL     1     110.588 127.409 135.153  0.00  0.00    +0.000 A 
ATOM     12  C   UNL     1     111.205 128.693 135.263  0.00  0.00    +0.000 A 
ATOM     13  C   UNL     1     110.577 128.221 135.009  0.00  0.00    +0.000 A 
ENDROOT
BRANCH   7  16
ATOM     14  O   UNL     1     113.904 125.760 138.811  0.00  0.00    +0.000 OA
ATOM     15  O   UNL     1     115.098 125.003 137.961  0.00  0.00    +0.000 OA
ATOM     16  C   UNL     1     113.181 126.015 136.768  0.00  0.00    +0.000 A 
ATOM     17  C   UNL     1     113.223 126.056 137.591  0.00  0.00    +0.000 A 
ATOM     18  C   UNL     1     113.777 125.636 136.342  0.00  0.00    +0.000 A 
ATOM     19  C   UNL     1     113.861 125.719 137.988  0.00  0.00    +0.000 A 
ATOM     20  C   UNL     1     114.417 125.299 136.741  0.00  0.00    +0.000 A 
ATOM     21  C   UNL     1     114.459 125.340 137.563  0.00  0.00    +0.000 A 
ENDBRANCH   7  16
BRANCH   8  22
ATOM     22  O   UNL     1     112.469 128.825 135.914  0.00  0.00    +0.000 OA
ATOM     23  C   UNL     1     113.030 129.091 135.372  0.00  0.00    +0.000 C 
ENDBRANCH   8  22
BRANCH  10  24
ATOM     24  O   UNL     1     111.896 125.048 136.248  0.00  0.00    +0.000 OA
ATOM     25  C   UNL     1     111.215 124.599 136.119  0.00  0.00    +0.000 C 
ENDBRANCH  10  24
BRANCH  12  26
ATOM     26  O   UNL     1     111.193 129.506 135.120  0.00  0.00    +0.000 OA
ATOM     27  C   UNL     1     110.626 129.981 135.482  0.00  0.00    +0.000 C 
ENDBRANCH  12  26
TORSDOF 4
ENDMDL
MODEL 10
REMARK VINA RESULT:      -7.7     12.308     12.887
REMARK  Name = 44260066
REMARK  4 active torsions:
REMARK  status: ('A' for Active; 'I' for Inactive)
REMARK    1  A    between atoms: O_2  and  C_13
REMARK    2  A    between atoms: O_3  and  C_15
REMARK    3  A    between atoms: O_4  and  C_17
REMARK    4  A    between atoms: C_12  and  C_18
REMARK                            x       y       z     vdW  Elec       q    Type
REMARK                         _______ _______ _______ _____ _____    ______ ____
ROOT
ATOM      1  O   UNL     1     112.079 126.848 136.308  0.00  0.00    +0.000 OA
ATOM      2  O   UNL     1     111.676 123.987 136.147  0.00  0.00    +0.000 OA
ATOM      3  O   UNL     1     113.026 123.741 137.063  0.00  0.00    +0.000 OA
ATOM      4  O   UNL     1     110.740 124.863 135.485  0.00  0.00    +0.000 OA
ATOM      5  C   UNL     1     111.877 125.399 136.228  0.00  0.00    +0.000 A 
ATOM      6  C   UNL     1     112.315 126.045 136.497  0.00  0.00    +0.000 A 
ATOM      7  C   UNL     1     111.377 126.983 135.831  0.00  0.00    +0.000 A 
ATOM      8  C   UNL     1     112.990 125.921 136.956  0.00  0.00    +0.000 A 
ATOM      9  C   UNL     1     111.173 125.514 135.750  0.00  0.00    +0.000 A 
ATOM     10  C   UNL     1     110.920 126.310 135.550  0.00  0.00    +0.000 A 
ATOM     11  C   UNL     1     112.114 124.631 136.417  0.00  0.00    +0.000 A 
ATOM     12  C   UNL     1     113.227 125.155 137.144  0.00  0.00    +0.000 A 
ATOM     13  C   UNL     1     112.789 124.509 136.874  0.00  0.00    +0.000 A 
ENDROOT
BRANCH   7  16
ATOM     14  O   UNL     1     109.855 129.323 136.442  0.00  0.00    +0.000 OA
ATOM     15  O   UNL     1     110.438 130.056 135.084  0.00  0.00    +0.000 OA
ATOM     16  C   UNL     1     111.142 127.751 135.644  0.00  0.00    +0.000 A 
ATOM     17  C   UNL     1     110.616 128.153 136.136  0.00  0.00    +0.000 A 
ATOM     18  C   UNL     1     111.434 128.118 134.965  0.00  0.00    +0.000 A 
ATOM     19  C   UNL     1     110.381 128.921 135.949  0.00  0.00    +0.000 A 
ATOM     20  C   UNL     1     111.198 128.887 134.778  0.00  0.00    +0.000 A 
ATOM     21  C   UNL     1     110.673 129.288 135.270  0.00  0.00    +0.000 A 
ENDBRANCH   7  16
BRANCH   8  22
ATOM     22  O   UNL     1     113.429 126.566 137.225  0.00  0.00    +0.000 OA
ATOM     23  C   UNL     1     113.359 126.813 138.009  0.00  0.00    +0.000 C 
ENDBRANCH   8  22
BRANCH  10  24
ATOM     24  O   UNL     1     110.244 126.430 135.092  0.00  0.00    +0.000 OA
ATOM     25  C   UNL     1     109.959 125.823 134.612  0.00  0.00    +0.000 C 
ENDBRANCH  10  24
BRANCH  12  26
ATOM     26  O   UNL     1     113.902 125.031 137.603  0.00  0.00    +0.000 OA
ATOM     27  C   UNL     1     114.585 124.722 137.258  0.00  0.00    +0.000 C 
ENDBRANCH  12  26
TORSDOF 4
ENDMDL
