MODEL 1
REMARK VINA RESULT:      -9.4      0.000      0.000
REMARK  Name = 131752464
REMARK  4 active torsions:
REMARK  status: ('A' for Active; 'I' for Inactive)
REMARK    1  A    between atoms: O_2  and  C_15
REMARK    2  A    between atoms: O_2  and  C_17
REMARK    3  A    between atoms: C_14  and  C_16
REMARK    4  A    between atoms: C_18  and  C_26
REMARK                            x       y       z     vdW  Elec       q    Type
REMARK                         _______ _______ _______ _____ _____    ______ ____
ROOT
ATOM      1  O   UNL     1     104.795 124.177 139.034  0.00  0.00    +0.000 OA
ATOM      2  O   UNL     1     106.016 125.281 139.223  0.00  0.00    +0.000 OA
ATOM      3  O   UNL     1     105.126 123.441 141.815  0.00  0.00    +0.000 OA
ATOM      4  O   UNL     1     104.119 122.770 141.028  0.00  0.00    +0.000 OA
ATOM      5  C   UNL     1     106.177 124.916 140.595  0.00  0.00    +0.000 A 
ATOM      6  C   UNL     1     104.164 123.601 138.949  0.00  0.00    +0.000 C 
ATOM      7  C   UNL     1     105.187 124.266 139.794  0.00  0.00    +0.000 A 
ATOM      8  C   UNL     1     103.932 123.122 139.623  0.00  0.00    +0.000 C 
ATOM      9  C   UNL     1     104.965 123.806 140.442  0.00  0.00    +0.000 A 
ATOM     10  C   UNL     1     105.793 124.821 139.870  0.00  0.00    +0.000 A 
ATOM     11  C   UNL     1     105.954 124.456 141.243  0.00  0.00    +0.000 A 
ATOM     12  C   UNL     1     104.336 123.226 140.375  0.00  0.00    +0.000 C 
ATOM     13  C   UNL     1     105.348 123.901 141.166  0.00  0.00    +0.000 A 
ENDROOT
BRANCH   6  14
ATOM     14  C   UNL     1     103.782 123.508 138.223  0.00  0.00    +0.000 A 
ATOM     15  C   UNL     1     104.197 123.214 137.573  0.00  0.00    +0.000 A 
ATOM     16  C   UNL     1     102.985 123.709 138.148  0.00  0.00    +0.000 A 
ATOM     17  C   UNL     1     103.815 123.122 136.848  0.00  0.00    +0.000 A 
ATOM     18  C   UNL     1     102.603 123.616 137.423  0.00  0.00    +0.000 A 
ATOM     19  C   UNL     1     103.018 123.323 136.773  0.00  0.00    +0.000 A 
ENDBRANCH   6  14
BRANCH   5  20
ATOM     20  O   UNL     1     106.783 125.470 140.672  0.00  0.00    +0.000 OA
BRANCH  20  29
ATOM     21  O   UNL     1     106.052 126.502 141.337  0.00  0.00    +0.000 OA
ATOM     22  O   UNL     1     107.977 126.897 142.841  0.00  0.00    +0.000 OA
ATOM     23  O   UNL     1     106.605 127.797 143.004  0.00  0.00    +0.000 OA
ATOM     24  O   UNL     1     108.066 125.734 141.674  0.00  0.00    +0.000 OA
ATOM     25  C   UNL     1     107.335 126.766 142.339  0.00  0.00    +0.000 C 
ATOM     26  C   UNL     1     106.649 127.215 142.421  0.00  0.00    +0.000 C 
ATOM     27  C   UNL     1     107.380 126.183 141.756  0.00  0.00    +0.000 C 
ATOM     28  C   UNL     1     106.007 127.084 141.920  0.00  0.00    +0.000 C 
ATOM     29  C   UNL     1     106.738 126.052 141.254  0.00  0.00    +0.000 C 
BRANCH  28  31
ATOM     30  O   UNL     1     104.958 127.860 141.336  0.00  0.00    +0.000 OA
ATOM     31  C   UNL     1     105.321 127.534 142.002  0.00  0.00    +0.000 C 
ENDBRANCH  28  31
ENDBRANCH  20  29
ENDBRANCH   5  20
TORSDOF 4
ENDMDL
MODEL 2
REMARK VINA RESULT:      -9.4      4.219      6.027
REMARK  Name = 131752464
REMARK  4 active torsions:
REMARK  status: ('A' for Active; 'I' for Inactive)
REMARK    1  A    between atoms: O_2  and  C_15
REMARK    2  A    between atoms: O_2  and  C_17
REMARK    3  A    between atoms: C_14  and  C_16
REMARK    4  A    between atoms: C_18  and  C_26
REMARK                            x       y       z     vdW  Elec       q    Type
REMARK                         _______ _______ _______ _____ _____    ______ ____
ROOT
ATOM      1  O   UNL     1     103.123 130.316 142.253  0.00  0.00    +0.000 OA
ATOM      2  O   UNL     1     104.062 129.730 143.485  0.00  0.00    +0.000 OA
ATOM      3  O   UNL     1     103.994 128.086 140.625  0.00  0.00    +0.000 OA
ATOM      4  O   UNL     1     103.077 129.048 140.061  0.00  0.00    +0.000 OA
ATOM      5  C   UNL     1     104.490 128.631 142.680  0.00  0.00    +0.000 A 
ATOM      6  C   UNL     1     102.640 130.610 141.606  0.00  0.00    +0.000 C 
ATOM      7  C   UNL     1     103.582 129.598 142.146  0.00  0.00    +0.000 A 
ATOM      8  C   UNL     1     102.622 130.182 140.861  0.00  0.00    +0.000 C 
ATOM      9  C   UNL     1     103.566 129.186 141.431  0.00  0.00    +0.000 A 
ATOM     10  C   UNL     1     104.044 129.320 142.770  0.00  0.00    +0.000 A 
ATOM     11  C   UNL     1     104.473 128.220 141.964  0.00  0.00    +0.000 A 
ATOM     12  C   UNL     1     103.088 129.465 140.773  0.00  0.00    +0.000 C 
ATOM     13  C   UNL     1     104.011 128.498 141.340  0.00  0.00    +0.000 A 
ENDROOT
BRANCH   6  14
ATOM     14  C   UNL     1     102.196 131.299 141.699  0.00  0.00    +0.000 A 
ATOM     15  C   UNL     1     102.533 132.033 141.532  0.00  0.00    +0.000 A 
ATOM     16  C   UNL     1     101.414 131.254 141.960  0.00  0.00    +0.000 A 
ATOM     17  C   UNL     1     102.089 132.722 141.626  0.00  0.00    +0.000 A 
ATOM     18  C   UNL     1     100.970 131.942 142.054  0.00  0.00    +0.000 A 
ATOM     19  C   UNL     1     101.307 132.676 141.886  0.00  0.00    +0.000 A 
ENDBRANCH   6  14
BRANCH   5  20
ATOM     20  O   UNL     1     104.952 128.353 143.304  0.00  0.00    +0.000 OA
BRANCH  20  29
ATOM     21  O   UNL     1     106.254 128.658 142.800  0.00  0.00    +0.000 OA
ATOM     22  O   UNL     1     107.052 126.426 143.514  0.00  0.00    +0.000 OA
ATOM     23  O   UNL     1     108.087 127.474 142.772  0.00  0.00    +0.000 OA
ATOM     24  O   UNL     1     105.484 126.866 143.780  0.00  0.00    +0.000 OA
ATOM     25  C   UNL     1     106.786 127.170 143.276  0.00  0.00    +0.000 C 
ATOM     26  C   UNL     1     107.304 127.695 142.905  0.00  0.00    +0.000 C 
ATOM     27  C   UNL     1     106.002 127.390 143.409  0.00  0.00    +0.000 C 
ATOM     28  C   UNL     1     107.038 128.438 142.667  0.00  0.00    +0.000 C 
ATOM     29  C   UNL     1     105.736 128.134 143.171  0.00  0.00    +0.000 C 
BRANCH  28  31
ATOM     30  O   UNL     1     107.552 129.761 142.501  0.00  0.00    +0.000 OA
ATOM     31  C   UNL     1     107.555 128.962 142.296  0.00  0.00    +0.000 C 
ENDBRANCH  28  31
ENDBRANCH  20  29
ENDBRANCH   5  20
TORSDOF 4
ENDMDL
MODEL 3
REMARK VINA RESULT:      -9.3      7.423      9.072
REMARK  Name = 131752464
REMARK  4 active torsions:
REMARK  status: ('A' for Active; 'I' for Inactive)
REMARK    1  A    between atoms: O_2  and  C_15
REMARK    2  A    between atoms: O_2  and  C_17
REMARK    3  A    between atoms: C_14  and  C_16
REMARK    4  A    between atoms: C_18  and  C_26
REMARK                            x       y       z     vdW  Elec       q    Type
REMARK                         _______ _______ _______ _____ _____    ______ ____
ROOT
ATOM      1  O   UNL     1     112.640 126.893 136.419  0.00  0.00    +0.000 OA
ATOM      2  O   UNL     1     111.000 126.924 136.190  0.00  0.00    +0.000 OA
ATOM      3  O   UNL     1     112.748 129.639 135.511  0.00  0.00    +0.000 OA
ATOM      4  O   UNL     1     113.974 128.981 135.896  0.00  0.00    +0.000 OA
ATOM      5  C   UNL     1     111.056 128.280 135.741  0.00  0.00    +0.000 A 
ATOM      6  C   UNL     1     113.491 126.889 136.534  0.00  0.00    +0.000 C 
ATOM      7  C   UNL     1     112.255 127.604 136.129  0.00  0.00    +0.000 A 
ATOM      8  C   UNL     1     113.947 127.596 136.358  0.00  0.00    +0.000 C 
ATOM      9  C   UNL     1     112.692 128.284 135.959  0.00  0.00    +0.000 A 
ATOM     10  C   UNL     1     111.438 127.602 136.020  0.00  0.00    +0.000 A 
ATOM     11  C   UNL     1     111.494 128.958 135.572  0.00  0.00    +0.000 A 
ATOM     12  C   UNL     1     113.544 128.298 136.068  0.00  0.00    +0.000 C 
ATOM     13  C   UNL     1     112.312 128.960 135.681  0.00  0.00    +0.000 A 
ENDROOT
BRANCH   6  14
ATOM     14  C   UNL     1     113.870 126.211 136.813  0.00  0.00    +0.000 A 
ATOM     15  C   UNL     1     114.224 125.688 136.282  0.00  0.00    +0.000 A 
ATOM     16  C   UNL     1     113.894 126.055 137.623  0.00  0.00    +0.000 A 
ATOM     17  C   UNL     1     114.602 125.010 136.560  0.00  0.00    +0.000 A 
ATOM     18  C   UNL     1     114.272 125.377 137.902  0.00  0.00    +0.000 A 
ATOM     19  C   UNL     1     114.626 124.855 137.371  0.00  0.00    +0.000 A 
ENDBRANCH   6  14
BRANCH   5  20
ATOM     20  O   UNL     1     110.239 128.278 135.633  0.00  0.00    +0.000 OA
BRANCH  20  29
ATOM     21  O   UNL     1     109.837 128.985 136.808  0.00  0.00    +0.000 OA
ATOM     22  O   UNL     1     108.247 130.320 135.461  0.00  0.00    +0.000 OA
ATOM     23  O   UNL     1     108.376 130.582 137.085  0.00  0.00    +0.000 OA
ATOM     24  O   UNL     1     109.179 129.168 134.735  0.00  0.00    +0.000 OA
ATOM     25  C   UNL     1     108.777 129.875 135.910  0.00  0.00    +0.000 C 
ATOM     26  C   UNL     1     108.842 130.006 136.722  0.00  0.00    +0.000 C 
ATOM     27  C   UNL     1     109.243 129.299 135.547  0.00  0.00    +0.000 C 
ATOM     28  C   UNL     1     109.372 129.560 137.171  0.00  0.00    +0.000 C 
ATOM     29  C   UNL     1     109.773 128.853 135.996  0.00  0.00    +0.000 C 
BRANCH  28  31
ATOM     30  O   UNL     1     109.400 129.056 138.508  0.00  0.00    +0.000 OA
ATOM     31  C   UNL     1     109.436 129.691 137.982  0.00  0.00    +0.000 C 
ENDBRANCH  28  31
ENDBRANCH  20  29
ENDBRANCH   5  20
TORSDOF 4
ENDMDL
MODEL 4
REMARK VINA RESULT:      -9.2      3.980      6.988
REMARK  Name = 131752464
REMARK  4 active torsions:
REMARK  status: ('A' for Active; 'I' for Inactive)
REMARK    1  A    between atoms: O_2  and  C_15
REMARK    2  A    between atoms: O_2  and  C_17
REMARK    3  A    between atoms: C_14  and  C_16
REMARK    4  A    between atoms: C_18  and  C_26
REMARK                            x       y       z     vdW  Elec       q    Type
REMARK                         _______ _______ _______ _____ _____    ______ ____
ROOT
ATOM      1  O   UNL     1     106.680 125.187 146.638  0.00  0.00    +0.000 OA
ATOM      2  O   UNL     1     106.734 124.583 145.096  0.00  0.00    +0.000 OA
ATOM      3  O   UNL     1     105.315 127.520 145.600  0.00  0.00    +0.000 OA
ATOM      4  O   UNL     1     105.590 127.442 147.015  0.00  0.00    +0.000 OA
ATOM      5  C   UNL     1     106.060 125.735 144.587  0.00  0.00    +0.000 A 
ATOM      6  C   UNL     1     106.646 125.511 147.432  0.00  0.00    +0.000 C 
ATOM      7  C   UNL     1     106.344 125.633 145.984  0.00  0.00    +0.000 A 
ATOM      8  C   UNL     1     106.277 126.276 147.564  0.00  0.00    +0.000 C 
ATOM      9  C   UNL     1     105.989 126.367 146.109  0.00  0.00    +0.000 A 
ATOM     10  C   UNL     1     106.379 125.317 145.223  0.00  0.00    +0.000 A 
ATOM     11  C   UNL     1     105.706 126.470 144.713  0.00  0.00    +0.000 A 
ATOM     12  C   UNL     1     105.946 126.707 146.897  0.00  0.00    +0.000 C 
ATOM     13  C   UNL     1     105.670 126.785 145.474  0.00  0.00    +0.000 A 
ENDROOT
BRANCH   6  14
ATOM     14  C   UNL     1     106.966 125.091 148.066  0.00  0.00    +0.000 A 
ATOM     15  C   UNL     1     106.469 124.678 148.580  0.00  0.00    +0.000 A 
ATOM     16  C   UNL     1     107.782 125.083 148.186  0.00  0.00    +0.000 A 
ATOM     17  C   UNL     1     106.789 124.257 149.214  0.00  0.00    +0.000 A 
ATOM     18  C   UNL     1     108.102 124.663 148.819  0.00  0.00    +0.000 A 
ATOM     19  C   UNL     1     107.606 124.250 149.333  0.00  0.00    +0.000 A 
ENDBRANCH   6  14
BRANCH   5  20
ATOM     20  O   UNL     1     106.096 125.420 143.825  0.00  0.00    +0.000 OA
BRANCH  20  29
ATOM     21  O   UNL     1     106.957 126.392 143.230  0.00  0.00    +0.000 OA
ATOM     22  O   UNL     1     105.560 126.378 141.187  0.00  0.00    +0.000 OA
ATOM     23  O   UNL     1     106.887 127.354 141.272  0.00  0.00    +0.000 OA
ATOM     24  O   UNL     1     105.164 125.410 142.463  0.00  0.00    +0.000 OA
ATOM     25  C   UNL     1     106.026 126.382 141.868  0.00  0.00    +0.000 C 
ATOM     26  C   UNL     1     106.690 126.870 141.911  0.00  0.00    +0.000 C 
ATOM     27  C   UNL     1     105.828 125.898 142.507  0.00  0.00    +0.000 C 
ATOM     28  C   UNL     1     107.155 126.875 142.592  0.00  0.00    +0.000 C 
ATOM     29  C   UNL     1     106.294 125.903 143.188  0.00  0.00    +0.000 C 
BRANCH  28  31
ATOM     30  O   UNL     1     108.573 127.032 142.684  0.00  0.00    +0.000 OA
ATOM     31  C   UNL     1     107.818 127.363 142.634  0.00  0.00    +0.000 C 
ENDBRANCH  28  31
ENDBRANCH  20  29
ENDBRANCH   5  20
TORSDOF 4
ENDMDL
MODEL 5
REMARK VINA RESULT:      -9.1      7.052      8.754
REMARK  Name = 131752464
REMARK  4 active torsions:
REMARK  status: ('A' for Active; 'I' for Inactive)
REMARK    1  A    between atoms: O_2  and  C_15
REMARK    2  A    between atoms: O_2  and  C_17
REMARK    3  A    between atoms: C_14  and  C_16
REMARK    4  A    between atoms: C_18  and  C_26
REMARK                            x       y       z     vdW  Elec       q    Type
REMARK                         _______ _______ _______ _____ _____    ______ ____
ROOT
ATOM      1  O   UNL     1     112.594 126.957 137.232  0.00  0.00    +0.000 OA
ATOM      2  O   UNL     1     111.229 127.469 138.018  0.00  0.00    +0.000 OA
ATOM      3  O   UNL     1     112.682 129.510 135.870  0.00  0.00    +0.000 OA
ATOM      4  O   UNL     1     113.702 128.530 135.585  0.00  0.00    +0.000 OA
ATOM      5  C   UNL     1     111.275 128.729 137.345  0.00  0.00    +0.000 A 
ATOM      6  C   UNL     1     113.302 126.703 136.817  0.00  0.00    +0.000 C 
ATOM      7  C   UNL     1     112.273 127.740 137.081  0.00  0.00    +0.000 A 
ATOM      8  C   UNL     1     113.681 127.234 136.258  0.00  0.00    +0.000 C 
ATOM      9  C   UNL     1     112.636 128.251 136.543  0.00  0.00    +0.000 A 
ATOM     10  C   UNL     1     111.593 127.979 137.481  0.00  0.00    +0.000 A 
ATOM     11  C   UNL     1     111.638 129.238 136.808  0.00  0.00    +0.000 A 
ATOM     12  C   UNL     1     113.345 128.013 136.120  0.00  0.00    +0.000 C 
ATOM     13  C   UNL     1     112.319 128.999 136.407  0.00  0.00    +0.000 A 
ENDROOT
BRANCH   6  14
ATOM     14  C   UNL     1     113.617 125.953 136.956  0.00  0.00    +0.000 A 
ATOM     15  C   UNL     1     114.205 125.851 137.525  0.00  0.00    +0.000 A 
ATOM     16  C   UNL     1     113.344 125.305 136.524  0.00  0.00    +0.000 A 
ATOM     17  C   UNL     1     114.520 125.102 137.664  0.00  0.00    +0.000 A 
ATOM     18  C   UNL     1     113.659 124.555 136.662  0.00  0.00    +0.000 A 
ATOM     19  C   UNL     1     114.247 124.454 137.232  0.00  0.00    +0.000 A 
ENDBRANCH   6  14
BRANCH   5  20
ATOM     20  O   UNL     1     110.594 128.968 137.745  0.00  0.00    +0.000 OA
BRANCH  20  29
ATOM     21  O   UNL     1     109.621 128.733 136.726  0.00  0.00    +0.000 OA
ATOM     22  O   UNL     1     108.560 130.909 137.238  0.00  0.00    +0.000 OA
ATOM     23  O   UNL     1     107.940 129.949 136.049  0.00  0.00    +0.000 OA
ATOM     24  O   UNL     1     109.887 130.419 138.087  0.00  0.00    +0.000 OA
ATOM     25  C   UNL     1     108.913 130.184 137.067  0.00  0.00    +0.000 C 
ATOM     26  C   UNL     1     108.604 129.703 136.473  0.00  0.00    +0.000 C 
ATOM     27  C   UNL     1     109.578 129.938 137.492  0.00  0.00    +0.000 C 
ATOM     28  C   UNL     1     108.958 128.978 136.302  0.00  0.00    +0.000 C 
ATOM     29  C   UNL     1     109.931 129.213 137.321  0.00  0.00    +0.000 C 
BRANCH  28  31
ATOM     30  O   UNL     1     108.466 127.709 135.866  0.00  0.00    +0.000 OA
ATOM     31  C   UNL     1     108.648 128.498 135.708  0.00  0.00    +0.000 C 
ENDBRANCH  28  31
ENDBRANCH  20  29
ENDBRANCH   5  20
TORSDOF 4
ENDMDL
MODEL 6
REMARK VINA RESULT:      -9.1      8.249      9.100
REMARK  Name = 131752464
REMARK  4 active torsions:
REMARK  status: ('A' for Active; 'I' for Inactive)
REMARK    1  A    between atoms: O_2  and  C_15
REMARK    2  A    between atoms: O_2  and  C_17
REMARK    3  A    between atoms: C_14  and  C_16
REMARK    4  A    between atoms: C_18  and  C_26
REMARK                            x       y       z     vdW  Elec       q    Type
REMARK                         _______ _______ _______ _____ _____    ______ ____
ROOT
ATOM      1  O   UNL     1     113.370 126.774 138.607  0.00  0.00    +0.000 OA
ATOM      2  O   UNL     1     113.414 127.223 140.200  0.00  0.00    +0.000 OA
ATOM      3  O   UNL     1     112.288 129.385 137.976  0.00  0.00    +0.000 OA
ATOM      4  O   UNL     1     112.504 128.440 136.906  0.00  0.00    +0.000 OA
ATOM      5  C   UNL     1     112.880 128.511 139.886  0.00  0.00    +0.000 A 
ATOM      6  C   UNL     1     113.342 126.554 137.777  0.00  0.00    +0.000 C 
ATOM      7  C   UNL     1     113.104 127.556 138.846  0.00  0.00    +0.000 A 
ATOM      8  C   UNL     1     113.048 127.116 137.197  0.00  0.00    +0.000 C 
ATOM      9  C   UNL     1     112.822 128.097 138.290  0.00  0.00    +0.000 A 
ATOM     10  C   UNL     1     113.133 127.763 139.644  0.00  0.00    +0.000 A 
ATOM     11  C   UNL     1     112.598 129.050 139.330  0.00  0.00    +0.000 A 
ATOM     12  C   UNL     1     112.787 127.893 137.456  0.00  0.00    +0.000 C 
ATOM     13  C   UNL     1     112.570 128.844 138.532  0.00  0.00    +0.000 A 
ENDROOT
BRANCH   6  14
ATOM     14  C   UNL     1     113.595 125.806 137.538  0.00  0.00    +0.000 A 
ATOM     15  C   UNL     1     114.401 125.649 137.457  0.00  0.00    +0.000 A 
ATOM     16  C   UNL     1     113.042 125.214 137.379  0.00  0.00    +0.000 A 
ATOM     17  C   UNL     1     114.654 124.901 137.218  0.00  0.00    +0.000 A 
ATOM     18  C   UNL     1     113.294 124.467 137.140  0.00  0.00    +0.000 A 
ATOM     19  C   UNL     1     114.100 124.310 137.059  0.00  0.00    +0.000 A 
ENDBRANCH   6  14
BRANCH   5  20
ATOM     20  O   UNL     1     112.909 128.717 140.684  0.00  0.00    +0.000 OA
BRANCH  20  29
ATOM     21  O   UNL     1     114.004 129.633 140.618  0.00  0.00    +0.000 OA
ATOM     22  O   UNL     1     112.837 131.142 142.195  0.00  0.00    +0.000 OA
ATOM     23  O   UNL     1     114.320 131.555 141.603  0.00  0.00    +0.000 OA
ATOM     24  O   UNL     1     112.131 129.724 141.736  0.00  0.00    +0.000 OA
ATOM     25  C   UNL     1     113.226 130.639 141.669  0.00  0.00    +0.000 C 
ATOM     26  C   UNL     1     113.968 130.845 141.373  0.00  0.00    +0.000 C 
ATOM     27  C   UNL     1     112.873 129.929 141.439  0.00  0.00    +0.000 C 
ATOM     28  C   UNL     1     114.357 130.342 140.848  0.00  0.00    +0.000 C 
ATOM     29  C   UNL     1     113.262 129.426 140.914  0.00  0.00    +0.000 C 
BRANCH  28  31
ATOM     30  O   UNL     1     115.696 129.982 140.502  0.00  0.00    +0.000 OA
ATOM     31  C   UNL     1     115.098 130.548 140.552  0.00  0.00    +0.000 C 
ENDBRANCH  28  31
ENDBRANCH  20  29
ENDBRANCH   5  20
TORSDOF 4
ENDMDL
MODEL 7
REMARK VINA RESULT:      -8.9      7.064      7.995
REMARK  Name = 131752464
REMARK  4 active torsions:
REMARK  status: ('A' for Active; 'I' for Inactive)
REMARK    1  A    between atoms: O_2  and  C_15
REMARK    2  A    between atoms: O_2  and  C_17
REMARK    3  A    between atoms: C_14  and  C_16
REMARK    4  A    between atoms: C_18  and  C_26
REMARK                            x       y       z     vdW  Elec       q    Type
REMARK                         _______ _______ _______ _____ _____    ______ ____
ROOT
ATOM      1  O   UNL     1     110.321 128.235 135.798  0.00  0.00    +0.000 OA
ATOM      2  O   UNL     1     111.263 129.571 136.064  0.00  0.00    +0.000 OA
ATOM      3  O   UNL     1     107.984 129.932 135.983  0.00  0.00    +0.000 OA
ATOM      4  O   UNL     1     107.806 128.521 135.738  0.00  0.00    +0.000 OA
ATOM      5  C   UNL     1     110.107 130.407 136.155  0.00  0.00    +0.000 A 
ATOM      6  C   UNL     1     109.822 127.549 135.661  0.00  0.00    +0.000 C 
ATOM      7  C   UNL     1     109.959 129.006 135.912  0.00  0.00    +0.000 A 
ATOM      8  C   UNL     1     108.968 127.643 135.640  0.00  0.00    +0.000 C 
ATOM      9  C   UNL     1     109.139 129.097 135.892  0.00  0.00    +0.000 A 
ATOM     10  C   UNL     1     110.443 129.661 136.044  0.00  0.00    +0.000 A 
ATOM     11  C   UNL     1     109.288 130.496 136.135  0.00  0.00    +0.000 A 
ATOM     12  C   UNL     1     108.625 128.422 135.756  0.00  0.00    +0.000 C 
ATOM     13  C   UNL     1     108.804 129.841 136.003  0.00  0.00    +0.000 A 
ENDROOT
BRANCH   6  14
ATOM     14  C   UNL     1     110.161 126.805 135.550  0.00  0.00    +0.000 A 
ATOM     15  C   UNL     1     110.208 126.482 134.792  0.00  0.00    +0.000 A 
ATOM     16  C   UNL     1     110.452 126.384 136.197  0.00  0.00    +0.000 A 
ATOM     17  C   UNL     1     110.547 125.738 134.681  0.00  0.00    +0.000 A 
ATOM     18  C   UNL     1     110.790 125.640 136.086  0.00  0.00    +0.000 A 
ATOM     19  C   UNL     1     110.838 125.317 135.329  0.00  0.00    +0.000 A 
ENDBRANCH   6  14
BRANCH   5  20
ATOM     20  O   UNL     1     110.591 131.062 136.286  0.00  0.00    +0.000 OA
BRANCH  20  29
ATOM     21  O   UNL     1     110.388 131.205 137.693  0.00  0.00    +0.000 OA
ATOM     22  O   UNL     1     110.239 133.661 137.422  0.00  0.00    +0.000 OA
ATOM     23  O   UNL     1     110.085 132.985 138.919  0.00  0.00    +0.000 OA
ATOM     24  O   UNL     1     110.492 132.699 136.105  0.00  0.00    +0.000 OA
ATOM     25  C   UNL     1     110.289 132.842 137.512  0.00  0.00    +0.000 C 
ATOM     26  C   UNL     1     110.212 132.504 138.261  0.00  0.00    +0.000 C 
ATOM     27  C   UNL     1     110.415 132.361 136.854  0.00  0.00    +0.000 C 
ATOM     28  C   UNL     1     110.261 131.686 138.351  0.00  0.00    +0.000 C 
ATOM     29  C   UNL     1     110.465 131.542 136.944  0.00  0.00    +0.000 C 
BRANCH  28  31
ATOM     30  O   UNL     1     110.759 130.826 139.379  0.00  0.00    +0.000 OA
ATOM     31  C   UNL     1     110.184 131.348 139.100  0.00  0.00    +0.000 C 
ENDBRANCH  28  31
ENDBRANCH  20  29
ENDBRANCH   5  20
TORSDOF 4
ENDMDL
MODEL 8
REMARK VINA RESULT:      -8.8      6.928      8.566
REMARK  Name = 131752464
REMARK  4 active torsions:
REMARK  status: ('A' for Active; 'I' for Inactive)
REMARK    1  A    between atoms: O_2  and  C_15
REMARK    2  A    between atoms: O_2  and  C_17
REMARK    3  A    between atoms: C_14  and  C_16
REMARK    4  A    between atoms: C_18  and  C_26
REMARK                            x       y       z     vdW  Elec       q    Type
REMARK                         _______ _______ _______ _____ _____    ______ ____
ROOT
ATOM      1  O   UNL     1     113.154 127.025 137.769  0.00  0.00    +0.000 OA
ATOM      2  O   UNL     1     112.584 128.379 137.005  0.00  0.00    +0.000 OA
ATOM      3  O   UNL     1     112.959 128.447 140.283  0.00  0.00    +0.000 OA
ATOM      4  O   UNL     1     113.439 127.085 140.285  0.00  0.00    +0.000 OA
ATOM      5  C   UNL     1     112.488 129.079 138.247  0.00  0.00    +0.000 A 
ATOM      6  C   UNL     1     113.449 126.328 138.177  0.00  0.00    +0.000 C 
ATOM      7  C   UNL     1     112.961 127.729 138.221  0.00  0.00    +0.000 A 
ATOM      8  C   UNL     1     113.547 126.346 139.030  0.00  0.00    +0.000 C 
ATOM      9  C   UNL     1     113.054 127.747 139.041  0.00  0.00    +0.000 A 
ATOM     10  C   UNL     1     112.678 128.395 137.824  0.00  0.00    +0.000 A 
ATOM     11  C   UNL     1     112.582 129.095 139.067  0.00  0.00    +0.000 A 
ATOM     12  C   UNL     1     113.348 127.060 139.465  0.00  0.00    +0.000 C 
ATOM     13  C   UNL     1     112.865 128.429 139.463  0.00  0.00    +0.000 A 
ENDROOT
BRANCH   6  14
ATOM     14  C   UNL     1     113.638 125.647 137.751  0.00  0.00    +0.000 A 
ATOM     15  C   UNL     1     113.038 125.143 137.493  0.00  0.00    +0.000 A 
ATOM     16  C   UNL     1     114.426 125.470 137.584  0.00  0.00    +0.000 A 
ATOM     17  C   UNL     1     113.226 124.461 137.068  0.00  0.00    +0.000 A 
ATOM     18  C   UNL     1     114.615 124.789 137.158  0.00  0.00    +0.000 A 
ATOM     19  C   UNL     1     114.015 124.285 136.901  0.00  0.00    +0.000 A 
ENDBRANCH   6  14
BRANCH   5  20
ATOM     20  O   UNL     1     112.205 129.744 137.851  0.00  0.00    +0.000 OA
BRANCH  20  29
ATOM     21  O   UNL     1     110.822 129.647 138.198  0.00  0.00    +0.000 OA
ATOM     22  O   UNL     1     110.757 132.085 138.619  0.00  0.00    +0.000 OA
ATOM     23  O   UNL     1     109.397 131.175 138.825  0.00  0.00    +0.000 OA
ATOM     24  O   UNL     1     112.161 131.370 138.131  0.00  0.00    +0.000 OA
ATOM     25  C   UNL     1     110.779 131.272 138.478  0.00  0.00    +0.000 C 
ATOM     26  C   UNL     1     110.099 130.817 138.582  0.00  0.00    +0.000 C 
ATOM     27  C   UNL     1     111.481 130.914 138.234  0.00  0.00    +0.000 C 
ATOM     28  C   UNL     1     110.121 130.004 138.442  0.00  0.00    +0.000 C 
ATOM     29  C   UNL     1     111.503 130.102 138.094  0.00  0.00    +0.000 C 
BRANCH  28  31
ATOM     30  O   UNL     1     109.233 128.982 137.983  0.00  0.00    +0.000 OA
ATOM     31  C   UNL     1     109.441 129.550 138.545  0.00  0.00    +0.000 C 
ENDBRANCH  28  31
ENDBRANCH  20  29
ENDBRANCH   5  20
TORSDOF 4
ENDMDL
MODEL 9
REMARK VINA RESULT:      -8.8      4.704      6.387
REMARK  Name = 131752464
REMARK  4 active torsions:
REMARK  status: ('A' for Active; 'I' for Inactive)
REMARK    1  A    between atoms: O_2  and  C_15
REMARK    2  A    between atoms: O_2  and  C_17
REMARK    3  A    between atoms: C_14  and  C_16
REMARK    4  A    between atoms: C_18  and  C_26
REMARK                            x       y       z     vdW  Elec       q    Type
REMARK                         _______ _______ _______ _____ _____    ______ ____
ROOT
ATOM      1  O   UNL     1     111.678 125.605 138.251  0.00  0.00    +0.000 OA
ATOM      2  O   UNL     1     111.400 125.958 139.845  0.00  0.00    +0.000 OA
ATOM      3  O   UNL     1     109.019 126.578 137.645  0.00  0.00    +0.000 OA
ATOM      4  O   UNL     1     109.846 126.084 136.569  0.00  0.00    +0.000 OA
ATOM      5  C   UNL     1     110.088 126.437 139.543  0.00  0.00    +0.000 A 
ATOM      6  C   UNL     1     111.810 125.426 137.421  0.00  0.00    +0.000 C 
ATOM      7  C   UNL     1     110.927 125.943 138.496  0.00  0.00    +0.000 A 
ATOM      8  C   UNL     1     111.190 125.588 136.848  0.00  0.00    +0.000 C 
ATOM      9  C   UNL     1     110.331 126.098 137.947  0.00  0.00    +0.000 A 
ATOM     10  C   UNL     1     110.805 126.112 139.295  0.00  0.00    +0.000 A 
ATOM     11  C   UNL     1     109.493 126.592 138.993  0.00  0.00    +0.000 A 
ATOM     12  C   UNL     1     110.446 125.926 137.113  0.00  0.00    +0.000 C 
ATOM     13  C   UNL     1     109.615 126.422 138.195  0.00  0.00    +0.000 A 
ENDROOT
BRANCH   6  14
ATOM     14  C   UNL     1     112.528 125.102 137.175  0.00  0.00    +0.000 A 
ATOM     15  C   UNL     1     112.593 124.288 137.055  0.00  0.00    +0.000 A 
ATOM     16  C   UNL     1     113.180 125.591 137.050  0.00  0.00    +0.000 A 
ATOM     17  C   UNL     1     113.311 123.964 136.810  0.00  0.00    +0.000 A 
ATOM     18  C   UNL     1     113.898 125.267 136.805  0.00  0.00    +0.000 A 
ATOM     19  C   UNL     1     113.963 124.454 136.685  0.00  0.00    +0.000 A 
ENDBRANCH   6  14
BRANCH   5  20
ATOM     20  O   UNL     1     109.966 126.607 140.341  0.00  0.00    +0.000 OA
BRANCH  20  29
ATOM     21  O   UNL     1     109.095 125.525 140.680  0.00  0.00    +0.000 OA
ATOM     22  O   UNL     1     107.662 127.082 141.964  0.00  0.00    +0.000 OA
ATOM     23  O   UNL     1     107.269 125.483 141.874  0.00  0.00    +0.000 OA
ATOM     24  O   UNL     1     109.011 127.644 141.198  0.00  0.00    +0.000 OA
ATOM     25  C   UNL     1     108.140 126.563 141.536  0.00  0.00    +0.000 C 
ATOM     26  C   UNL     1     107.944 125.763 141.490  0.00  0.00    +0.000 C 
ATOM     27  C   UNL     1     108.814 126.844 141.152  0.00  0.00    +0.000 C 
ATOM     28  C   UNL     1     108.421 125.244 141.062  0.00  0.00    +0.000 C 
ATOM     29  C   UNL     1     109.292 126.326 140.724  0.00  0.00    +0.000 C 
BRANCH  28  31
ATOM     30  O   UNL     1     108.790 123.870 141.194  0.00  0.00    +0.000 OA
ATOM     31  C   UNL     1     108.225 124.445 141.018  0.00  0.00    +0.000 C 
ENDBRANCH  28  31
ENDBRANCH  20  29
ENDBRANCH   5  20
TORSDOF 4
ENDMDL
MODEL 10
REMARK VINA RESULT:      -8.8      6.969      8.776
REMARK  Name = 131752464
REMARK  4 active torsions:
REMARK  status: ('A' for Active; 'I' for Inactive)
REMARK    1  A    between atoms: O_2  and  C_15
REMARK    2  A    between atoms: O_2  and  C_17
REMARK    3  A    between atoms: C_14  and  C_16
REMARK    4  A    between atoms: C_18  and  C_26
REMARK                            x       y       z     vdW  Elec       q    Type
REMARK                         _______ _______ _______ _____ _____    ______ ____
ROOT
ATOM      1  O   UNL     1     110.279 130.530 136.235  0.00  0.00    +0.000 OA
ATOM      2  O   UNL     1     111.358 129.333 135.851  0.00  0.00    +0.000 OA
ATOM      3  O   UNL     1     108.131 128.643 135.777  0.00  0.00    +0.000 OA
ATOM      4  O   UNL     1     107.805 129.991 136.175  0.00  0.00    +0.000 OA
ATOM      5  C   UNL     1     110.296 128.404 135.626  0.00  0.00    +0.000 A 
ATOM      6  C   UNL     1     109.709 131.142 136.432  0.00  0.00    +0.000 C 
ATOM      7  C   UNL     1     110.000 129.746 136.021  0.00  0.00    +0.000 A 
ATOM      8  C   UNL     1     108.869 130.963 136.413  0.00  0.00    +0.000 C 
ATOM      9  C   UNL     1     109.193 129.572 136.002  0.00  0.00    +0.000 A 
ATOM     10  C   UNL     1     110.551 129.161 135.833  0.00  0.00    +0.000 A 
ATOM     11  C   UNL     1     109.489 128.232 135.607  0.00  0.00    +0.000 A 
ATOM     12  C   UNL     1     108.610 130.172 136.196  0.00  0.00    +0.000 C 
ATOM     13  C   UNL     1     108.938 128.816 135.796  0.00  0.00    +0.000 A 
ENDROOT
BRANCH   6  14
ATOM     14  C   UNL     1     109.967 131.898 136.638  0.00  0.00    +0.000 A 
ATOM     15  C   UNL     1     110.164 132.067 137.421  0.00  0.00    +0.000 A 
ATOM     16  C   UNL     1     110.029 132.485 136.062  0.00  0.00    +0.000 A 
ATOM     17  C   UNL     1     110.422 132.823 137.628  0.00  0.00    +0.000 A 
ATOM     18  C   UNL     1     110.287 133.241 136.267  0.00  0.00    +0.000 A 
ATOM     19  C   UNL     1     110.483 133.410 137.050  0.00  0.00    +0.000 A 
ENDBRANCH   6  14
BRANCH   5  20
ATOM     20  O   UNL     1     110.847 127.820 135.437  0.00  0.00    +0.000 OA
BRANCH  20  29
ATOM     21  O   UNL     1     110.895 127.102 136.672  0.00  0.00    +0.000 OA
ATOM     22  O   UNL     1     110.749 124.964 135.435  0.00  0.00    +0.000 OA
ATOM     23  O   UNL     1     110.846 124.959 137.081  0.00  0.00    +0.000 OA
ATOM     24  O   UNL     1     110.750 126.394 134.612  0.00  0.00    +0.000 OA
ATOM     25  C   UNL     1     110.798 125.676 135.847  0.00  0.00    +0.000 C 
ATOM     26  C   UNL     1     110.846 125.675 136.671  0.00  0.00    +0.000 C 
ATOM     27  C   UNL     1     110.798 126.392 135.436  0.00  0.00    +0.000 C 
ATOM     28  C   UNL     1     110.895 126.388 137.083  0.00  0.00    +0.000 C 
ATOM     29  C   UNL     1     110.847 127.105 135.848  0.00  0.00    +0.000 C 
BRANCH  28  31
ATOM     30  O   UNL     1     111.500 126.858 138.289  0.00  0.00    +0.000 OA
ATOM     31  C   UNL     1     110.943 126.385 137.906  0.00  0.00    +0.000 C 
ENDBRANCH  28  31
ENDBRANCH  20  29
ENDBRANCH   5  20
TORSDOF 4
ENDMDL
