MODEL 1
REMARK VINA RESULT:      -8.0      0.000      0.000
REMARK  Name = 44260027
REMARK  5 active torsions:
REMARK  status: ('A' for Active; 'I' for Inactive)
REMARK    1  A    between atoms: O_2  and  C_12
REMARK    2  A    between atoms: O_3  and  C_14
REMARK    3  A    between atoms: O_4  and  C_17
REMARK    4  A    between atoms: O_7  and  C_23
REMARK    5  A    between atoms: C_11  and  C_15
REMARK                            x       y       z     vdW  Elec       q    Type
REMARK                         _______ _______ _______ _____ _____    ______ ____
ROOT
ATOM      1  O   UNL     1     104.348 124.238 146.802  0.00  0.00    +0.000 OA
ATOM      2  O   UNL     1     101.726 125.193 147.549  0.00  0.00    +0.000 OA
ATOM      3  O   UNL     1     102.918 125.885 147.972  0.00  0.00    +0.000 OA
ATOM      4  C   UNL     1     103.051 124.709 147.171  0.00  0.00    +0.000 A 
ATOM      5  C   UNL     1     103.527 124.160 146.781  0.00  0.00    +0.000 A 
ATOM      6  C   UNL     1     104.693 124.865 147.213  0.00  0.00    +0.000 A 
ATOM      7  C   UNL     1     104.217 125.414 147.603  0.00  0.00    +0.000 A 
ATOM      8  C   UNL     1     103.395 125.336 147.582  0.00  0.00    +0.000 A 
ATOM      9  C   UNL     1     103.180 123.502 146.350  0.00  0.00    +0.000 A 
ATOM     10  C   UNL     1     102.194 124.639 147.157  0.00  0.00    +0.000 A 
ATOM     11  C   UNL     1     102.326 123.416 146.324  0.00  0.00    +0.000 A 
ATOM     12  C   UNL     1     101.829 123.989 146.731  0.00  0.00    +0.000 A 
ENDROOT
BRANCH   6  14
ATOM     13  O   UNL     1     107.132 125.704 145.982  0.00  0.00    +0.000 OA
ATOM     14  C   UNL     1     105.513 124.943 147.234  0.00  0.00    +0.000 A 
ATOM     15  C   UNL     1     105.912 125.284 146.597  0.00  0.00    +0.000 A 
ATOM     16  C   UNL     1     105.937 124.679 147.891  0.00  0.00    +0.000 A 
ATOM     17  C   UNL     1     106.733 125.363 146.618  0.00  0.00    +0.000 A 
ATOM     18  C   UNL     1     106.757 124.757 147.912  0.00  0.00    +0.000 A 
ATOM     19  C   UNL     1     107.156 125.099 147.276  0.00  0.00    +0.000 A 
BRANCH  19  20
ATOM     20  O   UNL     1     107.977 125.177 147.297  0.00  0.00    +0.000 OA
ATOM     21  C   UNL     1     108.395 124.955 147.972  0.00  0.00    +0.000 C 
ENDBRANCH  19  20
ENDBRANCH   6  14
BRANCH   7  22
ATOM     22  O   UNL     1     104.560 126.041 148.014  0.00  0.00    +0.000 OA
ATOM     23  C   UNL     1     104.135 126.737 148.138  0.00  0.00    +0.000 C 
ENDBRANCH   7  22
BRANCH   9  24
ATOM     24  O   UNL     1     103.665 122.958 145.963  0.00  0.00    +0.000 OA
ATOM     25  C   UNL     1     103.621 122.879 145.143  0.00  0.00    +0.000 C 
ENDBRANCH   9  24
BRANCH  11  26
ATOM     26  O   UNL     1     101.984 122.788 145.913  0.00  0.00    +0.000 OA
ATOM     27  C   UNL     1     101.163 122.739 145.842  0.00  0.00    +0.000 C 
ENDBRANCH  11  26
TORSDOF 5
ENDMDL
MODEL 2
REMARK VINA RESULT:      -7.6     12.926     13.878
REMARK  Name = 44260027
REMARK  5 active torsions:
REMARK  status: ('A' for Active; 'I' for Inactive)
REMARK    1  A    between atoms: O_2  and  C_12
REMARK    2  A    between atoms: O_3  and  C_14
REMARK    3  A    between atoms: O_4  and  C_17
REMARK    4  A    between atoms: O_7  and  C_23
REMARK    5  A    between atoms: C_11  and  C_15
REMARK                            x       y       z     vdW  Elec       q    Type
REMARK                         _______ _______ _______ _____ _____    ______ ____
ROOT
ATOM      1  O   UNL     1     112.862 126.709 136.522  0.00  0.00    +0.000 OA
ATOM      2  O   UNL     1     110.518 125.348 135.524  0.00  0.00    +0.000 OA
ATOM      3  O   UNL     1     110.693 126.766 135.331  0.00  0.00    +0.000 OA
ATOM      4  C   UNL     1     111.704 126.035 136.029  0.00  0.00    +0.000 A 
ATOM      5  C   UNL     1     112.427 126.016 136.426  0.00  0.00    +0.000 A 
ATOM      6  C   UNL     1     112.576 127.423 136.221  0.00  0.00    +0.000 A 
ATOM      7  C   UNL     1     111.853 127.442 135.824  0.00  0.00    +0.000 A 
ATOM      8  C   UNL     1     111.416 126.747 135.728  0.00  0.00    +0.000 A 
ATOM      9  C   UNL     1     112.736 125.280 136.744  0.00  0.00    +0.000 A 
ATOM     10  C   UNL     1     111.239 125.319 135.922  0.00  0.00    +0.000 A 
ATOM     11  C   UNL     1     112.286 124.554 136.647  0.00  0.00    +0.000 A 
ATOM     12  C   UNL     1     111.533 124.574 136.233  0.00  0.00    +0.000 A 
ENDROOT
BRANCH   6  14
ATOM     13  O   UNL     1     113.306 129.687 137.805  0.00  0.00    +0.000 OA
ATOM     14  C   UNL     1     113.011 128.116 136.318  0.00  0.00    +0.000 A 
ATOM     15  C   UNL     1     112.941 128.554 137.013  0.00  0.00    +0.000 A 
ATOM     16  C   UNL     1     113.518 128.372 135.719  0.00  0.00    +0.000 A 
ATOM     17  C   UNL     1     113.377 129.249 137.109  0.00  0.00    +0.000 A 
ATOM     18  C   UNL     1     113.954 129.065 135.815  0.00  0.00    +0.000 A 
ATOM     19  C   UNL     1     113.883 129.503 136.510  0.00  0.00    +0.000 A 
BRANCH  19  20
ATOM     20  O   UNL     1     114.319 130.198 136.607  0.00  0.00    +0.000 OA
ATOM     21  C   UNL     1     114.807 130.466 135.998  0.00  0.00    +0.000 C 
ENDBRANCH  19  20
ENDBRANCH   6  14
BRANCH   7  22
ATOM     22  O   UNL     1     111.566 128.154 135.523  0.00  0.00    +0.000 OA
ATOM     23  C   UNL     1     110.764 128.234 135.347  0.00  0.00    +0.000 C 
ENDBRANCH   7  22
BRANCH   9  24
ATOM     24  O   UNL     1     113.460 125.271 137.139  0.00  0.00    +0.000 OA
ATOM     25  C   UNL     1     114.114 124.909 136.791  0.00  0.00    +0.000 C 
ENDBRANCH   9  24
BRANCH  11  26
ATOM     26  O   UNL     1     112.575 123.843 136.948  0.00  0.00    +0.000 OA
ATOM     27  C   UNL     1     112.060 123.215 137.090  0.00  0.00    +0.000 C 
ENDBRANCH  11  26
TORSDOF 5
ENDMDL
MODEL 3
REMARK VINA RESULT:      -7.5      1.303      2.421
REMARK  Name = 44260027
REMARK  5 active torsions:
REMARK  status: ('A' for Active; 'I' for Inactive)
REMARK    1  A    between atoms: O_2  and  C_12
REMARK    2  A    between atoms: O_3  and  C_14
REMARK    3  A    between atoms: O_4  and  C_17
REMARK    4  A    between atoms: O_7  and  C_23
REMARK    5  A    between atoms: C_11  and  C_15
REMARK                            x       y       z     vdW  Elec       q    Type
REMARK                         _______ _______ _______ _____ _____    ______ ____
ROOT
ATOM      1  O   UNL     1     104.571 124.728 146.794  0.00  0.00    +0.000 OA
ATOM      2  O   UNL     1     103.272 122.816 145.062  0.00  0.00    +0.000 OA
ATOM      3  O   UNL     1     104.479 123.491 144.653  0.00  0.00    +0.000 OA
ATOM      4  C   UNL     1     103.928 123.783 145.939  0.00  0.00    +0.000 A 
ATOM      5  C   UNL     1     103.959 124.195 146.653  0.00  0.00    +0.000 A 
ATOM      6  C   UNL     1     105.154 124.850 146.223  0.00  0.00    +0.000 A 
ATOM      7  C   UNL     1     105.123 124.438 145.509  0.00  0.00    +0.000 A 
ATOM      8  C   UNL     1     104.510 123.904 145.367  0.00  0.00    +0.000 A 
ATOM      9  C   UNL     1     103.358 124.077 147.256  0.00  0.00    +0.000 A 
ATOM     10  C   UNL     1     103.295 123.223 145.778  0.00  0.00    +0.000 A 
ATOM     11  C   UNL     1     102.718 123.523 147.114  0.00  0.00    +0.000 A 
ATOM     12  C   UNL     1     102.686 123.093 146.370  0.00  0.00    +0.000 A 
ENDROOT
BRANCH   6  14
ATOM     13  O   UNL     1     107.776 125.400 147.219  0.00  0.00    +0.000 OA
ATOM     14  C   UNL     1     105.767 125.383 146.365  0.00  0.00    +0.000 A 
ATOM     15  C   UNL     1     106.464 125.125 146.721  0.00  0.00    +0.000 A 
ATOM     16  C   UNL     1     105.682 126.176 146.151  0.00  0.00    +0.000 A 
ATOM     17  C   UNL     1     107.078 125.659 146.863  0.00  0.00    +0.000 A 
ATOM     18  C   UNL     1     106.295 126.709 146.293  0.00  0.00    +0.000 A 
ATOM     19  C   UNL     1     106.993 126.451 146.649  0.00  0.00    +0.000 A 
BRANCH  19  20
ATOM     20  O   UNL     1     107.606 126.984 146.791  0.00  0.00    +0.000 OA
ATOM     21  C   UNL     1     107.529 127.772 146.559  0.00  0.00    +0.000 C 
ENDBRANCH  19  20
ENDBRANCH   6  14
BRANCH   7  22
ATOM     22  O   UNL     1     105.705 124.559 144.937  0.00  0.00    +0.000 OA
ATOM     23  C   UNL     1     105.576 124.317 144.159  0.00  0.00    +0.000 C 
ENDBRANCH   7  22
BRANCH   9  24
ATOM     24  O   UNL     1     103.397 124.494 147.967  0.00  0.00    +0.000 OA
ATOM     25  C   UNL     1     102.848 125.088 148.126  0.00  0.00    +0.000 C 
ENDBRANCH   9  24
BRANCH  11  26
ATOM     26  O   UNL     1     102.137 123.403 147.687  0.00  0.00    +0.000 OA
ATOM     27  C   UNL     1     101.647 122.740 147.647  0.00  0.00    +0.000 C 
ENDBRANCH  11  26
TORSDOF 5
ENDMDL
MODEL 4
REMARK VINA RESULT:      -7.5      1.214      1.575
REMARK  Name = 44260027
REMARK  5 active torsions:
REMARK  status: ('A' for Active; 'I' for Inactive)
REMARK    1  A    between atoms: O_2  and  C_12
REMARK    2  A    between atoms: O_3  and  C_14
REMARK    3  A    between atoms: O_4  and  C_17
REMARK    4  A    between atoms: O_7  and  C_23
REMARK    5  A    between atoms: C_11  and  C_15
REMARK                            x       y       z     vdW  Elec       q    Type
REMARK                         _______ _______ _______ _____ _____    ______ ____
ROOT
ATOM      1  O   UNL     1     103.845 124.534 146.622  0.00  0.00    +0.000 OA
ATOM      2  O   UNL     1     102.538 123.968 149.135  0.00  0.00    +0.000 OA
ATOM      3  O   UNL     1     103.724 124.787 149.081  0.00  0.00    +0.000 OA
ATOM      4  C   UNL     1     103.198 124.253 147.864  0.00  0.00    +0.000 A 
ATOM      5  C   UNL     1     103.239 124.169 147.044  0.00  0.00    +0.000 A 
ATOM      6  C   UNL     1     104.412 124.983 147.018  0.00  0.00    +0.000 A 
ATOM      7  C   UNL     1     104.372 125.068 147.838  0.00  0.00    +0.000 A 
ATOM      8  C   UNL     1     103.765 124.702 148.261  0.00  0.00    +0.000 A 
ATOM      9  C   UNL     1     102.654 123.703 146.619  0.00  0.00    +0.000 A 
ATOM     10  C   UNL     1     102.571 123.878 148.316  0.00  0.00    +0.000 A 
ATOM     11  C   UNL     1     102.020 123.320 147.054  0.00  0.00    +0.000 A 
ATOM     12  C   UNL     1     101.978 123.408 147.909  0.00  0.00    +0.000 A 
ENDROOT
BRANCH   6  14
ATOM     13  O   UNL     1     107.066 124.935 145.958  0.00  0.00    +0.000 OA
ATOM     14  C   UNL     1     105.019 125.348 146.596  0.00  0.00    +0.000 A 
ATOM     15  C   UNL     1     105.739 124.959 146.488  0.00  0.00    +0.000 A 
ATOM     16  C   UNL     1     104.907 126.103 146.280  0.00  0.00    +0.000 A 
ATOM     17  C   UNL     1     106.346 125.325 146.065  0.00  0.00    +0.000 A 
ATOM     18  C   UNL     1     105.514 126.468 145.858  0.00  0.00    +0.000 A 
ATOM     19  C   UNL     1     106.234 126.079 145.750  0.00  0.00    +0.000 A 
BRANCH  19  20
ATOM     20  O   UNL     1     106.841 126.444 145.327  0.00  0.00    +0.000 OA
ATOM     21  C   UNL     1     106.694 127.144 144.917  0.00  0.00    +0.000 C 
ENDBRANCH  19  20
ENDBRANCH   6  14
BRANCH   7  22
ATOM     22  O   UNL     1     104.938 125.517 148.235  0.00  0.00    +0.000 OA
ATOM     23  C   UNL     1     104.878 125.631 149.050  0.00  0.00    +0.000 C 
ENDBRANCH   7  22
BRANCH   9  24
ATOM     24  O   UNL     1     102.703 123.624 145.800  0.00  0.00    +0.000 OA
ATOM     25  C   UNL     1     102.910 122.898 145.468  0.00  0.00    +0.000 C 
ENDBRANCH   9  24
BRANCH  11  26
ATOM     26  O   UNL     1     101.455 122.871 146.655  0.00  0.00    +0.000 OA
ATOM     27  C   UNL     1     100.715 122.740 146.997  0.00  0.00    +0.000 C 
ENDBRANCH  11  26
TORSDOF 5
ENDMDL
MODEL 5
REMARK VINA RESULT:      -7.4      7.350      8.569
REMARK  Name = 44260027
REMARK  5 active torsions:
REMARK  status: ('A' for Active; 'I' for Inactive)
REMARK    1  A    between atoms: O_2  and  C_12
REMARK    2  A    between atoms: O_3  and  C_14
REMARK    3  A    between atoms: O_4  and  C_17
REMARK    4  A    between atoms: O_7  and  C_23
REMARK    5  A    between atoms: C_11  and  C_15
REMARK                            x       y       z     vdW  Elec       q    Type
REMARK                         _______ _______ _______ _____ _____    ______ ____
ROOT
ATOM      1  O   UNL     1     103.510 130.152 142.284  0.00  0.00    +0.000 OA
ATOM      2  O   UNL     1     104.301 127.709 140.962  0.00  0.00    +0.000 OA
ATOM      3  O   UNL     1     103.382 128.629 140.338  0.00  0.00    +0.000 OA
ATOM      4  C   UNL     1     103.902 128.944 141.631  0.00  0.00    +0.000 A 
ATOM      5  C   UNL     1     103.944 129.452 142.280  0.00  0.00    +0.000 A 
ATOM      6  C   UNL     1     103.032 130.346 141.640  0.00  0.00    +0.000 A 
ATOM      7  C   UNL     1     102.989 129.838 140.991  0.00  0.00    +0.000 A 
ATOM      8  C   UNL     1     103.425 129.137 140.987  0.00  0.00    +0.000 A 
ATOM      9  C   UNL     1     104.438 129.261 142.957  0.00  0.00    +0.000 A 
ATOM     10  C   UNL     1     104.350 128.210 141.614  0.00  0.00    +0.000 A 
ATOM     11  C   UNL     1     104.893 128.533 142.959  0.00  0.00    +0.000 A 
ATOM     12  C   UNL     1     104.849 128.003 142.282  0.00  0.00    +0.000 A 
ENDROOT
BRANCH   6  14
ATOM     13  O   UNL     1     102.808 133.124 141.006  0.00  0.00    +0.000 OA
ATOM     14  C   UNL     1     102.597 131.046 141.644  0.00  0.00    +0.000 A 
ATOM     15  C   UNL     1     102.920 131.734 141.323  0.00  0.00    +0.000 A 
ATOM     16  C   UNL     1     101.839 131.060 141.970  0.00  0.00    +0.000 A 
ATOM     17  C   UNL     1     102.485 132.436 141.327  0.00  0.00    +0.000 A 
ATOM     18  C   UNL     1     101.404 131.761 141.974  0.00  0.00    +0.000 A 
ATOM     19  C   UNL     1     101.727 132.449 141.653  0.00  0.00    +0.000 A 
BRANCH  19  20
ATOM     20  O   UNL     1     101.292 133.150 141.657  0.00  0.00    +0.000 OA
ATOM     21  C   UNL     1     100.711 133.271 142.229  0.00  0.00    +0.000 C 
ENDBRANCH  19  20
ENDBRANCH   6  14
BRANCH   7  22
ATOM     22  O   UNL     1     102.512 130.031 140.347  0.00  0.00    +0.000 OA
ATOM     23  C   UNL     1     102.266 129.442 139.824  0.00  0.00    +0.000 C 
ENDBRANCH   7  22
BRANCH   9  24
ATOM     24  O   UNL     1     104.474 129.775 143.602  0.00  0.00    +0.000 OA
ATOM     25  C   UNL     1     105.173 130.182 143.765  0.00  0.00    +0.000 C 
ENDBRANCH   9  24
BRANCH  11  26
ATOM     26  O   UNL     1     105.370 128.342 143.604  0.00  0.00    +0.000 OA
ATOM     27  C   UNL     1     105.609 127.561 143.724  0.00  0.00    +0.000 C 
ENDBRANCH  11  26
TORSDOF 5
ENDMDL
MODEL 6
REMARK VINA RESULT:      -7.4      9.152     10.829
REMARK  Name = 44260027
REMARK  5 active torsions:
REMARK  status: ('A' for Active; 'I' for Inactive)
REMARK    1  A    between atoms: O_2  and  C_12
REMARK    2  A    between atoms: O_3  and  C_14
REMARK    3  A    between atoms: O_4  and  C_17
REMARK    4  A    between atoms: O_7  and  C_23
REMARK    5  A    between atoms: C_11  and  C_15
REMARK                            x       y       z     vdW  Elec       q    Type
REMARK                         _______ _______ _______ _____ _____    ______ ____
ROOT
ATOM      1  O   UNL     1     111.581 131.395 145.213  0.00  0.00    +0.000 OA
ATOM      2  O   UNL     1     112.332 131.644 142.435  0.00  0.00    +0.000 OA
ATOM      3  O   UNL     1     112.342 132.787 143.314  0.00  0.00    +0.000 OA
ATOM      4  C   UNL     1     111.952 131.517 143.839  0.00  0.00    +0.000 A 
ATOM      5  C   UNL     1     111.699 131.052 144.473  0.00  0.00    +0.000 A 
ATOM      6  C   UNL     1     111.718 132.201 145.322  0.00  0.00    +0.000 A 
ATOM      7  C   UNL     1     111.971 132.665 144.689  0.00  0.00    +0.000 A 
ATOM      8  C   UNL     1     112.089 132.323 143.947  0.00  0.00    +0.000 A 
ATOM      9  C   UNL     1     111.553 130.211 144.372  0.00  0.00    +0.000 A 
ATOM     10  C   UNL     1     112.078 131.172 143.061  0.00  0.00    +0.000 A 
ATOM     11  C   UNL     1     111.673 129.849 143.602  0.00  0.00    +0.000 A 
ATOM     12  C   UNL     1     111.938 130.333 142.942  0.00  0.00    +0.000 A 
ENDROOT
BRANCH   6  14
ATOM     13  O   UNL     1     110.026 133.564 147.180  0.00  0.00    +0.000 OA
ATOM     14  C   UNL     1     111.601 132.543 146.063  0.00  0.00    +0.000 A 
ATOM     15  C   UNL     1     110.872 132.882 146.250  0.00  0.00    +0.000 A 
ATOM     16  C   UNL     1     112.212 132.547 146.618  0.00  0.00    +0.000 A 
ATOM     17  C   UNL     1     110.755 133.225 146.992  0.00  0.00    +0.000 A 
ATOM     18  C   UNL     1     112.094 132.889 147.359  0.00  0.00    +0.000 A 
ATOM     19  C   UNL     1     111.366 133.228 147.546  0.00  0.00    +0.000 A 
BRANCH  19  20
ATOM     20  O   UNL     1     111.248 133.571 148.288  0.00  0.00    +0.000 OA
ATOM     21  C   UNL     1     111.753 133.383 148.913  0.00  0.00    +0.000 C 
ENDBRANCH  19  20
ENDBRANCH   6  14
BRANCH   7  22
ATOM     22  O   UNL     1     112.108 133.472 144.797  0.00  0.00    +0.000 OA
ATOM     23  C   UNL     1     112.111 133.980 144.148  0.00  0.00    +0.000 C 
ENDBRANCH   7  22
BRANCH   9  24
ATOM     24  O   UNL     1     111.299 129.755 145.011  0.00  0.00    +0.000 OA
ATOM     25  C   UNL     1     111.800 129.184 145.334  0.00  0.00    +0.000 C 
ENDBRANCH   9  24
BRANCH  11  26
ATOM     26  O   UNL     1     111.536 129.043 143.497  0.00  0.00    +0.000 OA
ATOM     27  C   UNL     1     111.502 128.726 142.735  0.00  0.00    +0.000 C 
ENDBRANCH  11  26
TORSDOF 5
ENDMDL
MODEL 7
REMARK VINA RESULT:      -7.3     11.814     13.635
REMARK  Name = 44260027
REMARK  5 active torsions:
REMARK  status: ('A' for Active; 'I' for Inactive)
REMARK    1  A    between atoms: O_2  and  C_12
REMARK    2  A    between atoms: O_3  and  C_14
REMARK    3  A    between atoms: O_4  and  C_17
REMARK    4  A    between atoms: O_7  and  C_23
REMARK    5  A    between atoms: C_11  and  C_15
REMARK                            x       y       z     vdW  Elec       q    Type
REMARK                         _______ _______ _______ _____ _____    ______ ____
ROOT
ATOM      1  O   UNL     1     110.966 127.147 135.977  0.00  0.00    +0.000 OA
ATOM      2  O   UNL     1     112.449 129.513 135.238  0.00  0.00    +0.000 OA
ATOM      3  O   UNL     1     113.116 128.358 135.787  0.00  0.00    +0.000 OA
ATOM      4  C   UNL     1     111.698 128.317 135.611  0.00  0.00    +0.000 A 
ATOM      5  C   UNL     1     110.982 127.913 135.674  0.00  0.00    +0.000 A 
ATOM      6  C   UNL     1     111.667 126.783 136.216  0.00  0.00    +0.000 A 
ATOM      7  C   UNL     1     112.383 127.186 136.153  0.00  0.00    +0.000 A 
ATOM      8  C   UNL     1     112.399 127.954 135.850  0.00  0.00    +0.000 A 
ATOM      9  C   UNL     1     110.245 128.281 135.428  0.00  0.00    +0.000 A 
ATOM     10  C   UNL     1     111.728 129.118 135.297  0.00  0.00    +0.000 A 
ATOM     11  C   UNL     1     110.255 129.080 135.112  0.00  0.00    +0.000 A 
ATOM     12  C   UNL     1     111.002 129.501 135.046  0.00  0.00    +0.000 A 
ENDROOT
BRANCH   6  14
ATOM     13  O   UNL     1     111.336 125.000 138.426  0.00  0.00    +0.000 OA
ATOM     14  C   UNL     1     111.651 126.016 136.519  0.00  0.00    +0.000 A 
ATOM     15  C   UNL     1     111.502 125.892 137.321  0.00  0.00    +0.000 A 
ATOM     16  C   UNL     1     111.785 125.372 136.021  0.00  0.00    +0.000 A 
ATOM     17  C   UNL     1     111.486 125.124 137.624  0.00  0.00    +0.000 A 
ATOM     18  C   UNL     1     111.770 124.605 136.323  0.00  0.00    +0.000 A 
ATOM     19  C   UNL     1     111.620 124.481 137.125  0.00  0.00    +0.000 A 
BRANCH  19  20
ATOM     20  O   UNL     1     111.605 123.714 137.428  0.00  0.00    +0.000 OA
ATOM     21  C   UNL     1     111.971 123.100 137.016  0.00  0.00    +0.000 C 
ENDBRANCH  19  20
ENDBRANCH   6  14
BRANCH   7  22
ATOM     22  O   UNL     1     113.085 126.824 136.392  0.00  0.00    +0.000 OA
ATOM     23  C   UNL     1     113.766 127.275 136.505  0.00  0.00    +0.000 C 
ENDBRANCH   7  22
BRANCH   9  24
ATOM     24  O   UNL     1     109.533 127.870 135.495  0.00  0.00    +0.000 OA
ATOM     25  C   UNL     1     108.962 128.121 136.035  0.00  0.00    +0.000 C 
ENDBRANCH   9  24
BRANCH  11  26
ATOM     26  O   UNL     1     109.552 129.441 134.874  0.00  0.00    +0.000 OA
ATOM     27  C   UNL     1     109.559 130.224 134.612  0.00  0.00    +0.000 C 
ENDBRANCH  11  26
TORSDOF 5
ENDMDL
MODEL 8
REMARK VINA RESULT:      -7.3      1.282      4.655
REMARK  Name = 44260027
REMARK  5 active torsions:
REMARK  status: ('A' for Active; 'I' for Inactive)
REMARK    1  A    between atoms: O_2  and  C_12
REMARK    2  A    between atoms: O_3  and  C_14
REMARK    3  A    between atoms: O_4  and  C_17
REMARK    4  A    between atoms: O_7  and  C_23
REMARK    5  A    between atoms: C_11  and  C_15
REMARK                            x       y       z     vdW  Elec       q    Type
REMARK                         _______ _______ _______ _____ _____    ______ ____
ROOT
ATOM      1  O   UNL     1     104.098 124.856 147.045  0.00  0.00    +0.000 OA
ATOM      2  O   UNL     1     106.264 124.555 145.158  0.00  0.00    +0.000 OA
ATOM      3  O   UNL     1     105.109 123.693 145.109  0.00  0.00    +0.000 OA
ATOM      4  C   UNL     1     105.170 124.708 146.112  0.00  0.00    +0.000 A 
ATOM      5  C   UNL     1     104.833 125.096 146.758  0.00  0.00    +0.000 A 
ATOM      6  C   UNL     1     103.699 124.228 146.687  0.00  0.00    +0.000 A 
ATOM      7  C   UNL     1     104.037 123.840 146.042  0.00  0.00    +0.000 A 
ATOM      8  C   UNL     1     104.772 124.080 145.754  0.00  0.00    +0.000 A 
ATOM      9  C   UNL     1     105.238 125.751 147.140  0.00  0.00    +0.000 A 
ATOM     10  C   UNL     1     105.935 124.948 145.803  0.00  0.00    +0.000 A 
ATOM     11  C   UNL     1     106.003 126.005 146.845  0.00  0.00    +0.000 A 
ATOM     12  C   UNL     1     106.355 125.601 146.172  0.00  0.00    +0.000 A 
ENDROOT
BRANCH   6  14
ATOM     13  O   UNL     1     100.846 124.384 146.625  0.00  0.00    +0.000 OA
ATOM     14  C   UNL     1     102.965 123.988 146.974  0.00  0.00    +0.000 A 
ATOM     15  C   UNL     1     102.274 124.306 146.656  0.00  0.00    +0.000 A 
ATOM     16  C   UNL     1     102.920 123.429 147.580  0.00  0.00    +0.000 A 
ATOM     17  C   UNL     1     101.538 124.066 146.943  0.00  0.00    +0.000 A 
ATOM     18  C   UNL     1     102.186 123.189 147.867  0.00  0.00    +0.000 A 
ATOM     19  C   UNL     1     101.494 123.508 147.549  0.00  0.00    +0.000 A 
BRANCH  19  20
ATOM     20  O   UNL     1     100.759 123.268 147.836  0.00  0.00    +0.000 OA
ATOM     21  C   UNL     1     100.712 122.826 148.531  0.00  0.00    +0.000 C 
ENDBRANCH  19  20
ENDBRANCH   6  14
BRANCH   7  22
ATOM     22  O   UNL     1     103.639 123.213 145.683  0.00  0.00    +0.000 OA
ATOM     23  C   UNL     1     103.953 122.856 145.009  0.00  0.00    +0.000 C 
ENDBRANCH   7  22
BRANCH   9  24
ATOM     24  O   UNL     1     104.893 126.133 147.785  0.00  0.00    +0.000 OA
ATOM     25  C   UNL     1     105.242 126.078 148.530  0.00  0.00    +0.000 C 
ENDBRANCH   9  24
BRANCH  11  26
ATOM     26  O   UNL     1     106.399 126.633 147.205  0.00  0.00    +0.000 OA
ATOM     27  C   UNL     1     107.064 126.963 146.844  0.00  0.00    +0.000 C 
ENDBRANCH  11  26
TORSDOF 5
ENDMDL
MODEL 9
REMARK VINA RESULT:      -7.2      2.607      3.672
REMARK  Name = 44260027
REMARK  5 active torsions:
REMARK  status: ('A' for Active; 'I' for Inactive)
REMARK    1  A    between atoms: O_2  and  C_12
REMARK    2  A    between atoms: O_3  and  C_14
REMARK    3  A    between atoms: O_4  and  C_17
REMARK    4  A    between atoms: O_7  and  C_23
REMARK    5  A    between atoms: C_11  and  C_15
REMARK                            x       y       z     vdW  Elec       q    Type
REMARK                         _______ _______ _______ _____ _____    ______ ____
ROOT
ATOM      1  O   UNL     1     106.365 125.258 145.737  0.00  0.00    +0.000 OA
ATOM      2  O   UNL     1     106.291 127.545 143.974  0.00  0.00    +0.000 OA
ATOM      3  O   UNL     1     106.642 127.689 145.366  0.00  0.00    +0.000 OA
ATOM      4  C   UNL     1     106.328 126.388 144.864  0.00  0.00    +0.000 A 
ATOM      5  C   UNL     1     106.236 125.578 144.988  0.00  0.00    +0.000 A 
ATOM      6  C   UNL     1     106.586 125.748 146.363  0.00  0.00    +0.000 A 
ATOM      7  C   UNL     1     106.678 126.558 146.239  0.00  0.00    +0.000 A 
ATOM      8  C   UNL     1     106.549 126.879 145.489  0.00  0.00    +0.000 A 
ATOM      9  C   UNL     1     106.005 125.057 144.344  0.00  0.00    +0.000 A 
ATOM     10  C   UNL     1     106.197 126.734 144.088  0.00  0.00    +0.000 A 
ATOM     11  C   UNL     1     105.870 125.384 143.562  0.00  0.00    +0.000 A 
ATOM     12  C   UNL     1     105.966 126.229 143.433  0.00  0.00    +0.000 A 
ENDROOT
BRANCH   6  14
ATOM     13  O   UNL     1     105.567 124.820 148.867  0.00  0.00    +0.000 OA
ATOM     14  C   UNL     1     106.715 125.428 147.112  0.00  0.00    +0.000 A 
ATOM     15  C   UNL     1     106.077 125.284 147.614  0.00  0.00    +0.000 A 
ATOM     16  C   UNL     1     107.482 125.251 147.359  0.00  0.00    +0.000 A 
ATOM     17  C   UNL     1     106.205 124.964 148.364  0.00  0.00    +0.000 A 
ATOM     18  C   UNL     1     107.611 124.931 148.108  0.00  0.00    +0.000 A 
ATOM     19  C   UNL     1     106.973 124.788 148.611  0.00  0.00    +0.000 A 
BRANCH  19  20
ATOM     20  O   UNL     1     107.102 124.467 149.361  0.00  0.00    +0.000 OA
ATOM     21  C   UNL     1     107.870 124.303 149.612  0.00  0.00    +0.000 C 
ENDBRANCH  19  20
ENDBRANCH   6  14
BRANCH   7  22
ATOM     22  O   UNL     1     106.900 127.049 146.864  0.00  0.00    +0.000 OA
ATOM     23  C   UNL     1     106.804 127.866 146.802  0.00  0.00    +0.000 C 
ENDBRANCH   7  22
BRANCH   9  24
ATOM     24  O   UNL     1     105.915 124.247 144.478  0.00  0.00    +0.000 OA
ATOM     25  C   UNL     1     105.161 123.912 144.480  0.00  0.00    +0.000 C 
ENDBRANCH   9  24
BRANCH  11  26
ATOM     26  O   UNL     1     105.648 124.892 142.938  0.00  0.00    +0.000 OA
ATOM     27  C   UNL     1     105.847 125.093 142.163  0.00  0.00    +0.000 C 
ENDBRANCH  11  26
TORSDOF 5
ENDMDL
MODEL 10
REMARK VINA RESULT:      -7.2      2.300      4.366
REMARK  Name = 44260027
REMARK  5 active torsions:
REMARK  status: ('A' for Active; 'I' for Inactive)
REMARK    1  A    between atoms: O_2  and  C_12
REMARK    2  A    between atoms: O_3  and  C_14
REMARK    3  A    between atoms: O_4  and  C_17
REMARK    4  A    between atoms: O_7  and  C_23
REMARK    5  A    between atoms: C_11  and  C_15
REMARK                            x       y       z     vdW  Elec       q    Type
REMARK                         _______ _______ _______ _____ _____    ______ ____
ROOT
ATOM      1  O   UNL     1     106.763 126.442 146.081  0.00  0.00    +0.000 OA
ATOM      2  O   UNL     1     105.319 125.924 143.633  0.00  0.00    +0.000 OA
ATOM      3  O   UNL     1     105.234 125.018 144.753  0.00  0.00    +0.000 OA
ATOM      4  C   UNL     1     106.049 126.187 144.870  0.00  0.00    +0.000 A 
ATOM      5  C   UNL     1     106.559 126.661 145.313  0.00  0.00    +0.000 A 
ATOM      6  C   UNL     1     106.458 125.748 146.407  0.00  0.00    +0.000 A 
ATOM      7  C   UNL     1     105.948 125.274 145.965  0.00  0.00    +0.000 A 
ATOM      8  C   UNL     1     105.744 125.493 145.195  0.00  0.00    +0.000 A 
ATOM      9  C   UNL     1     106.883 127.386 144.984  0.00  0.00    +0.000 A 
ATOM     10  C   UNL     1     105.828 126.404 144.068  0.00  0.00    +0.000 A 
ATOM     11  C   UNL     1     106.674 127.620 144.184  0.00  0.00    +0.000 A 
ATOM     12  C   UNL     1     106.143 127.125 143.723  0.00  0.00    +0.000 A 
ENDROOT
BRANCH   6  14
ATOM     13  O   UNL     1     105.937 125.800 149.217  0.00  0.00    +0.000 OA
ATOM     14  C   UNL     1     106.662 125.529 147.175  0.00  0.00    +0.000 A 
ATOM     15  C   UNL     1     106.198 125.774 147.811  0.00  0.00    +0.000 A 
ATOM     16  C   UNL     1     107.331 125.064 147.309  0.00  0.00    +0.000 A 
ATOM     17  C   UNL     1     106.402 125.555 148.581  0.00  0.00    +0.000 A 
ATOM     18  C   UNL     1     107.535 124.845 148.077  0.00  0.00    +0.000 A 
ATOM     19  C   UNL     1     107.070 125.090 148.713  0.00  0.00    +0.000 A 
BRANCH  19  20
ATOM     20  O   UNL     1     107.274 124.871 149.482  0.00  0.00    +0.000 OA
ATOM     21  C   UNL     1     107.921 124.375 149.611  0.00  0.00    +0.000 C 
ENDBRANCH  19  20
ENDBRANCH   6  14
BRANCH   7  22
ATOM     22  O   UNL     1     105.643 124.580 146.290  0.00  0.00    +0.000 OA
ATOM     23  C   UNL     1     104.920 124.283 146.025  0.00  0.00    +0.000 C 
ENDBRANCH   7  22
BRANCH   9  24
ATOM     24  O   UNL     1     107.392 127.855 145.434  0.00  0.00    +0.000 OA
ATOM     25  C   UNL     1     107.135 128.586 145.717  0.00  0.00    +0.000 C 
ENDBRANCH   9  24
BRANCH  11  26
ATOM     26  O   UNL     1     106.980 128.314 143.861  0.00  0.00    +0.000 OA
ATOM     27  C   UNL     1     106.980 128.424 143.043  0.00  0.00    +0.000 C 
ENDBRANCH  11  26
TORSDOF 5
ENDMDL
