MODEL 1
REMARK VINA RESULT:      -9.3      0.000      0.000
REMARK  Name = 44257089
REMARK  4 active torsions:
REMARK  status: ('A' for Active; 'I' for Inactive)
REMARK    1  A    between atoms: O_2  and  C_16
REMARK    2  A    between atoms: O_2  and  C_23
REMARK    3  A    between atoms: C_15  and  C_17
REMARK    4  A    between atoms: C_18  and  C_21
REMARK                            x       y       z     vdW  Elec       q    Type
REMARK                         _______ _______ _______ _____ _____    ______ ____
ROOT
ATOM      1  O   UNL     1     109.331 127.354 138.185  0.00  0.00    +0.000 OA
ATOM      2  C   UNL     1     110.849 126.589 136.817  0.00  0.00    +0.000 A 
ATOM      3  C   UNL     1     109.637 127.708 136.835  0.00  0.00    +0.000 A 
ATOM      4  C   UNL     1     110.393 126.691 137.496  0.00  0.00    +0.000 A 
ATOM      5  C   UNL     1     110.700 127.045 136.146  0.00  0.00    +0.000 A 
ATOM      6  C   UNL     1     109.787 127.251 137.505  0.00  0.00    +0.000 A 
ATOM      7  C   UNL     1     110.094 127.605 136.155  0.00  0.00    +0.000 A 
ENDROOT
BRANCH   2  12
ATOM      8  O   UNL     1     112.172 126.190 137.185  0.00  0.00    +0.000 OA
ATOM      9  O   UNL     1     110.630 125.147 136.044  0.00  0.00    +0.000 OA
ATOM     10  O   UNL     1     113.173 123.601 136.384  0.00  0.00    +0.000 OA
ATOM     11  O   UNL     1     114.868 125.395 137.945  0.00  0.00    +0.000 OA
ATOM     12  C   UNL     1     111.455 126.029 136.808  0.00  0.00    +0.000 C 
ATOM     13  C   UNL     1     111.346 125.308 136.422  0.00  0.00    +0.000 C 
ATOM     14  C   UNL     1     111.952 124.749 136.412  0.00  0.00    +0.000 C 
ATOM     15  C   UNL     1     112.667 124.910 136.790  0.00  0.00    +0.000 A 
ATOM     16  C   UNL     1     112.778 125.630 137.176  0.00  0.00    +0.000 A 
ATOM     17  C   UNL     1     113.292 124.318 136.773  0.00  0.00    +0.000 A 
ATOM     18  C   UNL     1     113.519 125.810 137.573  0.00  0.00    +0.000 A 
ATOM     19  C   UNL     1     114.039 124.481 137.164  0.00  0.00    +0.000 A 
ATOM     20  C   UNL     1     114.153 125.231 137.567  0.00  0.00    +0.000 A 
ENDBRANCH   2  12
BRANCH   3  21
ATOM     21  O   UNL     1     109.031 128.267 136.844  0.00  0.00    +0.000 OA
BRANCH  21  30
ATOM     22  O   UNL     1     109.834 129.449 136.877  0.00  0.00    +0.000 OA
ATOM     23  O   UNL     1     108.306 130.532 135.259  0.00  0.00    +0.000 OA
ATOM     24  O   UNL     1     109.618 131.352 135.831  0.00  0.00    +0.000 OA
ATOM     25  O   UNL     1     108.012 128.990 135.766  0.00  0.00    +0.000 OA
ATOM     26  C   UNL     1     108.815 130.171 135.798  0.00  0.00    +0.000 C 
ATOM     27  C   UNL     1     109.471 130.581 136.085  0.00  0.00    +0.000 C 
ATOM     28  C   UNL     1     108.668 129.399 136.052  0.00  0.00    +0.000 C 
ATOM     29  C   UNL     1     109.981 130.220 136.624  0.00  0.00    +0.000 C 
ATOM     30  C   UNL     1     109.178 129.038 136.591  0.00  0.00    +0.000 C 
BRANCH  29  32
ATOM     31  O   UNL     1     110.794 130.646 137.719  0.00  0.00    +0.000 OA
ATOM     32  C   UNL     1     110.637 130.630 136.909  0.00  0.00    +0.000 C 
ENDBRANCH  29  32
ENDBRANCH  21  30
ENDBRANCH   3  21
TORSDOF 4
ENDMDL
MODEL 2
REMARK VINA RESULT:      -9.2      1.630      2.640
REMARK  Name = 44257089
REMARK  4 active torsions:
REMARK  status: ('A' for Active; 'I' for Inactive)
REMARK    1  A    between atoms: O_2  and  C_16
REMARK    2  A    between atoms: O_2  and  C_23
REMARK    3  A    between atoms: C_15  and  C_17
REMARK    4  A    between atoms: C_18  and  C_21
REMARK                            x       y       z     vdW  Elec       q    Type
REMARK                         _______ _______ _______ _____ _____    ______ ____
ROOT
ATOM      1  O   UNL     1     113.251 129.623 135.255  0.00  0.00    +0.000 OA
ATOM      2  C   UNL     1     112.697 127.951 136.545  0.00  0.00    +0.000 A 
ATOM      3  C   UNL     1     112.585 129.597 136.519  0.00  0.00    +0.000 A 
ATOM      4  C   UNL     1     113.001 128.375 135.907  0.00  0.00    +0.000 A 
ATOM      5  C   UNL     1     112.336 128.350 137.171  0.00  0.00    +0.000 A 
ATOM      6  C   UNL     1     112.945 129.198 135.894  0.00  0.00    +0.000 A 
ATOM      7  C   UNL     1     112.280 129.173 137.158  0.00  0.00    +0.000 A 
ENDROOT
BRANCH   2  12
ATOM      8  O   UNL     1     113.433 126.765 136.852  0.00  0.00    +0.000 OA
ATOM      9  O   UNL     1     111.447 127.031 135.985  0.00  0.00    +0.000 OA
ATOM     10  O   UNL     1     112.281 124.171 136.311  0.00  0.00    +0.000 OA
ATOM     11  O   UNL     1     114.949 124.360 137.483  0.00  0.00    +0.000 OA
ATOM     12  C   UNL     1     112.752 127.128 136.558  0.00  0.00    +0.000 C 
ATOM     13  C   UNL     1     112.128 126.668 136.278  0.00  0.00    +0.000 C 
ATOM     14  C   UNL     1     112.184 125.845 136.291  0.00  0.00    +0.000 C 
ATOM     15  C   UNL     1     112.864 125.482 136.584  0.00  0.00    +0.000 A 
ATOM     16  C   UNL     1     113.489 125.942 136.865  0.00  0.00    +0.000 A 
ATOM     17  C   UNL     1     112.911 124.624 136.593  0.00  0.00    +0.000 A 
ATOM     18  C   UNL     1     114.204 125.577 137.173  0.00  0.00    +0.000 A 
ATOM     19  C   UNL     1     113.617 124.240 136.897  0.00  0.00    +0.000 A 
ATOM     20  C   UNL     1     114.267 124.720 137.189  0.00  0.00    +0.000 A 
ENDBRANCH   2  12
BRANCH   3  21
ATOM     21  O   UNL     1     112.529 130.420 136.506  0.00  0.00    +0.000 OA
BRANCH  21  30
ATOM     22  O   UNL     1     111.142 130.560 136.191  0.00  0.00    +0.000 OA
ATOM     23  O   UNL     1     110.933 132.337 137.901  0.00  0.00    +0.000 OA
ATOM     24  O   UNL     1     109.617 131.884 137.016  0.00  0.00    +0.000 OA
ATOM     25  O   UNL     1     112.389 131.605 137.646  0.00  0.00    +0.000 OA
ATOM     26  C   UNL     1     111.003 131.745 137.331  0.00  0.00    +0.000 C 
ATOM     27  C   UNL     1     110.345 131.518 136.888  0.00  0.00    +0.000 C 
ATOM     28  C   UNL     1     111.731 131.378 137.203  0.00  0.00    +0.000 C 
ATOM     29  C   UNL     1     110.414 130.926 136.318  0.00  0.00    +0.000 C 
ATOM     30  C   UNL     1     111.801 130.786 136.633  0.00  0.00    +0.000 C 
BRANCH  29  32
ATOM     31  O   UNL     1     109.829 130.570 135.064  0.00  0.00    +0.000 OA
ATOM     32  C   UNL     1     109.756 130.700 135.876  0.00  0.00    +0.000 C 
ENDBRANCH  29  32
ENDBRANCH  21  30
ENDBRANCH   3  21
TORSDOF 4
ENDMDL
MODEL 3
REMARK VINA RESULT:      -9.2      3.682      4.897
REMARK  Name = 44257089
REMARK  4 active torsions:
REMARK  status: ('A' for Active; 'I' for Inactive)
REMARK    1  A    between atoms: O_2  and  C_16
REMARK    2  A    between atoms: O_2  and  C_23
REMARK    3  A    between atoms: C_15  and  C_17
REMARK    4  A    between atoms: C_18  and  C_21
REMARK                            x       y       z     vdW  Elec       q    Type
REMARK                         _______ _______ _______ _____ _____    ______ ____
ROOT
ATOM      1  O   UNL     1     114.563 127.222 141.173  0.00  0.00    +0.000 OA
ATOM      2  C   UNL     1     113.376 127.022 139.352  0.00  0.00    +0.000 A 
ATOM      3  C   UNL     1     113.791 128.182 140.450  0.00  0.00    +0.000 A 
ATOM      4  C   UNL     1     113.865 126.832 139.988  0.00  0.00    +0.000 A 
ATOM      5  C   UNL     1     113.093 127.793 139.264  0.00  0.00    +0.000 A 
ATOM      6  C   UNL     1     114.073 127.412 140.537  0.00  0.00    +0.000 A 
ATOM      7  C   UNL     1     113.301 128.373 139.813  0.00  0.00    +0.000 A 
ENDROOT
BRANCH   2  12
ATOM      8  O   UNL     1     113.715 126.197 138.235  0.00  0.00    +0.000 OA
ATOM      9  O   UNL     1     111.868 126.353 139.390  0.00  0.00    +0.000 OA
ATOM     10  O   UNL     1     111.769 124.347 137.166  0.00  0.00    +0.000 OA
ATOM     11  O   UNL     1     114.423 124.523 135.960  0.00  0.00    +0.000 OA
ATOM     12  C   UNL     1     113.168 126.442 138.804  0.00  0.00    +0.000 C 
ATOM     13  C   UNL     1     112.415 126.107 138.822  0.00  0.00    +0.000 C 
ATOM     14  C   UNL     1     112.207 125.527 138.273  0.00  0.00    +0.000 C 
ATOM     15  C   UNL     1     112.753 125.282 137.706  0.00  0.00    +0.000 A 
ATOM     16  C   UNL     1     113.507 125.617 137.687  0.00  0.00    +0.000 A 
ATOM     17  C   UNL     1     112.525 124.677 137.140  0.00  0.00    +0.000 A 
ATOM     18  C   UNL     1     114.085 125.370 137.100  0.00  0.00    +0.000 A 
ATOM     19  C   UNL     1     113.089 124.417 136.546  0.00  0.00    +0.000 A 
ATOM     20  C   UNL     1     113.874 124.766 136.527  0.00  0.00    +0.000 A 
ENDBRANCH   2  12
BRANCH   3  21
ATOM     21  O   UNL     1     113.998 128.762 140.998  0.00  0.00    +0.000 OA
BRANCH  21  30
ATOM     22  O   UNL     1     112.774 128.814 141.734  0.00  0.00    +0.000 OA
ATOM     23  O   UNL     1     112.922 131.283 141.809  0.00  0.00    +0.000 OA
ATOM     24  O   UNL     1     111.650 130.511 142.519  0.00  0.00    +0.000 OA
ATOM     25  O   UNL     1     114.097 130.409 141.048  0.00  0.00    +0.000 OA
ATOM     26  C   UNL     1     112.873 130.460 141.784  0.00  0.00    +0.000 C 
ATOM     27  C   UNL     1     112.237 130.073 142.139  0.00  0.00    +0.000 C 
ATOM     28  C   UNL     1     113.461 130.022 141.403  0.00  0.00    +0.000 C 
ATOM     29  C   UNL     1     112.187 129.250 142.114  0.00  0.00    +0.000 C 
ATOM     30  C   UNL     1     113.411 129.199 141.378  0.00  0.00    +0.000 C 
BRANCH  29  32
ATOM     31  O   UNL     1     111.683 128.215 142.960  0.00  0.00    +0.000 OA
ATOM     32  C   UNL     1     111.551 128.865 142.469  0.00  0.00    +0.000 C 
ENDBRANCH  29  32
ENDBRANCH  21  30
ENDBRANCH   3  21
TORSDOF 4
ENDMDL
MODEL 4
REMARK VINA RESULT:      -9.1      8.391      9.771
REMARK  Name = 44257089
REMARK  4 active torsions:
REMARK  status: ('A' for Active; 'I' for Inactive)
REMARK    1  A    between atoms: O_2  and  C_16
REMARK    2  A    between atoms: O_2  and  C_23
REMARK    3  A    between atoms: C_15  and  C_17
REMARK    4  A    between atoms: C_18  and  C_21
REMARK                            x       y       z     vdW  Elec       q    Type
REMARK                         _______ _______ _______ _____ _____    ______ ____
ROOT
ATOM      1  O   UNL     1     105.921 124.618 143.262  0.00  0.00    +0.000 OA
ATOM      2  C   UNL     1     105.993 125.556 145.232  0.00  0.00    +0.000 A 
ATOM      3  C   UNL     1     105.749 125.981 143.656  0.00  0.00    +0.000 A 
ATOM      4  C   UNL     1     106.018 124.981 144.641  0.00  0.00    +0.000 A 
ATOM      5  C   UNL     1     105.846 126.344 145.036  0.00  0.00    +0.000 A 
ATOM      6  C   UNL     1     105.896 125.194 143.854  0.00  0.00    +0.000 A 
ATOM      7  C   UNL     1     105.723 126.556 144.248  0.00  0.00    +0.000 A 
ENDROOT
BRANCH   2  12
ATOM      8  O   UNL     1     106.881 125.312 146.325  0.00  0.00    +0.000 OA
ATOM      9  O   UNL     1     104.705 125.194 146.198  0.00  0.00    +0.000 OA
ATOM     10  O   UNL     1     105.824 124.516 148.893  0.00  0.00    +0.000 OA
ATOM     11  O   UNL     1     108.707 124.819 148.540  0.00  0.00    +0.000 OA
ATOM     12  C   UNL     1     106.115 125.343 146.020  0.00  0.00    +0.000 C 
ATOM     13  C   UNL     1     105.472 125.162 146.503  0.00  0.00    +0.000 C 
ATOM     14  C   UNL     1     105.594 124.950 147.291  0.00  0.00    +0.000 C 
ATOM     15  C   UNL     1     106.359 124.918 147.595  0.00  0.00    +0.000 A 
ATOM     16  C   UNL     1     107.004 125.099 147.113  0.00  0.00    +0.000 A 
ATOM     17  C   UNL     1     106.474 124.695 148.418  0.00  0.00    +0.000 A 
ATOM     18  C   UNL     1     107.806 125.070 147.418  0.00  0.00    +0.000 A 
ATOM     19  C   UNL     1     107.269 124.661 148.741  0.00  0.00    +0.000 A 
ATOM     20  C   UNL     1     107.939 124.850 148.238  0.00  0.00    +0.000 A 
ENDBRANCH   2  12
BRANCH   3  21
ATOM     21  O   UNL     1     105.626 126.193 142.869  0.00  0.00    +0.000 OA
BRANCH  21  30
ATOM     22  O   UNL     1     106.881 126.817 142.586  0.00  0.00    +0.000 OA
ATOM     23  O   UNL     1     105.703 128.671 141.446  0.00  0.00    +0.000 OA
ATOM     24  O   UNL     1     107.349 128.676 141.544  0.00  0.00    +0.000 OA
ATOM     25  O   UNL     1     104.841 127.429 142.108  0.00  0.00    +0.000 OA
ATOM     26  C   UNL     1     106.095 128.053 141.826  0.00  0.00    +0.000 C 
ATOM     27  C   UNL     1     106.919 128.055 141.875  0.00  0.00    +0.000 C 
ATOM     28  C   UNL     1     105.664 127.432 142.158  0.00  0.00    +0.000 C 
ATOM     29  C   UNL     1     107.311 127.437 142.255  0.00  0.00    +0.000 C 
ATOM     30  C   UNL     1     106.057 126.814 142.538  0.00  0.00    +0.000 C 
BRANCH  29  32
ATOM     31  O   UNL     1     108.559 126.745 142.171  0.00  0.00    +0.000 OA
ATOM     32  C   UNL     1     108.134 127.440 142.304  0.00  0.00    +0.000 C 
ENDBRANCH  29  32
ENDBRANCH  21  30
ENDBRANCH   3  21
TORSDOF 4
ENDMDL
MODEL 5
REMARK VINA RESULT:      -9.1      1.558      2.208
REMARK  Name = 44257089
REMARK  4 active torsions:
REMARK  status: ('A' for Active; 'I' for Inactive)
REMARK    1  A    between atoms: O_2  and  C_16
REMARK    2  A    between atoms: O_2  and  C_23
REMARK    3  A    between atoms: C_15  and  C_17
REMARK    4  A    between atoms: C_18  and  C_21
REMARK                            x       y       z     vdW  Elec       q    Type
REMARK                         _______ _______ _______ _____ _____    ______ ____
ROOT
ATOM      1  O   UNL     1     107.809 128.646 135.721  0.00  0.00    +0.000 OA
ATOM      2  C   UNL     1     109.814 127.791 135.840  0.00  0.00    +0.000 A 
ATOM      3  C   UNL     1     109.093 129.239 135.514  0.00  0.00    +0.000 A 
ATOM      4  C   UNL     1     108.992 127.856 135.862  0.00  0.00    +0.000 A 
ATOM      5  C   UNL     1     110.276 128.449 135.655  0.00  0.00    +0.000 A 
ATOM      6  C   UNL     1     108.632 128.580 135.699  0.00  0.00    +0.000 A 
ATOM      7  C   UNL     1     109.916 129.173 135.492  0.00  0.00    +0.000 A 
ENDROOT
BRANCH   2  12
ATOM      8  O   UNL     1     110.369 126.868 136.780  0.00  0.00    +0.000 OA
ATOM      9  O   UNL     1     110.146 126.739 134.612  0.00  0.00    +0.000 OA
ATOM     10  O   UNL     1     111.433 124.342 135.866  0.00  0.00    +0.000 OA
ATOM     11  O   UNL     1     111.496 125.001 138.710  0.00  0.00    +0.000 OA
ATOM     12  C   UNL     1     110.174 127.067 136.003  0.00  0.00    +0.000 C 
ATOM     13  C   UNL     1     110.340 126.541 135.389  0.00  0.00    +0.000 C 
ATOM     14  C   UNL     1     110.701 125.817 135.553  0.00  0.00    +0.000 C 
ATOM     15  C   UNL     1     110.895 125.619 136.329  0.00  0.00    +0.000 A 
ATOM     16  C   UNL     1     110.729 126.144 136.943  0.00  0.00    +0.000 A 
ATOM     17  C   UNL     1     111.270 124.861 136.486  0.00  0.00    +0.000 A 
ATOM     18  C   UNL     1     110.927 125.949 137.757  0.00  0.00    +0.000 A 
ATOM     19  C   UNL     1     111.475 124.649 137.293  0.00  0.00    +0.000 A 
ATOM     20  C   UNL     1     111.302 125.197 137.932  0.00  0.00    +0.000 A 
ENDBRANCH   2  12
BRANCH   3  21
ATOM     21  O   UNL     1     108.732 129.963 135.350  0.00  0.00    +0.000 OA
BRANCH  21  30
ATOM     22  O   UNL     1     108.901 130.579 136.629  0.00  0.00    +0.000 OA
ATOM     23  O   UNL     1     109.496 132.711 135.522  0.00  0.00    +0.000 OA
ATOM     24  O   UNL     1     109.466 132.617 137.168  0.00  0.00    +0.000 OA
ATOM     25  O   UNL     1     109.129 131.384 134.613  0.00  0.00    +0.000 OA
ATOM     26  C   UNL     1     109.298 132.001 135.891  0.00  0.00    +0.000 C 
ATOM     27  C   UNL     1     109.282 131.953 136.714  0.00  0.00    +0.000 C 
ATOM     28  C   UNL     1     109.114 131.336 135.436  0.00  0.00    +0.000 C 
ATOM     29  C   UNL     1     109.084 131.242 137.083  0.00  0.00    +0.000 C 
ATOM     30  C   UNL     1     108.916 130.626 135.805  0.00  0.00    +0.000 C 
BRANCH  29  32
ATOM     31  O   UNL     1     108.378 130.967 138.294  0.00  0.00    +0.000 OA
ATOM     32  C   UNL     1     109.069 131.195 137.906  0.00  0.00    +0.000 C 
ENDBRANCH  29  32
ENDBRANCH  21  30
ENDBRANCH   3  21
TORSDOF 4
ENDMDL
MODEL 6
REMARK VINA RESULT:      -9.1      1.433      2.484
REMARK  Name = 44257089
REMARK  4 active torsions:
REMARK  status: ('A' for Active; 'I' for Inactive)
REMARK    1  A    between atoms: O_2  and  C_16
REMARK    2  A    between atoms: O_2  and  C_23
REMARK    3  A    between atoms: C_15  and  C_17
REMARK    4  A    between atoms: C_18  and  C_21
REMARK                            x       y       z     vdW  Elec       q    Type
REMARK                         _______ _______ _______ _____ _____    ______ ____
ROOT
ATOM      1  O   UNL     1     111.994 129.057 134.612  0.00  0.00    +0.000 OA
ATOM      2  C   UNL     1     112.357 127.701 136.284  0.00  0.00    +0.000 A 
ATOM      3  C   UNL     1     111.715 129.196 136.007  0.00  0.00    +0.000 A 
ATOM      4  C   UNL     1     112.336 128.005 135.518  0.00  0.00    +0.000 A 
ATOM      5  C   UNL     1     112.057 128.144 136.912  0.00  0.00    +0.000 A 
ATOM      6  C   UNL     1     112.015 128.752 135.379  0.00  0.00    +0.000 A 
ATOM      7  C   UNL     1     111.736 128.891 136.774  0.00  0.00    +0.000 A 
ENDROOT
BRANCH   2  12
ATOM      8  O   UNL     1     112.200 126.283 136.370  0.00  0.00    +0.000 OA
ATOM      9  O   UNL     1     113.955 127.547 136.666  0.00  0.00    +0.000 OA
ATOM     10  O   UNL     1     114.465 124.618 137.037  0.00  0.00    +0.000 OA
ATOM     11  O   UNL     1     111.860 123.395 136.541  0.00  0.00    +0.000 OA
ATOM     12  C   UNL     1     112.678 126.954 136.422  0.00  0.00    +0.000 C 
ATOM     13  C   UNL     1     113.476 126.876 136.614  0.00  0.00    +0.000 C 
ATOM     14  C   UNL     1     113.797 126.129 136.752  0.00  0.00    +0.000 C 
ATOM     15  C   UNL     1     113.320 125.459 136.700  0.00  0.00    +0.000 A 
ATOM     16  C   UNL     1     112.520 125.535 136.509  0.00  0.00    +0.000 A 
ATOM     17  C   UNL     1     113.666 124.685 136.846  0.00  0.00    +0.000 A 
ATOM     18  C   UNL     1     112.012 124.845 136.451  0.00  0.00    +0.000 A 
ATOM     19  C   UNL     1     113.173 123.984 136.793  0.00  0.00    +0.000 A 
ATOM     20  C   UNL     1     112.341 124.064 136.594  0.00  0.00    +0.000 A 
ENDBRANCH   2  12
BRANCH   3  21
ATOM     21  O   UNL     1     111.394 129.943 135.868  0.00  0.00    +0.000 OA
BRANCH  21  30
ATOM     22  O   UNL     1     110.009 129.626 136.015  0.00  0.00    +0.000 OA
ATOM     23  O   UNL     1     109.673 131.703 137.319  0.00  0.00    +0.000 OA
ATOM     24  O   UNL     1     108.400 130.694 137.031  0.00  0.00    +0.000 OA
ATOM     25  O   UNL     1     111.170 131.327 136.737  0.00  0.00    +0.000 OA
ATOM     26  C   UNL     1     109.785 131.010 136.884  0.00  0.00    +0.000 C 
ATOM     27  C   UNL     1     109.148 130.506 136.740  0.00  0.00    +0.000 C 
ATOM     28  C   UNL     1     110.534 130.822 136.593  0.00  0.00    +0.000 C 
ATOM     29  C   UNL     1     109.260 129.814 136.306  0.00  0.00    +0.000 C 
ATOM     30  C   UNL     1     110.646 130.130 136.159  0.00  0.00    +0.000 C 
BRANCH  29  32
ATOM     31  O   UNL     1     108.529 128.965 135.418  0.00  0.00    +0.000 OA
ATOM     32  C   UNL     1     108.624 129.310 136.162  0.00  0.00    +0.000 C 
ENDBRANCH  29  32
ENDBRANCH  21  30
ENDBRANCH   3  21
TORSDOF 4
ENDMDL
MODEL 7
REMARK VINA RESULT:      -9.0      1.679      5.620
REMARK  Name = 44257089
REMARK  4 active torsions:
REMARK  status: ('A' for Active; 'I' for Inactive)
REMARK    1  A    between atoms: O_2  and  C_16
REMARK    2  A    between atoms: O_2  and  C_23
REMARK    3  A    between atoms: C_15  and  C_17
REMARK    4  A    between atoms: C_18  and  C_21
REMARK                            x       y       z     vdW  Elec       q    Type
REMARK                         _______ _______ _______ _____ _____    ______ ____
ROOT
ATOM      1  O   UNL     1     108.053 127.673 136.011  0.00  0.00    +0.000 OA
ATOM      2  C   UNL     1     109.552 129.252 135.857  0.00  0.00    +0.000 A 
ATOM      3  C   UNL     1     109.434 127.619 135.647  0.00  0.00    +0.000 A 
ATOM      4  C   UNL     1     108.833 128.871 135.987  0.00  0.00    +0.000 A 
ATOM      5  C   UNL     1     110.214 128.817 135.623  0.00  0.00    +0.000 A 
ATOM      6  C   UNL     1     108.773 128.055 135.882  0.00  0.00    +0.000 A 
ATOM      7  C   UNL     1     110.154 128.001 135.518  0.00  0.00    +0.000 A 
ENDROOT
BRANCH   2  12
ATOM      8  O   UNL     1     109.855 130.374 136.690  0.00  0.00    +0.000 OA
ATOM      9  O   UNL     1     109.184 130.272 134.614  0.00  0.00    +0.000 OA
ATOM     10  O   UNL     1     109.602 133.055 135.643  0.00  0.00    +0.000 OA
ATOM     11  O   UNL     1     110.476 132.648 138.399  0.00  0.00    +0.000 OA
ATOM     12  C   UNL     1     109.611 130.068 135.962  0.00  0.00    +0.000 C 
ATOM     13  C   UNL     1     109.428 130.579 135.341  0.00  0.00    +0.000 C 
ATOM     14  C   UNL     1     109.487 131.395 135.446  0.00  0.00    +0.000 C 
ATOM     15  C   UNL     1     109.730 131.700 136.172  0.00  0.00    +0.000 A 
ATOM     16  C   UNL     1     109.914 131.190 136.795  0.00  0.00    +0.000 A 
ATOM     17  C   UNL     1     109.788 132.553 136.270  0.00  0.00    +0.000 A 
ATOM     18  C   UNL     1     110.169 131.496 137.556  0.00  0.00    +0.000 A 
ATOM     19  C   UNL     1     110.041 132.877 137.024  0.00  0.00    +0.000 A 
ATOM     20  C   UNL     1     110.232 132.345 137.671  0.00  0.00    +0.000 A 
ENDBRANCH   2  12
BRANCH   3  21
ATOM     21  O   UNL     1     109.374 126.803 135.542  0.00  0.00    +0.000 OA
BRANCH  21  30
ATOM     22  O   UNL     1     109.971 126.370 136.766  0.00  0.00    +0.000 OA
ATOM     23  O   UNL     1     111.234 124.633 135.535  0.00  0.00    +0.000 OA
ATOM     24  O   UNL     1     111.410 124.779 137.168  0.00  0.00    +0.000 OA
ATOM     25  O   UNL     1     110.216 125.646 134.722  0.00  0.00    +0.000 OA
ATOM     26  C   UNL     1     110.813 125.212 135.945  0.00  0.00    +0.000 C 
ATOM     27  C   UNL     1     110.901 125.285 136.762  0.00  0.00    +0.000 C 
ATOM     28  C   UNL     1     110.304 125.719 135.539  0.00  0.00    +0.000 C 
ATOM     29  C   UNL     1     110.480 125.864 137.173  0.00  0.00    +0.000 C 
ATOM     30  C   UNL     1     109.883 126.298 135.949  0.00  0.00    +0.000 C 
BRANCH  29  32
ATOM     31  O   UNL     1     109.902 126.004 138.472  0.00  0.00    +0.000 OA
ATOM     32  C   UNL     1     110.568 125.936 137.989  0.00  0.00    +0.000 C 
ENDBRANCH  29  32
ENDBRANCH  21  30
ENDBRANCH   3  21
TORSDOF 4
ENDMDL
MODEL 8
REMARK VINA RESULT:      -9.0      8.849     11.089
REMARK  Name = 44257089
REMARK  4 active torsions:
REMARK  status: ('A' for Active; 'I' for Inactive)
REMARK    1  A    between atoms: O_2  and  C_16
REMARK    2  A    between atoms: O_2  and  C_23
REMARK    3  A    between atoms: C_15  and  C_17
REMARK    4  A    between atoms: C_18  and  C_21
REMARK                            x       y       z     vdW  Elec       q    Type
REMARK                         _______ _______ _______ _____ _____    ______ ____
ROOT
ATOM      1  O   UNL     1     106.170 124.287 144.719  0.00  0.00    +0.000 OA
ATOM      2  C   UNL     1     105.829 126.437 144.556  0.00  0.00    +0.000 A 
ATOM      3  C   UNL     1     105.655 125.227 145.664  0.00  0.00    +0.000 A 
ATOM      4  C   UNL     1     106.043 125.665 144.360  0.00  0.00    +0.000 A 
ATOM      5  C   UNL     1     105.528 126.605 145.306  0.00  0.00    +0.000 A 
ATOM      6  C   UNL     1     105.956 125.060 144.914  0.00  0.00    +0.000 A 
ATOM      7  C   UNL     1     105.441 126.000 145.860  0.00  0.00    +0.000 A 
ENDROOT
BRANCH   2  12
ATOM      8  O   UNL     1     105.336 127.160 143.425  0.00  0.00    +0.000 OA
ATOM      9  O   UNL     1     107.159 127.411 144.600  0.00  0.00    +0.000 OA
ATOM     10  O   UNL     1     106.858 129.368 142.351  0.00  0.00    +0.000 OA
ATOM     11  O   UNL     1     104.317 128.622 141.122  0.00  0.00    +0.000 OA
ATOM     12  C   UNL     1     105.915 127.042 144.002  0.00  0.00    +0.000 C 
ATOM     13  C   UNL     1     106.580 127.530 144.023  0.00  0.00    +0.000 C 
ATOM     14  C   UNL     1     106.667 128.135 143.469  0.00  0.00    +0.000 C 
ATOM     15  C   UNL     1     106.088 128.252 142.894  0.00  0.00    +0.000 A 
ATOM     16  C   UNL     1     105.423 127.765 142.871  0.00  0.00    +0.000 A 
ATOM     17  C   UNL     1     106.190 128.886 142.322  0.00  0.00    +0.000 A 
ATOM     18  C   UNL     1     104.812 127.878 142.276  0.00  0.00    +0.000 A 
ATOM     19  C   UNL     1     105.590 129.014 141.719  0.00  0.00    +0.000 A 
ATOM     20  C   UNL     1     104.897 128.506 141.697  0.00  0.00    +0.000 A 
ENDBRANCH   2  12
BRANCH   3  21
ATOM     21  O   UNL     1     105.569 124.622 146.218  0.00  0.00    +0.000 OA
BRANCH  21  30
ATOM     22  O   UNL     1     106.691 124.910 147.054  0.00  0.00    +0.000 OA
ATOM     23  O   UNL     1     105.297 124.523 149.061  0.00  0.00    +0.000 OA
ATOM     24  O   UNL     1     106.883 124.940 149.227  0.00  0.00    +0.000 OA
ATOM     25  O   UNL     1     104.639 124.364 147.557  0.00  0.00    +0.000 OA
ATOM     26  C   UNL     1     105.761 124.652 148.392  0.00  0.00    +0.000 C 
ATOM     27  C   UNL     1     106.555 124.861 148.475  0.00  0.00    +0.000 C 
ATOM     28  C   UNL     1     105.432 124.572 147.639  0.00  0.00    +0.000 C 
ATOM     29  C   UNL     1     107.020 124.990 147.806  0.00  0.00    +0.000 C 
ATOM     30  C   UNL     1     105.897 124.701 146.970  0.00  0.00    +0.000 C 
BRANCH  29  32
ATOM     31  O   UNL     1     108.338 125.087 147.262  0.00  0.00    +0.000 OA
ATOM     32  C   UNL     1     107.813 125.198 147.889  0.00  0.00    +0.000 C 
ENDBRANCH  29  32
ENDBRANCH  21  30
ENDBRANCH   3  21
TORSDOF 4
ENDMDL
MODEL 9
REMARK VINA RESULT:      -9.0      7.304     10.309
REMARK  Name = 44257089
REMARK  4 active torsions:
REMARK  status: ('A' for Active; 'I' for Inactive)
REMARK    1  A    between atoms: O_2  and  C_16
REMARK    2  A    between atoms: O_2  and  C_23
REMARK    3  A    between atoms: C_15  and  C_17
REMARK    4  A    between atoms: C_18  and  C_21
REMARK                            x       y       z     vdW  Elec       q    Type
REMARK                         _______ _______ _______ _____ _____    ______ ____
ROOT
ATOM      1  O   UNL     1     104.107 127.938 140.762  0.00  0.00    +0.000 OA
ATOM      2  C   UNL     1     103.966 129.804 141.886  0.00  0.00    +0.000 A 
ATOM      3  C   UNL     1     104.556 128.274 142.077  0.00  0.00    +0.000 A 
ATOM      4  C   UNL     1     103.889 129.254 141.277  0.00  0.00    +0.000 A 
ATOM      5  C   UNL     1     104.338 129.590 142.591  0.00  0.00    +0.000 A 
ATOM      6  C   UNL     1     104.184 128.489 141.372  0.00  0.00    +0.000 A 
ATOM      7  C   UNL     1     104.633 128.826 142.687  0.00  0.00    +0.000 A 
ENDROOT
BRANCH   2  12
ATOM      8  O   UNL     1     102.898 130.744 142.019  0.00  0.00    +0.000 OA
ATOM      9  O   UNL     1     104.924 130.982 141.240  0.00  0.00    +0.000 OA
ATOM     10  O   UNL     1     103.273 133.482 141.172  0.00  0.00    +0.000 OA
ATOM     11  O   UNL     1     100.710 132.646 142.296  0.00  0.00    +0.000 OA
ATOM     12  C   UNL     1     103.672 130.569 141.791  0.00  0.00    +0.000 C 
ATOM     13  C   UNL     1     104.150 131.158 141.468  0.00  0.00    +0.000 C 
ATOM     14  C   UNL     1     103.855 131.923 141.373  0.00  0.00    +0.000 C 
ATOM     15  C   UNL     1     103.083 132.098 141.600  0.00  0.00    +0.000 A 
ATOM     16  C   UNL     1     102.603 131.509 141.924  0.00  0.00    +0.000 A 
ATOM     17  C   UNL     1     102.787 132.899 141.496  0.00  0.00    +0.000 A 
ATOM     18  C   UNL     1     101.796 131.679 142.165  0.00  0.00    +0.000 A 
ATOM     19  C   UNL     1     101.982 133.088 141.731  0.00  0.00    +0.000 A 
ATOM     20  C   UNL     1     101.484 132.474 142.068  0.00  0.00    +0.000 A 
ENDBRANCH   2  12
BRANCH   3  21
ATOM     21  O   UNL     1     104.850 127.510 142.172  0.00  0.00    +0.000 OA
BRANCH  21  30
ATOM     22  O   UNL     1     106.234 127.815 141.991  0.00  0.00    +0.000 OA
ATOM     23  O   UNL     1     106.822 126.210 143.781  0.00  0.00    +0.000 OA
ATOM     24  O   UNL     1     108.010 127.051 143.004  0.00  0.00    +0.000 OA
ATOM     25  O   UNL     1     105.242 126.440 143.365  0.00  0.00    +0.000 OA
ATOM     26  C   UNL     1     106.626 126.745 143.185  0.00  0.00    +0.000 C 
ATOM     27  C   UNL     1     107.220 127.166 142.796  0.00  0.00    +0.000 C 
ATOM     28  C   UNL     1     105.836 126.860 142.976  0.00  0.00    +0.000 C 
ATOM     29  C   UNL     1     107.024 127.701 142.199  0.00  0.00    +0.000 C 
ATOM     30  C   UNL     1     105.640 127.395 142.380  0.00  0.00    +0.000 C 
BRANCH  29  32
ATOM     31  O   UNL     1     107.580 128.231 140.994  0.00  0.00    +0.000 OA
ATOM     32  C   UNL     1     107.618 128.121 141.811  0.00  0.00    +0.000 C 
ENDBRANCH  29  32
ENDBRANCH  21  30
ENDBRANCH   3  21
TORSDOF 4
ENDMDL
MODEL 10
REMARK VINA RESULT:      -8.7      1.541      5.830
REMARK  Name = 44257089
REMARK  4 active torsions:
REMARK  status: ('A' for Active; 'I' for Inactive)
REMARK    1  A    between atoms: O_2  and  C_16
REMARK    2  A    between atoms: O_2  and  C_23
REMARK    3  A    between atoms: C_15  and  C_17
REMARK    4  A    between atoms: C_18  and  C_21
REMARK                            x       y       z     vdW  Elec       q    Type
REMARK                         _______ _______ _______ _____ _____    ______ ____
ROOT
ATOM      1  O   UNL     1     112.279 128.618 135.078  0.00  0.00    +0.000 OA
ATOM      2  C   UNL     1     110.908 129.178 136.681  0.00  0.00    +0.000 A 
ATOM      3  C   UNL     1     111.945 127.953 136.297  0.00  0.00    +0.000 A 
ATOM      4  C   UNL     1     111.334 129.205 135.976  0.00  0.00    +0.000 A 
ATOM      5  C   UNL     1     111.000 128.539 137.196  0.00  0.00    +0.000 A 
ATOM      6  C   UNL     1     111.853 128.592 135.784  0.00  0.00    +0.000 A 
ATOM      7  C   UNL     1     111.518 127.927 137.004  0.00  0.00    +0.000 A 
ENDROOT
BRANCH   2  12
ATOM      8  O   UNL     1     110.674 130.470 137.247  0.00  0.00    +0.000 OA
ATOM      9  O   UNL     1     109.304 129.046 136.320  0.00  0.00    +0.000 OA
ATOM     10  O   UNL     1     108.004 131.573 137.268  0.00  0.00    +0.000 OA
ATOM     11  O   UNL     1     110.217 133.104 138.402  0.00  0.00    +0.000 OA
ATOM     12  C   UNL     1     110.390 129.791 136.874  0.00  0.00    +0.000 C 
ATOM     13  C   UNL     1     109.588 129.725 136.693  0.00  0.00    +0.000 C 
ATOM     14  C   UNL     1     109.070 130.338 136.885  0.00  0.00    +0.000 C 
ATOM     15  C   UNL     1     109.354 131.016 137.258  0.00  0.00    +0.000 A 
ATOM     16  C   UNL     1     110.156 131.083 137.439  0.00  0.00    +0.000 A 
ATOM     17  C   UNL     1     108.804 131.648 137.453  0.00  0.00    +0.000 A 
ATOM     18  C   UNL     1     110.465 131.785 137.827  0.00  0.00    +0.000 A 
ATOM     19  C   UNL     1     109.094 132.357 137.841  0.00  0.00    +0.000 A 
ATOM     20  C   UNL     1     109.930 132.426 138.029  0.00  0.00    +0.000 A 
ENDBRANCH   2  12
BRANCH   3  21
ATOM     21  O   UNL     1     112.463 127.340 136.105  0.00  0.00    +0.000 OA
BRANCH  21  30
ATOM     22  O   UNL     1     111.487 126.366 135.731  0.00  0.00    +0.000 OA
ATOM     23  O   UNL     1     112.816 124.604 136.852  0.00  0.00    +0.000 OA
ATOM     24  O   UNL     1     111.397 124.218 136.105  0.00  0.00    +0.000 OA
ATOM     25  O   UNL     1     113.349 126.166 136.853  0.00  0.00    +0.000 OA
ATOM     26  C   UNL     1     112.373 125.192 136.479  0.00  0.00    +0.000 C 
ATOM     27  C   UNL     1     111.663 124.999 136.105  0.00  0.00    +0.000 C 
ATOM     28  C   UNL     1     112.639 125.973 136.479  0.00  0.00    +0.000 C 
ATOM     29  C   UNL     1     111.220 125.586 135.731  0.00  0.00    +0.000 C 
ATOM     30  C   UNL     1     112.196 126.560 136.105  0.00  0.00    +0.000 C 
BRANCH  29  32
ATOM     31  O   UNL     1     110.339 125.702 134.612  0.00  0.00    +0.000 OA
ATOM     32  C   UNL     1     110.511 125.392 135.357  0.00  0.00    +0.000 C 
ENDBRANCH  29  32
ENDBRANCH  21  30
ENDBRANCH   3  21
TORSDOF 4
ENDMDL
