MODEL 1
REMARK VINA RESULT:      -9.1      0.000      0.000
REMARK  Name = 12444939
REMARK  2 active torsions:
REMARK  status: ('A' for Active; 'I' for Inactive)
REMARK    1  A    between atoms: O_4  and  C_16
REMARK    2  A    between atoms: C_13  and  C_18
REMARK                            x       y       z     vdW  Elec       q    Type
REMARK                         _______ _______ _______ _____ _____    ______ ____
ROOT
ATOM      1  O   UNL     1     105.124 124.258 147.175  0.00  0.00    +0.000 OA
ATOM      2  O   UNL     1     104.378 123.239 145.893  0.00  0.00    +0.000 OA
ATOM      3  O   UNL     1     103.083 123.222 145.603  0.00  0.00    +0.000 OA
ATOM      4  O   UNL     1     102.431 125.206 147.657  0.00  0.00    +0.000 OA
ATOM      5  O   UNL     1     103.510 125.728 148.460  0.00  0.00    +0.000 OA
ATOM      6  C   UNL     1     104.282 124.257 146.997  0.00  0.00    +0.000 A 
ATOM      7  C   UNL     1     103.760 124.736 147.417  0.00  0.00    +0.000 A 
ATOM      8  C   UNL     1     104.001 123.766 146.396  0.00  0.00    +0.000 A 
ATOM      9  C   UNL     1     103.196 123.755 146.216  0.00  0.00    +0.000 A 
ATOM     10  C   UNL     1     105.423 124.767 147.800  0.00  0.00    +0.000 A 
ATOM     11  C   UNL     1     102.955 124.726 147.237  0.00  0.00    +0.000 A 
ATOM     12  C   UNL     1     104.041 125.252 148.045  0.00  0.00    +0.000 A 
ATOM     13  C   UNL     1     104.878 125.267 148.237  0.00  0.00    +0.000 A 
ATOM     14  C   UNL     1     102.673 124.235 146.637  0.00  0.00    +0.000 A 
ATOM     15  C   UNL     1     103.812 122.903 145.405  0.00  0.00    +0.000 C 
ENDROOT
BRANCH  10  18
ATOM     16  O   UNL     1     108.081 125.634 147.205  0.00  0.00    +0.000 OA
ATOM     17  O   UNL     1     108.645 124.801 148.513  0.00  0.00    +0.000 OA
ATOM     18  C   UNL     1     106.229 124.776 147.978  0.00  0.00    +0.000 A 
ATOM     19  C   UNL     1     106.752 125.200 147.502  0.00  0.00    +0.000 A 
ATOM     20  C   UNL     1     106.511 124.359 148.632  0.00  0.00    +0.000 A 
ATOM     21  C   UNL     1     107.557 125.209 147.680  0.00  0.00    +0.000 A 
ATOM     22  C   UNL     1     107.316 124.368 148.810  0.00  0.00    +0.000 A 
ATOM     23  C   UNL     1     107.840 124.793 148.334  0.00  0.00    +0.000 A 
ENDBRANCH  10  18
BRANCH  13  24
ATOM     24  O   UNL     1     105.157 125.758 148.838  0.00  0.00    +0.000 OA
ATOM     25  C   UNL     1     104.731 126.432 149.051  0.00  0.00    +0.000 C 
ENDBRANCH  13  24
TORSDOF 2
ENDMDL
MODEL 2
REMARK VINA RESULT:      -9.1      1.139      4.263
REMARK  Name = 12444939
REMARK  2 active torsions:
REMARK  status: ('A' for Active; 'I' for Inactive)
REMARK    1  A    between atoms: O_4  and  C_16
REMARK    2  A    between atoms: C_13  and  C_18
REMARK                            x       y       z     vdW  Elec       q    Type
REMARK                         _______ _______ _______ _____ _____    ______ ____
ROOT
ATOM      1  O   UNL     1     105.499 124.372 147.642  0.00  0.00    +0.000 OA
ATOM      2  O   UNL     1     106.471 123.922 149.088  0.00  0.00    +0.000 OA
ATOM      3  O   UNL     1     107.721 124.313 149.307  0.00  0.00    +0.000 OA
ATOM      4  O   UNL     1     107.851 125.841 146.811  0.00  0.00    +0.000 OA
ATOM      5  O   UNL     1     106.683 125.855 145.965  0.00  0.00    +0.000 OA
ATOM      6  C   UNL     1     106.308 124.632 147.771  0.00  0.00    +0.000 A 
ATOM      7  C   UNL     1     106.691 125.115 147.224  0.00  0.00    +0.000 A 
ATOM      8  C   UNL     1     106.701 124.391 148.456  0.00  0.00    +0.000 A 
ATOM      9  C   UNL     1     107.478 124.634 148.592  0.00  0.00    +0.000 A 
ATOM     10  C   UNL     1     105.084 124.619 146.931  0.00  0.00    +0.000 A 
ATOM     11  C   UNL     1     107.468 125.358 147.359  0.00  0.00    +0.000 A 
ATOM     12  C   UNL     1     106.292 125.372 146.507  0.00  0.00    +0.000 A 
ATOM     13  C   UNL     1     105.483 125.122 146.360  0.00  0.00    +0.000 A 
ATOM     14  C   UNL     1     107.862 125.118 148.043  0.00  0.00    +0.000 A 
ATOM     15  C   UNL     1     107.099 123.874 149.612  0.00  0.00    +0.000 C 
ENDROOT
BRANCH  10  18
ATOM     16  O   UNL     1     103.235 122.739 145.827  0.00  0.00    +0.000 OA
ATOM     17  O   UNL     1     101.977 123.643 146.398  0.00  0.00    +0.000 OA
ATOM     18  C   UNL     1     104.307 124.375 146.798  0.00  0.00    +0.000 A 
ATOM     19  C   UNL     1     104.160 123.679 146.379  0.00  0.00    +0.000 A 
ATOM     20  C   UNL     1     103.678 124.826 147.083  0.00  0.00    +0.000 A 
ATOM     21  C   UNL     1     103.383 123.435 146.246  0.00  0.00    +0.000 A 
ATOM     22  C   UNL     1     102.901 124.582 146.949  0.00  0.00    +0.000 A 
ATOM     23  C   UNL     1     102.754 123.886 146.531  0.00  0.00    +0.000 A 
ENDBRANCH  10  18
BRANCH  13  24
ATOM     24  O   UNL     1     105.092 125.364 145.675  0.00  0.00    +0.000 OA
ATOM     25  C   UNL     1     105.522 125.665 145.039  0.00  0.00    +0.000 C 
ENDBRANCH  13  24
TORSDOF 2
ENDMDL
MODEL 3
REMARK VINA RESULT:      -8.6      1.707      2.419
REMARK  Name = 12444939
REMARK  2 active torsions:
REMARK  status: ('A' for Active; 'I' for Inactive)
REMARK    1  A    between atoms: O_4  and  C_16
REMARK    2  A    between atoms: C_13  and  C_18
REMARK                            x       y       z     vdW  Elec       q    Type
REMARK                         _______ _______ _______ _____ _____    ______ ____
ROOT
ATOM      1  O   UNL     1     103.448 124.452 146.225  0.00  0.00    +0.000 OA
ATOM      2  O   UNL     1     101.896 123.793 145.598  0.00  0.00    +0.000 OA
ATOM      3  O   UNL     1     100.917 123.317 146.359  0.00  0.00    +0.000 OA
ATOM      4  O   UNL     1     102.378 123.839 148.844  0.00  0.00    +0.000 OA
ATOM      5  O   UNL     1     103.690 124.429 148.746  0.00  0.00    +0.000 OA
ATOM      6  C   UNL     1     102.822 124.147 146.730  0.00  0.00    +0.000 A 
ATOM      7  C   UNL     1     102.904 124.141 147.550  0.00  0.00    +0.000 A 
ATOM      8  C   UNL     1     102.133 123.858 146.381  0.00  0.00    +0.000 A 
ATOM      9  C   UNL     1     101.525 123.562 146.854  0.00  0.00    +0.000 A 
ATOM     10  C   UNL     1     104.169 124.755 146.582  0.00  0.00    +0.000 A 
ATOM     11  C   UNL     1     102.296 123.845 148.023  0.00  0.00    +0.000 A 
ATOM     12  C   UNL     1     103.618 124.440 147.925  0.00  0.00    +0.000 A 
ATOM     13  C   UNL     1     104.254 124.749 147.437  0.00  0.00    +0.000 A 
ATOM     14  C   UNL     1     101.606 123.556 147.675  0.00  0.00    +0.000 A 
ATOM     15  C   UNL     1     101.147 123.460 145.585  0.00  0.00    +0.000 C 
ENDROOT
BRANCH  10  18
ATOM     16  O   UNL     1     106.450 124.309 144.917  0.00  0.00    +0.000 OA
ATOM     17  O   UNL     1     106.594 125.936 144.681  0.00  0.00    +0.000 OA
ATOM     18  C   UNL     1     104.775 125.050 146.107  0.00  0.00    +0.000 A 
ATOM     19  C   UNL     1     105.309 124.532 145.750  0.00  0.00    +0.000 A 
ATOM     20  C   UNL     1     104.848 125.864 145.988  0.00  0.00    +0.000 A 
ATOM     21  C   UNL     1     105.915 124.827 145.275  0.00  0.00    +0.000 A 
ATOM     22  C   UNL     1     105.454 126.159 145.513  0.00  0.00    +0.000 A 
ATOM     23  C   UNL     1     105.988 125.640 145.156  0.00  0.00    +0.000 A 
ENDBRANCH  10  18
BRANCH  13  24
ATOM     24  O   UNL     1     104.943 125.037 147.788  0.00  0.00    +0.000 OA
ATOM     25  C   UNL     1     105.159 124.784 148.543  0.00  0.00    +0.000 C 
ENDBRANCH  13  24
TORSDOF 2
ENDMDL
MODEL 4
REMARK VINA RESULT:      -8.6     13.204     13.895
REMARK  Name = 12444939
REMARK  2 active torsions:
REMARK  status: ('A' for Active; 'I' for Inactive)
REMARK    1  A    between atoms: O_4  and  C_16
REMARK    2  A    between atoms: C_13  and  C_18
REMARK                            x       y       z     vdW  Elec       q    Type
REMARK                         _______ _______ _______ _____ _____    ______ ____
ROOT
ATOM      1  O   UNL     1     112.666 126.403 136.501  0.00  0.00    +0.000 OA
ATOM      2  O   UNL     1     114.141 125.668 137.222  0.00  0.00    +0.000 OA
ATOM      3  O   UNL     1     114.333 124.363 137.378  0.00  0.00    +0.000 OA
ATOM      4  O   UNL     1     111.736 123.677 136.209  0.00  0.00    +0.000 OA
ATOM      5  O   UNL     1     110.890 124.756 135.762  0.00  0.00    +0.000 OA
ATOM      6  C   UNL     1     112.778 125.556 136.596  0.00  0.00    +0.000 A 
ATOM      7  C   UNL     1     112.198 125.022 136.354  0.00  0.00    +0.000 A 
ATOM      8  C   UNL     1     113.478 125.280 136.934  0.00  0.00    +0.000 A 
ATOM      9  C   UNL     1     113.597 124.469 137.031  0.00  0.00    +0.000 A 
ATOM     10  C   UNL     1     111.939 126.697 136.149  0.00  0.00    +0.000 A 
ATOM     11  C   UNL     1     112.317 124.212 136.451  0.00  0.00    +0.000 A 
ATOM     12  C   UNL     1     111.464 125.297 136.000  0.00  0.00    +0.000 A 
ATOM     13  C   UNL     1     111.334 126.140 135.897  0.00  0.00    +0.000 A 
ATOM     14  C   UNL     1     113.016 123.935 136.789  0.00  0.00    +0.000 A 
ATOM     15  C   UNL     1     114.668 125.102 137.495  0.00  0.00    +0.000 C 
ENDROOT
BRANCH  10  18
ATOM     16  O   UNL     1     112.279 129.083 134.612  0.00  0.00    +0.000 OA
ATOM     17  O   UNL     1     111.471 129.941 135.767  0.00  0.00    +0.000 OA
ATOM     18  C   UNL     1     111.822 127.508 136.053  0.00  0.00    +0.000 A 
ATOM     19  C   UNL     1     112.109 127.889 135.380  0.00  0.00    +0.000 A 
ATOM     20  C   UNL     1     111.418 127.937 136.630  0.00  0.00    +0.000 A 
ATOM     21  C   UNL     1     111.992 128.701 135.285  0.00  0.00    +0.000 A 
ATOM     22  C   UNL     1     111.301 128.749 136.535  0.00  0.00    +0.000 A 
ATOM     23  C   UNL     1     111.588 129.130 135.862  0.00  0.00    +0.000 A 
ENDBRANCH  10  18
BRANCH  13  24
ATOM     24  O   UNL     1     110.634 126.414 135.558  0.00  0.00    +0.000 OA
ATOM     25  C   UNL     1     110.190 125.918 135.070  0.00  0.00    +0.000 C 
ENDBRANCH  13  24
TORSDOF 2
ENDMDL
MODEL 5
REMARK VINA RESULT:      -8.5     12.666     13.599
REMARK  Name = 12444939
REMARK  2 active torsions:
REMARK  status: ('A' for Active; 'I' for Inactive)
REMARK    1  A    between atoms: O_4  and  C_16
REMARK    2  A    between atoms: C_13  and  C_18
REMARK                            x       y       z     vdW  Elec       q    Type
REMARK                         _______ _______ _______ _____ _____    ______ ____
ROOT
ATOM      1  O   UNL     1     112.232 126.802 136.119  0.00  0.00    +0.000 OA
ATOM      2  O   UNL     1     111.887 128.406 135.380  0.00  0.00    +0.000 OA
ATOM      3  O   UNL     1     110.837 128.672 134.612  0.00  0.00    +0.000 OA
ATOM      4  O   UNL     1     109.797 125.941 134.811  0.00  0.00    +0.000 OA
ATOM      5  O   UNL     1     110.541 124.990 135.600  0.00  0.00    +0.000 OA
ATOM      6  C   UNL     1     111.548 126.961 135.623  0.00  0.00    +0.000 A 
ATOM      7  C   UNL     1     110.999 126.369 135.456  0.00  0.00    +0.000 A 
ATOM      8  C   UNL     1     111.445 127.719 135.313  0.00  0.00    +0.000 A 
ATOM      9  C   UNL     1     110.793 127.884 134.836  0.00  0.00    +0.000 A 
ATOM     10  C   UNL     1     112.345 126.015 136.444  0.00  0.00    +0.000 A 
ATOM     11  C   UNL     1     110.347 126.534 134.978  0.00  0.00    +0.000 A 
ATOM     12  C   UNL     1     111.095 125.575 135.772  0.00  0.00    +0.000 A 
ATOM     13  C   UNL     1     111.773 125.398 136.270  0.00  0.00    +0.000 A 
ATOM     14  C   UNL     1     110.243 127.291 134.668  0.00  0.00    +0.000 A 
ATOM     15  C   UNL     1     111.512 128.994 134.948  0.00  0.00    +0.000 C 
ENDROOT
BRANCH  10  18
ATOM     16  O   UNL     1     113.614 126.063 139.005  0.00  0.00    +0.000 OA
ATOM     17  O   UNL     1     114.959 125.365 138.351  0.00  0.00    +0.000 OA
ATOM     18  C   UNL     1     112.998 125.852 136.921  0.00  0.00    +0.000 A 
ATOM     19  C   UNL     1     112.979 126.039 137.725  0.00  0.00    +0.000 A 
ATOM     20  C   UNL     1     113.671 125.503 136.595  0.00  0.00    +0.000 A 
ATOM     21  C   UNL     1     113.632 125.877 138.201  0.00  0.00    +0.000 A 
ATOM     22  C   UNL     1     114.324 125.341 137.072  0.00  0.00    +0.000 A 
ATOM     23  C   UNL     1     114.305 125.528 137.875  0.00  0.00    +0.000 A 
ENDBRANCH  10  18
BRANCH  13  24
ATOM     24  O   UNL     1     111.873 124.639 136.578  0.00  0.00    +0.000 OA
ATOM     25  C   UNL     1     111.587 123.985 136.166  0.00  0.00    +0.000 C 
ENDBRANCH  13  24
TORSDOF 2
ENDMDL
MODEL 6
REMARK VINA RESULT:      -8.3      1.339      2.655
REMARK  Name = 12444939
REMARK  2 active torsions:
REMARK  status: ('A' for Active; 'I' for Inactive)
REMARK    1  A    between atoms: O_4  and  C_16
REMARK    2  A    between atoms: C_13  and  C_18
REMARK                            x       y       z     vdW  Elec       q    Type
REMARK                         _______ _______ _______ _____ _____    ______ ____
ROOT
ATOM      1  O   UNL     1     103.554 124.020 147.224  0.00  0.00    +0.000 OA
ATOM      2  O   UNL     1     101.967 123.441 147.844  0.00  0.00    +0.000 OA
ATOM      3  O   UNL     1     101.080 122.763 147.125  0.00  0.00    +0.000 OA
ATOM      4  O   UNL     1     102.758 122.795 144.724  0.00  0.00    +0.000 OA
ATOM      5  O   UNL     1     104.038 123.454 144.803  0.00  0.00    +0.000 OA
ATOM      6  C   UNL     1     102.988 123.582 146.747  0.00  0.00    +0.000 A 
ATOM      7  C   UNL     1     103.149 123.399 145.960  0.00  0.00    +0.000 A 
ATOM      8  C   UNL     1     102.276 123.344 147.090  0.00  0.00    +0.000 A 
ATOM      9  C   UNL     1     101.725 122.922 146.644  0.00  0.00    +0.000 A 
ATOM     10  C   UNL     1     104.298 124.271 146.873  0.00  0.00    +0.000 A 
ATOM     11  C   UNL     1     102.597 122.978 145.513  0.00  0.00    +0.000 A 
ATOM     12  C   UNL     1     103.887 123.642 145.592  0.00  0.00    +0.000 A 
ATOM     13  C   UNL     1     104.465 124.080 146.052  0.00  0.00    +0.000 A 
ATOM     14  C   UNL     1     101.885 122.739 145.855  0.00  0.00    +0.000 A 
ATOM     15  C   UNL     1     101.230 123.084 147.865  0.00  0.00    +0.000 C 
ENDROOT
BRANCH  10  18
ATOM     16  O   UNL     1     106.562 124.307 148.618  0.00  0.00    +0.000 OA
ATOM     17  O   UNL     1     106.496 125.956 148.668  0.00  0.00    +0.000 OA
ATOM     18  C   UNL     1     104.847 124.692 147.322  0.00  0.00    +0.000 A 
ATOM     19  C   UNL     1     105.429 124.289 147.745  0.00  0.00    +0.000 A 
ATOM     20  C   UNL     1     104.815 125.516 147.347  0.00  0.00    +0.000 A 
ATOM     21  C   UNL     1     105.979 124.710 148.194  0.00  0.00    +0.000 A 
ATOM     22  C   UNL     1     105.364 125.937 147.796  0.00  0.00    +0.000 A 
ATOM     23  C   UNL     1     105.946 125.534 148.219  0.00  0.00    +0.000 A 
ENDBRANCH  10  18
BRANCH  13  24
ATOM     24  O   UNL     1     105.176 124.317 145.707  0.00  0.00    +0.000 OA
ATOM     25  C   UNL     1     105.256 124.320 144.886  0.00  0.00    +0.000 C 
ENDBRANCH  13  24
TORSDOF 2
ENDMDL
MODEL 7
REMARK VINA RESULT:      -8.3     13.334     14.297
REMARK  Name = 12444939
REMARK  2 active torsions:
REMARK  status: ('A' for Active; 'I' for Inactive)
REMARK    1  A    between atoms: O_4  and  C_16
REMARK    2  A    between atoms: C_13  and  C_18
REMARK                            x       y       z     vdW  Elec       q    Type
REMARK                         _______ _______ _______ _____ _____    ______ ____
ROOT
ATOM      1  O   UNL     1     113.656 126.932 136.603  0.00  0.00    +0.000 OA
ATOM      2  O   UNL     1     114.550 125.483 137.185  0.00  0.00    +0.000 OA
ATOM      3  O   UNL     1     114.046 124.255 137.232  0.00  0.00    +0.000 OA
ATOM      4  O   UNL     1     111.455 125.104 136.161  0.00  0.00    +0.000 OA
ATOM      5  O   UNL     1     111.279 126.500 135.843  0.00  0.00    +0.000 OA
ATOM      6  C   UNL     1     113.317 126.142 136.629  0.00  0.00    +0.000 A 
ATOM      7  C   UNL     1     112.543 126.005 136.380  0.00  0.00    +0.000 A 
ATOM      8  C   UNL     1     113.779 125.517 136.906  0.00  0.00    +0.000 A 
ATOM      9  C   UNL     1     113.466 124.754 136.936  0.00  0.00    +0.000 A 
ATOM     10  C   UNL     1     113.180 127.587 136.315  0.00  0.00    +0.000 A 
ATOM     11  C   UNL     1     112.230 125.242 136.409  0.00  0.00    +0.000 A 
ATOM     12  C   UNL     1     112.052 126.647 136.089  0.00  0.00    +0.000 A 
ATOM     13  C   UNL     1     112.373 127.443 136.056  0.00  0.00    +0.000 A 
ATOM     14  C   UNL     1     112.691 124.617 136.687  0.00  0.00    +0.000 A 
ATOM     15  C   UNL     1     114.714 124.705 137.386  0.00  0.00    +0.000 C 
ENDROOT
BRANCH  10  18
ATOM     16  O   UNL     1     114.735 129.575 134.972  0.00  0.00    +0.000 OA
ATOM     17  O   UNL     1     114.443 130.634 136.204  0.00  0.00    +0.000 OA
ATOM     18  C   UNL     1     113.496 128.349 136.287  0.00  0.00    +0.000 A 
ATOM     19  C   UNL     1     113.957 128.580 135.644  0.00  0.00    +0.000 A 
ATOM     20  C   UNL     1     113.351 128.879 136.903  0.00  0.00    +0.000 A 
ATOM     21  C   UNL     1     114.273 129.342 135.616  0.00  0.00    +0.000 A 
ATOM     22  C   UNL     1     113.666 129.640 136.874  0.00  0.00    +0.000 A 
ATOM     23  C   UNL     1     114.128 129.872 136.231  0.00  0.00    +0.000 A 
ENDBRANCH  10  18
BRANCH  13  24
ATOM     24  O   UNL     1     111.910 128.067 135.778  0.00  0.00    +0.000 OA
ATOM     25  C   UNL     1     111.287 127.917 135.258  0.00  0.00    +0.000 C 
ENDBRANCH  13  24
TORSDOF 2
ENDMDL
MODEL 8
REMARK VINA RESULT:      -8.2     13.167     13.831
REMARK  Name = 12444939
REMARK  2 active torsions:
REMARK  status: ('A' for Active; 'I' for Inactive)
REMARK    1  A    between atoms: O_4  and  C_16
REMARK    2  A    between atoms: C_13  and  C_18
REMARK                            x       y       z     vdW  Elec       q    Type
REMARK                         _______ _______ _______ _____ _____    ______ ____
ROOT
ATOM      1  O   UNL     1     112.032 126.346 136.029  0.00  0.00    +0.000 OA
ATOM      2  O   UNL     1     110.549 125.648 135.288  0.00  0.00    +0.000 OA
ATOM      3  O   UNL     1     109.644 126.347 134.612  0.00  0.00    +0.000 OA
ATOM      4  O   UNL     1     111.089 128.870 134.969  0.00  0.00    +0.000 OA
ATOM      5  O   UNL     1     112.327 128.841 135.709  0.00  0.00    +0.000 OA
ATOM      6  C   UNL     1     111.454 126.810 135.594  0.00  0.00    +0.000 A 
ATOM      7  C   UNL     1     111.553 127.622 135.491  0.00  0.00    +0.000 A 
ATOM      8  C   UNL     1     110.793 126.431 135.277  0.00  0.00    +0.000 A 
ATOM      9  C   UNL     1     110.231 126.865 134.858  0.00  0.00    +0.000 A 
ATOM     10  C   UNL     1     112.723 126.735 136.362  0.00  0.00    +0.000 A 
ATOM     11  C   UNL     1     110.991 128.056 135.072  0.00  0.00    +0.000 A 
ATOM     12  C   UNL     1     112.237 128.028 135.817  0.00  0.00    +0.000 A 
ATOM     13  C   UNL     1     112.826 127.581 136.254  0.00  0.00    +0.000 A 
ATOM     14  C   UNL     1     110.329 127.678 134.755  0.00  0.00    +0.000 A 
ATOM     15  C   UNL     1     109.840 125.596 134.878  0.00  0.00    +0.000 C 
ENDROOT
BRANCH  10  18
ATOM     16  O   UNL     1     115.063 125.093 136.395  0.00  0.00    +0.000 OA
ATOM     17  O   UNL     1     114.965 124.988 138.039  0.00  0.00    +0.000 OA
ATOM     18  C   UNL     1     113.284 126.298 136.781  0.00  0.00    +0.000 A 
ATOM     19  C   UNL     1     113.893 125.914 136.378  0.00  0.00    +0.000 A 
ATOM     20  C   UNL     1     113.235 126.245 137.603  0.00  0.00    +0.000 A 
ATOM     21  C   UNL     1     114.453 125.477 136.797  0.00  0.00    +0.000 A 
ATOM     22  C   UNL     1     113.796 125.809 138.022  0.00  0.00    +0.000 A 
ATOM     23  C   UNL     1     114.405 125.425 137.619  0.00  0.00    +0.000 A 
ENDBRANCH  10  18
BRANCH  13  24
ATOM     24  O   UNL     1     113.486 127.962 136.570  0.00  0.00    +0.000 OA
ATOM     25  C   UNL     1     113.739 128.680 136.253  0.00  0.00    +0.000 C 
ENDBRANCH  13  24
TORSDOF 2
ENDMDL
MODEL 9
REMARK VINA RESULT:      -8.1      1.398      4.448
REMARK  Name = 12444939
REMARK  2 active torsions:
REMARK  status: ('A' for Active; 'I' for Inactive)
REMARK    1  A    between atoms: O_4  and  C_16
REMARK    2  A    between atoms: C_13  and  C_18
REMARK                            x       y       z     vdW  Elec       q    Type
REMARK                         _______ _______ _______ _____ _____    ______ ____
ROOT
ATOM      1  O   UNL     1     104.232 124.888 147.230  0.00  0.00    +0.000 OA
ATOM      2  O   UNL     1     105.390 125.993 148.052  0.00  0.00    +0.000 OA
ATOM      3  O   UNL     1     106.602 126.288 147.597  0.00  0.00    +0.000 OA
ATOM      4  O   UNL     1     106.301 124.592 145.227  0.00  0.00    +0.000 OA
ATOM      5  O   UNL     1     105.060 123.876 145.062  0.00  0.00    +0.000 OA
ATOM      6  C   UNL     1     105.014 125.071 146.924  0.00  0.00    +0.000 A 
ATOM      7  C   UNL     1     105.281 124.740 146.218  0.00  0.00    +0.000 A 
ATOM      8  C   UNL     1     105.500 125.586 147.348  0.00  0.00    +0.000 A 
ATOM      9  C   UNL     1     106.253 125.770 147.065  0.00  0.00    +0.000 A 
ATOM     10  C   UNL     1     103.721 124.353 146.793  0.00  0.00    +0.000 A 
ATOM     11  C   UNL     1     106.034 124.924 145.935  0.00  0.00    +0.000 A 
ATOM     12  C   UNL     1     104.785 124.203 145.767  0.00  0.00    +0.000 A 
ATOM     13  C   UNL     1     104.000 124.008 146.057  0.00  0.00    +0.000 A 
ATOM     14  C   UNL     1     106.520 125.438 146.358  0.00  0.00    +0.000 A 
ATOM     15  C   UNL     1     106.070 126.425 148.205  0.00  0.00    +0.000 C 
ENDROOT
BRANCH  10  18
ATOM     16  O   UNL     1     102.026 122.800 148.492  0.00  0.00    +0.000 OA
ATOM     17  O   UNL     1     100.711 123.627 147.934  0.00  0.00    +0.000 OA
ATOM     18  C   UNL     1     102.969 124.171 147.078  0.00  0.00    +0.000 A 
ATOM     19  C   UNL     1     102.874 123.576 147.642  0.00  0.00    +0.000 A 
ATOM     20  C   UNL     1     102.311 124.584 146.800  0.00  0.00    +0.000 A 
ATOM     21  C   UNL     1     102.121 123.395 147.927  0.00  0.00    +0.000 A 
ATOM     22  C   UNL     1     101.558 124.403 147.085  0.00  0.00    +0.000 A 
ATOM     23  C   UNL     1     101.464 123.808 147.649  0.00  0.00    +0.000 A 
ENDBRANCH  10  18
BRANCH  13  24
ATOM     24  O   UNL     1     103.516 123.493 145.631  0.00  0.00    +0.000 OA
ATOM     25  C   UNL     1     103.851 122.952 145.106  0.00  0.00    +0.000 C 
ENDBRANCH  13  24
TORSDOF 2
ENDMDL
MODEL 10
REMARK VINA RESULT:      -8.1     12.111     13.563
REMARK  Name = 12444939
REMARK  2 active torsions:
REMARK  status: ('A' for Active; 'I' for Inactive)
REMARK    1  A    between atoms: O_4  and  C_16
REMARK    2  A    between atoms: C_13  and  C_18
REMARK                            x       y       z     vdW  Elec       q    Type
REMARK                         _______ _______ _______ _____ _____    ______ ____
ROOT
ATOM      1  O   UNL     1     111.354 125.876 136.390  0.00  0.00    +0.000 OA
ATOM      2  O   UNL     1     111.621 124.131 136.742  0.00  0.00    +0.000 OA
ATOM      3  O   UNL     1     112.811 123.576 136.942  0.00  0.00    +0.000 OA
ATOM      4  O   UNL     1     114.233 126.111 136.576  0.00  0.00    +0.000 OA
ATOM      5  O   UNL     1     113.452 127.290 136.291  0.00  0.00    +0.000 OA
ATOM      6  C   UNL     1     112.130 125.529 136.518  0.00  0.00    +0.000 A 
ATOM      7  C   UNL     1     112.812 125.992 136.485  0.00  0.00    +0.000 A 
ATOM      8  C   UNL     1     112.187 124.721 136.676  0.00  0.00    +0.000 A 
ATOM      9  C   UNL     1     112.926 124.376 136.800  0.00  0.00    +0.000 A 
ATOM     10  C   UNL     1     111.288 126.716 136.226  0.00  0.00    +0.000 A 
ATOM     11  C   UNL     1     113.551 125.648 136.609  0.00  0.00    +0.000 A 
ATOM     12  C   UNL     1     112.765 126.835 136.322  0.00  0.00    +0.000 A 
ATOM     13  C   UNL     1     111.998 127.199 136.192  0.00  0.00    +0.000 A 
ATOM     14  C   UNL     1     113.609 124.840 136.767  0.00  0.00    +0.000 A 
ATOM     15  C   UNL     1     112.006 123.426 136.906  0.00  0.00    +0.000 C 
ENDROOT
BRANCH  10  18
ATOM     16  O   UNL     1     108.960 128.020 137.252  0.00  0.00    +0.000 OA
ATOM     17  O   UNL     1     108.326 128.084 135.729  0.00  0.00    +0.000 OA
ATOM     18  C   UNL     1     110.547 127.058 136.102  0.00  0.00    +0.000 A 
ATOM     19  C   UNL     1     110.124 127.368 136.739  0.00  0.00    +0.000 A 
ATOM     20  C   UNL     1     110.230 127.090 135.341  0.00  0.00    +0.000 A 
ATOM     21  C   UNL     1     109.384 127.710 136.615  0.00  0.00    +0.000 A 
ATOM     22  C   UNL     1     109.489 127.432 135.217  0.00  0.00    +0.000 A 
ATOM     23  C   UNL     1     109.066 127.742 135.854  0.00  0.00    +0.000 A 
ENDBRANCH  10  18
BRANCH  13  24
ATOM     24  O   UNL     1     111.944 128.007 136.034  0.00  0.00    +0.000 OA
ATOM     25  C   UNL     1     112.606 128.421 135.768  0.00  0.00    +0.000 C 
ENDBRANCH  13  24
TORSDOF 2
ENDMDL
