MODEL 1
REMARK VINA RESULT:     -11.8      0.000      0.000
REMARK  Name = 74978230
REMARK  11 active torsions:
REMARK  status: ('A' for Active; 'I' for Inactive)
REMARK    1  A    between atoms: O_1  and  C_26
REMARK    2  A    between atoms: O_1  and  C_29
REMARK    3  A    between atoms: O_6  and  C_42
REMARK    4  A    between atoms: O_6  and  C_46
REMARK    5  A    between atoms: O_8  and  C_35
REMARK    6  A    between atoms: O_8  and  C_50
REMARK    7  A    between atoms: O_14  and  C_45
REMARK    8  A    between atoms: O_14  and  C_51
REMARK    9  A    between atoms: C_34  and  C_48
REMARK   10  A    between atoms: C_36  and  C_46
REMARK   11  A    between atoms: C_53  and  C_59
REMARK                            x       y       z     vdW  Elec       q    Type
REMARK                         _______ _______ _______ _____ _____    ______ ____
ROOT
ATOM      1  O   UNL     1     113.482 128.608 138.302  0.00  0.00    +0.000 OA
ATOM      2  O   UNL     1     112.221 129.786 136.528  0.00  0.00    +0.000 OA
ATOM      3  O   UNL     1     112.121 128.574 135.753  0.00  0.00    +0.000 OA
ATOM      4  C   UNL     1     112.894 129.805 137.787  0.00  0.00    +0.000 A 
ATOM      5  C   UNL     1     113.149 126.926 136.869  0.00  0.00    +0.000 A 
ATOM      6  C   UNL     1     112.641 129.393 137.118  0.00  0.00    +0.000 A 
ATOM      7  C   UNL     1     113.314 129.412 138.379  0.00  0.00    +0.000 A 
ATOM      8  C   UNL     1     112.809 128.589 137.041  0.00  0.00    +0.000 A 
ATOM      9  C   UNL     1     113.229 128.197 137.633  0.00  0.00    +0.000 A 
ATOM     10  C   UNL     1     113.410 127.359 137.563  0.00  0.00    +0.000 A 
ATOM     11  C   UNL     1     112.712 127.334 136.253  0.00  0.00    +0.000 A 
ATOM     12  C   UNL     1     112.540 128.172 136.340  0.00  0.00    +0.000 A 
ENDROOT
BRANCH   7  15
ATOM     13  O   UNL     1     113.059 130.005 141.164  0.00  0.00    +0.000 OA
ATOM     14  O   UNL     1     114.325 131.058 141.055  0.00  0.00    +0.000 OA
ATOM     15  C   UNL     1     113.567 129.824 139.048  0.00  0.00    +0.000 A 
ATOM     16  C   UNL     1     113.187 129.709 139.771  0.00  0.00    +0.000 A 
ATOM     17  C   UNL     1     114.200 130.350 138.994  0.00  0.00    +0.000 A 
ATOM     18  C   UNL     1     113.439 130.120 140.440  0.00  0.00    +0.000 A 
ATOM     19  C   UNL     1     114.453 130.761 139.664  0.00  0.00    +0.000 A 
ATOM     20  C   UNL     1     114.072 130.646 140.386  0.00  0.00    +0.000 A 
ENDBRANCH   7  15
BRANCH   4  21
ATOM     21  O   UNL     1     112.727 130.609 137.865  0.00  0.00    +0.000 OA
BRANCH  21  29
ATOM     22  O   UNL     1     111.356 130.404 138.213  0.00  0.00    +0.000 OA
ATOM     23  O   UNL     1     110.770 132.578 137.185  0.00  0.00    +0.000 OA
ATOM     24  O   UNL     1     112.336 132.058 137.181  0.00  0.00    +0.000 OA
ATOM     25  C   UNL     1     110.378 131.388 137.873  0.00  0.00    +0.000 C 
ATOM     26  C   UNL     1     110.965 131.853 137.528  0.00  0.00    +0.000 C 
ATOM     27  C   UNL     1     110.573 130.663 138.216  0.00  0.00    +0.000 C 
ATOM     28  C   UNL     1     111.748 131.593 137.526  0.00  0.00    +0.000 C 
ATOM     29  C   UNL     1     111.944 130.869 137.868  0.00  0.00    +0.000 C 
ATOM     30  C   UNL     1     109.985 130.198 138.561  0.00  0.00    +0.000 C 
BRANCH  25  31
ATOM     31  O   UNL     1     109.595 131.647 137.876  0.00  0.00    +0.000 OA
BRANCH  31  36
ATOM     32  O   UNL     1     109.378 131.008 136.616  0.00  0.00    +0.000 OA
ATOM     33  O   UNL     1     108.033 132.181 137.873  0.00  0.00    +0.000 OA
ATOM     34  O   UNL     1     107.036 131.809 136.612  0.00  0.00    +0.000 OA
ATOM     35  O   UNL     1     107.600 130.903 135.354  0.00  0.00    +0.000 OA
ATOM     36  C   UNL     1     109.096 131.461 137.245  0.00  0.00    +0.000 C 
ATOM     37  C   UNL     1     108.315 131.728 137.244  0.00  0.00    +0.000 C 
ATOM     38  C   UNL     1     107.817 131.542 136.613  0.00  0.00    +0.000 C 
ATOM     39  C   UNL     1     108.099 131.088 135.984  0.00  0.00    +0.000 C 
ATOM     40  C   UNL     1     108.879 130.822 135.986  0.00  0.00    +0.000 C 
BRANCH  40  42
ATOM     41  O   UNL     1     109.617 130.721 134.767  0.00  0.00    +0.000 OA
ATOM     42  C   UNL     1     109.161 130.368 135.357  0.00  0.00    +0.000 C 
ENDBRANCH  40  42
ENDBRANCH  31  36
ENDBRANCH  25  31
ENDBRANCH  21  29
ENDBRANCH   4  21
BRANCH   5  43
ATOM     43  O   UNL     1     113.318 126.121 136.794  0.00  0.00    +0.000 OA
BRANCH  43  52
ATOM     44  O   UNL     1     112.263 125.751 137.684  0.00  0.00    +0.000 OA
ATOM     45  O   UNL     1     111.170 123.873 137.900  0.00  0.00    +0.000 OA
ATOM     46  O   UNL     1     112.207 123.491 136.675  0.00  0.00    +0.000 OA
ATOM     47  O   UNL     1     113.281 124.615 136.122  0.00  0.00    +0.000 OA
ATOM     48  C   UNL     1     111.726 125.189 137.960  0.00  0.00    +0.000 C 
ATOM     49  C   UNL     1     111.707 124.435 137.624  0.00  0.00    +0.000 C 
ATOM     50  C   UNL     1     112.226 124.245 137.011  0.00  0.00    +0.000 C 
ATOM     51  C   UNL     1     112.763 124.807 136.735  0.00  0.00    +0.000 C 
ATOM     52  C   UNL     1     112.781 125.559 137.071  0.00  0.00    +0.000 C 
BRANCH  48  53
ATOM     53  C   UNL     1     111.208 125.380 138.572  0.00  0.00    +0.000 C 
BRANCH  53  54
ATOM     54  O   UNL     1     111.496 125.714 139.269  0.00  0.00    +0.000 OA
BRANCH  54  60
ATOM     55  O   UNL     1     110.162 125.825 139.769  0.00  0.00    +0.000 OA
ATOM     56  O   UNL     1     112.070 126.431 140.640  0.00  0.00    +0.000 OA
ATOM     57  O   UNL     1     111.023 126.899 141.826  0.00  0.00    +0.000 OA
ATOM     58  O   UNL     1     109.402 126.651 141.641  0.00  0.00    +0.000 OA
ATOM     59  C   UNL     1     111.259 126.307 140.547  0.00  0.00    +0.000 C 
ATOM     60  C   UNL     1     110.972 125.949 139.862  0.00  0.00    +0.000 C 
ATOM     61  C   UNL     1     110.736 126.541 141.141  0.00  0.00    +0.000 C 
ATOM     62  C   UNL     1     109.925 126.417 141.048  0.00  0.00    +0.000 C 
ATOM     63  C   UNL     1     109.638 126.059 140.362  0.00  0.00    +0.000 C 
ATOM     64  C   UNL     1     108.828 125.935 140.270  0.00  0.00    +0.000 C 
ENDBRANCH  54  60
ENDBRANCH  53  54
ENDBRANCH  48  53
ENDBRANCH  43  52
ENDBRANCH   5  43
TORSDOF 11
ENDMDL
MODEL 2
REMARK VINA RESULT:     -11.4      1.618      3.969
REMARK  Name = 74978230
REMARK  11 active torsions:
REMARK  status: ('A' for Active; 'I' for Inactive)
REMARK    1  A    between atoms: O_1  and  C_26
REMARK    2  A    between atoms: O_1  and  C_29
REMARK    3  A    between atoms: O_6  and  C_42
REMARK    4  A    between atoms: O_6  and  C_46
REMARK    5  A    between atoms: O_8  and  C_35
REMARK    6  A    between atoms: O_8  and  C_50
REMARK    7  A    between atoms: O_14  and  C_45
REMARK    8  A    between atoms: O_14  and  C_51
REMARK    9  A    between atoms: C_34  and  C_48
REMARK   10  A    between atoms: C_36  and  C_46
REMARK   11  A    between atoms: C_53  and  C_59
REMARK                            x       y       z     vdW  Elec       q    Type
REMARK                         _______ _______ _______ _____ _____    ______ ____
ROOT
ATOM      1  O   UNL     1     111.203 129.422 136.144  0.00  0.00    +0.000 OA
ATOM      2  O   UNL     1     112.150 130.655 138.070  0.00  0.00    +0.000 OA
ATOM      3  O   UNL     1     113.336 129.835 138.049  0.00  0.00    +0.000 OA
ATOM      4  C   UNL     1     111.095 130.452 137.129  0.00  0.00    +0.000 A 
ATOM      5  C   UNL     1     113.147 128.346 136.385  0.00  0.00    +0.000 A 
ATOM      6  C   UNL     1     111.835 130.243 137.428  0.00  0.00    +0.000 A 
ATOM      7  C   UNL     1     110.779 130.041 136.486  0.00  0.00    +0.000 A 
ATOM      8  C   UNL     1     112.259 129.625 137.085  0.00  0.00    +0.000 A 
ATOM      9  C   UNL     1     111.943 129.214 136.443  0.00  0.00    +0.000 A 
ATOM     10  C   UNL     1     112.376 128.567 136.078  0.00  0.00    +0.000 A 
ATOM     11  C   UNL     1     113.476 128.774 137.053  0.00  0.00    +0.000 A 
ATOM     12  C   UNL     1     113.029 129.418 137.406  0.00  0.00    +0.000 A 
ENDROOT
BRANCH   7  15
ATOM     13  O   UNL     1     107.995 129.481 136.159  0.00  0.00    +0.000 OA
ATOM     14  O   UNL     1     107.818 130.872 135.289  0.00  0.00    +0.000 OA
ATOM     15  C   UNL     1     110.039 130.249 136.187  0.00  0.00    +0.000 A 
ATOM     16  C   UNL     1     109.387 129.761 136.322  0.00  0.00    +0.000 A 
ATOM     17  C   UNL     1     109.951 130.944 135.752  0.00  0.00    +0.000 A 
ATOM     18  C   UNL     1     108.647 129.969 136.023  0.00  0.00    +0.000 A 
ATOM     19  C   UNL     1     109.209 131.152 135.453  0.00  0.00    +0.000 A 
ATOM     20  C   UNL     1     108.558 130.664 135.589  0.00  0.00    +0.000 A 
ENDBRANCH   7  15
BRANCH   4  21
ATOM     21  O   UNL     1     110.669 131.071 137.471  0.00  0.00    +0.000 OA
BRANCH  21  29
ATOM     22  O   UNL     1     110.251 130.303 138.602  0.00  0.00    +0.000 OA
ATOM     23  O   UNL     1     110.191 132.361 139.976  0.00  0.00    +0.000 OA
ATOM     24  O   UNL     1     110.630 132.442 138.386  0.00  0.00    +0.000 OA
ATOM     25  C   UNL     1     110.012 130.949 139.854  0.00  0.00    +0.000 C 
ATOM     26  C   UNL     1     110.211 131.675 139.518  0.00  0.00    +0.000 C 
ATOM     27  C   UNL     1     110.032 130.262 139.396  0.00  0.00    +0.000 C 
ATOM     28  C   UNL     1     110.430 131.716 138.724  0.00  0.00    +0.000 C 
ATOM     29  C   UNL     1     110.450 131.030 138.265  0.00  0.00    +0.000 C 
ATOM     30  C   UNL     1     109.833 129.536 139.732  0.00  0.00    +0.000 C 
BRANCH  25  31
ATOM     31  O   UNL     1     109.793 130.908 140.648  0.00  0.00    +0.000 OA
BRANCH  31  36
ATOM     32  O   UNL     1     111.144 130.635 141.026  0.00  0.00    +0.000 OA
ATOM     33  O   UNL     1     109.403 131.162 142.231  0.00  0.00    +0.000 OA
ATOM     34  O   UNL     1     110.558 131.015 143.400  0.00  0.00    +0.000 OA
ATOM     35  O   UNL     1     112.104 130.615 142.986  0.00  0.00    +0.000 OA
ATOM     36  C   UNL     1     110.371 130.835 141.232  0.00  0.00    +0.000 C 
ATOM     37  C   UNL     1     110.176 130.962 142.024  0.00  0.00    +0.000 C 
ATOM     38  C   UNL     1     110.753 130.888 142.608  0.00  0.00    +0.000 C 
ATOM     39  C   UNL     1     111.527 130.688 142.401  0.00  0.00    +0.000 C 
ATOM     40  C   UNL     1     111.721 130.562 141.610  0.00  0.00    +0.000 C 
BRANCH  40  42
ATOM     41  O   UNL     1     113.006 130.940 141.112  0.00  0.00    +0.000 OA
ATOM     42  C   UNL     1     112.495 130.362 141.403  0.00  0.00    +0.000 C 
ENDBRANCH  40  42
ENDBRANCH  31  36
ENDBRANCH  25  31
ENDBRANCH  21  29
ENDBRANCH   4  21
BRANCH   5  43
ATOM     43  O   UNL     1     113.570 127.727 136.040  0.00  0.00    +0.000 OA
BRANCH  43  52
ATOM     44  O   UNL     1     112.883 126.721 136.787  0.00  0.00    +0.000 OA
ATOM     45  O   UNL     1     113.513 124.726 137.412  0.00  0.00    +0.000 OA
ATOM     46  O   UNL     1     114.858 125.239 136.604  0.00  0.00    +0.000 OA
ATOM     47  O   UNL     1     114.886 126.739 135.918  0.00  0.00    +0.000 OA
ATOM     48  C   UNL     1     112.869 125.970 137.130  0.00  0.00    +0.000 C 
ATOM     49  C   UNL     1     113.527 125.476 137.069  0.00  0.00    +0.000 C 
ATOM     50  C   UNL     1     114.199 125.733 136.665  0.00  0.00    +0.000 C 
ATOM     51  C   UNL     1     114.213 126.483 136.322  0.00  0.00    +0.000 C 
ATOM     52  C   UNL     1     113.555 126.976 136.383  0.00  0.00    +0.000 C 
BRANCH  48  53
ATOM     53  C   UNL     1     112.197 125.714 137.534  0.00  0.00    +0.000 C 
BRANCH  53  54
ATOM     54  O   UNL     1     111.960 126.095 138.226  0.00  0.00    +0.000 OA
BRANCH  54  60
ATOM     55  O   UNL     1     110.586 126.278 137.877  0.00  0.00    +0.000 OA
ATOM     56  O   UNL     1     111.521 125.761 139.781  0.00  0.00    +0.000 OA
ATOM     57  O   UNL     1     109.927 125.776 140.209  0.00  0.00    +0.000 OA
ATOM     58  O   UNL     1     108.773 126.125 139.083  0.00  0.00    +0.000 OA
ATOM     59  C   UNL     1     110.943 125.936 139.217  0.00  0.00    +0.000 C 
ATOM     60  C   UNL     1     111.163 126.103 138.440  0.00  0.00    +0.000 C 
ATOM     61  C   UNL     1     110.147 125.943 139.432  0.00  0.00    +0.000 C 
ATOM     62  C   UNL     1     109.569 126.118 138.868  0.00  0.00    +0.000 C 
ATOM     63  C   UNL     1     109.789 126.285 138.091  0.00  0.00    +0.000 C 
ATOM     64  C   UNL     1     109.212 126.460 137.528  0.00  0.00    +0.000 C 
ENDBRANCH  54  60
ENDBRANCH  53  54
ENDBRANCH  48  53
ENDBRANCH  43  52
ENDBRANCH   5  43
TORSDOF 11
ENDMDL
MODEL 3
REMARK VINA RESULT:     -11.4      1.908      3.456
REMARK  Name = 74978230
REMARK  11 active torsions:
REMARK  status: ('A' for Active; 'I' for Inactive)
REMARK    1  A    between atoms: O_1  and  C_26
REMARK    2  A    between atoms: O_1  and  C_29
REMARK    3  A    between atoms: O_6  and  C_42
REMARK    4  A    between atoms: O_6  and  C_46
REMARK    5  A    between atoms: O_8  and  C_35
REMARK    6  A    between atoms: O_8  and  C_50
REMARK    7  A    between atoms: O_14  and  C_45
REMARK    8  A    between atoms: O_14  and  C_51
REMARK    9  A    between atoms: C_34  and  C_48
REMARK   10  A    between atoms: C_36  and  C_46
REMARK   11  A    between atoms: C_53  and  C_59
REMARK                            x       y       z     vdW  Elec       q    Type
REMARK                         _______ _______ _______ _____ _____    ______ ____
ROOT
ATOM      1  O   UNL     1     112.433 128.561 140.586  0.00  0.00    +0.000 OA
ATOM      2  O   UNL     1     111.954 128.658 138.160  0.00  0.00    +0.000 OA
ATOM      3  O   UNL     1     111.074 127.519 138.259  0.00  0.00    +0.000 OA
ATOM      4  C   UNL     1     112.626 129.174 139.310  0.00  0.00    +0.000 A 
ATOM      5  C   UNL     1     111.023 126.838 140.392  0.00  0.00    +0.000 A 
ATOM      6  C   UNL     1     112.113 128.625 138.968  0.00  0.00    +0.000 A 
ATOM      7  C   UNL     1     112.786 129.142 140.119  0.00  0.00    +0.000 A 
ATOM      8  C   UNL     1     111.760 128.044 139.436  0.00  0.00    +0.000 A 
ATOM      9  C   UNL     1     111.920 128.012 140.245  0.00  0.00    +0.000 A 
ATOM     10  C   UNL     1     111.558 127.412 140.742  0.00  0.00    +0.000 A 
ATOM     11  C   UNL     1     110.856 126.871 139.550  0.00  0.00    +0.000 A 
ATOM     12  C   UNL     1     111.228 127.479 139.068  0.00  0.00    +0.000 A 
ENDROOT
BRANCH   7  15
ATOM     13  O   UNL     1     113.221 131.405 141.810  0.00  0.00    +0.000 OA
ATOM     14  O   UNL     1     114.837 131.336 141.485  0.00  0.00    +0.000 OA
ATOM     15  C   UNL     1     113.299 129.690 140.460  0.00  0.00    +0.000 A 
ATOM     16  C   UNL     1     113.004 130.273 140.964  0.00  0.00    +0.000 A 
ATOM     17  C   UNL     1     114.107 129.656 140.297  0.00  0.00    +0.000 A 
ATOM     18  C   UNL     1     113.516 130.822 141.306  0.00  0.00    +0.000 A 
ATOM     19  C   UNL     1     114.620 130.206 140.639  0.00  0.00    +0.000 A 
ATOM     20  C   UNL     1     114.324 130.788 141.143  0.00  0.00    +0.000 A 
ENDBRANCH   7  15
BRANCH   4  21
ATOM     21  O   UNL     1     112.980 129.755 138.843  0.00  0.00    +0.000 OA
BRANCH  21  29
ATOM     22  O   UNL     1     111.794 130.547 138.755  0.00  0.00    +0.000 OA
ATOM     23  O   UNL     1     112.540 131.420 136.562  0.00  0.00    +0.000 OA
ATOM     24  O   UNL     1     113.477 130.337 137.382  0.00  0.00    +0.000 OA
ATOM     25  C   UNL     1     111.574 131.379 137.614  0.00  0.00    +0.000 C 
ATOM     26  C   UNL     1     112.290 131.129 137.293  0.00  0.00    +0.000 C 
ATOM     27  C   UNL     1     111.325 131.088 138.346  0.00  0.00    +0.000 C 
ATOM     28  C   UNL     1     112.759 130.588 137.703  0.00  0.00    +0.000 C 
ATOM     29  C   UNL     1     112.511 130.296 138.433  0.00  0.00    +0.000 C 
ATOM     30  C   UNL     1     110.607 131.338 138.667  0.00  0.00    +0.000 C 
BRANCH  25  31
ATOM     31  O   UNL     1     111.105 131.920 137.205  0.00  0.00    +0.000 OA
BRANCH  31  36
ATOM     32  O   UNL     1     110.445 130.845 136.533  0.00  0.00    +0.000 OA
ATOM     33  O   UNL     1     110.098 132.999 136.465  0.00  0.00    +0.000 OA
ATOM     34  O   UNL     1     108.936 132.462 135.424  0.00  0.00    +0.000 OA
ATOM     35  O   UNL     1     108.780 130.848 135.123  0.00  0.00    +0.000 OA
ATOM     36  C   UNL     1     110.524 131.652 136.685  0.00  0.00    +0.000 C 
ATOM     37  C   UNL     1     110.020 132.191 136.315  0.00  0.00    +0.000 C 
ATOM     38  C   UNL     1     109.439 131.923 135.794  0.00  0.00    +0.000 C 
ATOM     39  C   UNL     1     109.361 131.116 135.643  0.00  0.00    +0.000 C 
ATOM     40  C   UNL     1     109.864 130.578 136.013  0.00  0.00    +0.000 C 
BRANCH  40  42
ATOM     41  O   UNL     1     110.334 129.386 135.379  0.00  0.00    +0.000 OA
ATOM     42  C   UNL     1     109.786 129.770 135.862  0.00  0.00    +0.000 C 
ENDBRANCH  40  42
ENDBRANCH  31  36
ENDBRANCH  25  31
ENDBRANCH  21  29
ENDBRANCH   4  21
BRANCH   5  43
ATOM     43  O   UNL     1     110.670 126.258 140.862  0.00  0.00    +0.000 OA
BRANCH  43  52
ATOM     44  O   UNL     1     109.565 127.052 141.297  0.00  0.00    +0.000 OA
ATOM     45  O   UNL     1     107.486 126.513 141.690  0.00  0.00    +0.000 OA
ATOM     46  O   UNL     1     108.106 125.054 141.234  0.00  0.00    +0.000 OA
ATOM     47  O   UNL     1     109.698 124.926 140.820  0.00  0.00    +0.000 OA
ATOM     48  C   UNL     1     108.769 127.116 141.504  0.00  0.00    +0.000 C 
ATOM     49  C   UNL     1     108.282 126.450 141.483  0.00  0.00    +0.000 C 
ATOM     50  C   UNL     1     108.593 125.720 141.255  0.00  0.00    +0.000 C 
ATOM     51  C   UNL     1     109.389 125.656 141.048  0.00  0.00    +0.000 C 
ATOM     52  C   UNL     1     109.874 126.322 141.069  0.00  0.00    +0.000 C 
BRANCH  48  53
ATOM     53  C   UNL     1     108.459 127.846 141.732  0.00  0.00    +0.000 C 
BRANCH  53  54
ATOM     54  O   UNL     1     108.562 128.507 141.250  0.00  0.00    +0.000 OA
BRANCH  54  60
ATOM     55  O   UNL     1     108.296 129.421 142.315  0.00  0.00    +0.000 OA
ATOM     56  O   UNL     1     108.089 129.647 140.154  0.00  0.00    +0.000 OA
ATOM     57  O   UNL     1     107.587 131.131 140.672  0.00  0.00    +0.000 OA
ATOM     58  O   UNL     1     107.558 131.475 142.285  0.00  0.00    +0.000 OA
ATOM     59  C   UNL     1     108.074 129.819 140.962  0.00  0.00    +0.000 C 
ATOM     60  C   UNL     1     108.311 129.249 141.509  0.00  0.00    +0.000 C 
ATOM     61  C   UNL     1     107.823 130.561 141.220  0.00  0.00    +0.000 C 
ATOM     62  C   UNL     1     107.809 130.733 142.027  0.00  0.00    +0.000 C 
ATOM     63  C   UNL     1     108.045 130.163 142.575  0.00  0.00    +0.000 C 
ATOM     64  C   UNL     1     108.031 130.336 143.381  0.00  0.00    +0.000 C 
ENDBRANCH  54  60
ENDBRANCH  53  54
ENDBRANCH  48  53
ENDBRANCH  43  52
ENDBRANCH   5  43
TORSDOF 11
ENDMDL
MODEL 4
REMARK VINA RESULT:     -11.4      2.083      5.980
REMARK  Name = 74978230
REMARK  11 active torsions:
REMARK  status: ('A' for Active; 'I' for Inactive)
REMARK    1  A    between atoms: O_1  and  C_26
REMARK    2  A    between atoms: O_1  and  C_29
REMARK    3  A    between atoms: O_6  and  C_42
REMARK    4  A    between atoms: O_6  and  C_46
REMARK    5  A    between atoms: O_8  and  C_35
REMARK    6  A    between atoms: O_8  and  C_50
REMARK    7  A    between atoms: O_14  and  C_45
REMARK    8  A    between atoms: O_14  and  C_51
REMARK    9  A    between atoms: C_34  and  C_48
REMARK   10  A    between atoms: C_36  and  C_46
REMARK   11  A    between atoms: C_53  and  C_59
REMARK                            x       y       z     vdW  Elec       q    Type
REMARK                         _______ _______ _______ _____ _____    ______ ____
ROOT
ATOM      1  O   UNL     1     109.598 131.112 139.525  0.00  0.00    +0.000 OA
ATOM      2  O   UNL     1     109.057 128.788 138.868  0.00  0.00    +0.000 OA
ATOM      3  O   UNL     1     108.963 128.388 140.250  0.00  0.00    +0.000 OA
ATOM      4  C   UNL     1     109.370 130.134 138.508  0.00  0.00    +0.000 A 
ATOM      5  C   UNL     1     109.379 130.172 141.540  0.00  0.00    +0.000 A 
ATOM      6  C   UNL     1     109.237 129.562 139.087  0.00  0.00    +0.000 A 
ATOM      7  C   UNL     1     109.551 130.909 138.727  0.00  0.00    +0.000 A 
ATOM      8  C   UNL     1     109.284 129.765 139.886  0.00  0.00    +0.000 A 
ATOM      9  C   UNL     1     109.465 130.540 140.105  0.00  0.00    +0.000 A 
ATOM     10  C   UNL     1     109.517 130.763 140.933  0.00  0.00    +0.000 A 
ATOM     11  C   UNL     1     109.191 129.365 141.313  0.00  0.00    +0.000 A 
ATOM     12  C   UNL     1     109.143 129.160 140.479  0.00  0.00    +0.000 A 
ENDROOT
BRANCH   7  15
ATOM     13  O   UNL     1     111.348 132.608 137.293  0.00  0.00    +0.000 OA
ATOM     14  O   UNL     1     110.085 133.197 136.410  0.00  0.00    +0.000 OA
ATOM     15  C   UNL     1     109.684 131.481 138.148  0.00  0.00    +0.000 A 
ATOM     16  C   UNL     1     110.449 131.759 138.010  0.00  0.00    +0.000 A 
ATOM     17  C   UNL     1     109.053 131.775 137.706  0.00  0.00    +0.000 A 
ATOM     18  C   UNL     1     110.583 132.330 137.431  0.00  0.00    +0.000 A 
ATOM     19  C   UNL     1     109.187 132.348 137.126  0.00  0.00    +0.000 A 
ATOM     20  C   UNL     1     109.952 132.625 136.989  0.00  0.00    +0.000 A 
ENDBRANCH   7  15
BRANCH   4  21
ATOM     21  O   UNL     1     109.323 129.932 137.709  0.00  0.00    +0.000 OA
BRANCH  21  29
ATOM     22  O   UNL     1     110.598 129.289 137.654  0.00  0.00    +0.000 OA
ATOM     23  O   UNL     1     109.718 127.687 135.985  0.00  0.00    +0.000 OA
ATOM     24  O   UNL     1     108.737 128.865 136.597  0.00  0.00    +0.000 OA
ATOM     25  C   UNL     1     110.795 128.167 136.792  0.00  0.00    +0.000 C 
ATOM     26  C   UNL     1     110.012 128.221 136.542  0.00  0.00    +0.000 C 
ATOM     27  C   UNL     1     111.089 128.701 137.349  0.00  0.00    +0.000 C 
ATOM     28  C   UNL     1     109.521 128.810 136.847  0.00  0.00    +0.000 C 
ATOM     29  C   UNL     1     109.814 129.344 137.404  0.00  0.00    +0.000 C 
ATOM     30  C   UNL     1     111.873 128.646 137.600  0.00  0.00    +0.000 C 
BRANCH  25  31
ATOM     31  O   UNL     1     111.286 127.578 136.487  0.00  0.00    +0.000 OA
BRANCH  31  36
ATOM     32  O   UNL     1     110.983 126.689 137.564  0.00  0.00    +0.000 OA
ATOM     33  O   UNL     1     111.767 126.297 135.565  0.00  0.00    +0.000 OA
ATOM     34  O   UNL     1     111.704 124.767 136.181  0.00  0.00    +0.000 OA
ATOM     35  O   UNL     1     111.161 124.519 137.718  0.00  0.00    +0.000 OA
ATOM     36  C   UNL     1     111.255 126.814 136.795  0.00  0.00    +0.000 C 
ATOM     37  C   UNL     1     111.495 126.173 136.334  0.00  0.00    +0.000 C 
ATOM     38  C   UNL     1     111.464 125.408 136.642  0.00  0.00    +0.000 C 
ATOM     39  C   UNL     1     111.192 125.284 137.411  0.00  0.00    +0.000 C 
ATOM     40  C   UNL     1     110.952 125.925 137.871  0.00  0.00    +0.000 C 
BRANCH  40  42
ATOM     41  O   UNL     1     111.170 125.970 139.283  0.00  0.00    +0.000 OA
ATOM     42  C   UNL     1     110.681 125.800 138.641  0.00  0.00    +0.000 C 
ENDBRANCH  40  42
ENDBRANCH  31  36
ENDBRANCH  25  31
ENDBRANCH  21  29
ENDBRANCH   4  21
BRANCH   5  43
ATOM     43  O   UNL     1     109.427 130.377 142.339  0.00  0.00    +0.000 OA
BRANCH  43  52
ATOM     44  O   UNL     1     110.816 130.082 142.494  0.00  0.00    +0.000 OA
ATOM     45  O   UNL     1     111.920 129.254 144.186  0.00  0.00    +0.000 OA
ATOM     46  O   UNL     1     110.388 129.284 144.798  0.00  0.00    +0.000 OA
ATOM     47  O   UNL     1     109.141 129.846 143.875  0.00  0.00    +0.000 OA
ATOM     48  C   UNL     1     111.439 129.801 142.955  0.00  0.00    +0.000 C 
ATOM     49  C   UNL     1     111.297 129.535 143.724  0.00  0.00    +0.000 C 
ATOM     50  C   UNL     1     110.531 129.550 144.029  0.00  0.00    +0.000 C 
ATOM     51  C   UNL     1     109.907 129.831 143.568  0.00  0.00    +0.000 C 
ATOM     52  C   UNL     1     110.050 130.096 142.800  0.00  0.00    +0.000 C 
BRANCH  48  53
ATOM     53  C   UNL     1     112.205 129.785 142.650  0.00  0.00    +0.000 C 
BRANCH  53  54
ATOM     54  O   UNL     1     112.486 130.421 142.206  0.00  0.00    +0.000 OA
BRANCH  54  60
ATOM     55  O   UNL     1     113.330 129.619 141.378  0.00  0.00    +0.000 OA
ATOM     56  O   UNL     1     113.527 131.690 142.038  0.00  0.00    +0.000 OA
ATOM     57  O   UNL     1     114.892 131.521 141.126  0.00  0.00    +0.000 OA
ATOM     58  O   UNL     1     115.216 130.084 140.383  0.00  0.00    +0.000 OA
ATOM     59  C   UNL     1     113.689 130.971 141.666  0.00  0.00    +0.000 C 
ATOM     60  C   UNL     1     113.168 130.336 141.750  0.00  0.00    +0.000 C 
ATOM     61  C   UNL     1     114.371 130.887 141.210  0.00  0.00    +0.000 C 
ATOM     62  C   UNL     1     114.533 130.168 140.838  0.00  0.00    +0.000 C 
ATOM     63  C   UNL     1     114.012 129.534 140.922  0.00  0.00    +0.000 C 
ATOM     64  C   UNL     1     114.174 128.816 140.551  0.00  0.00    +0.000 C 
ENDBRANCH  54  60
ENDBRANCH  53  54
ENDBRANCH  48  53
ENDBRANCH  43  52
ENDBRANCH   5  43
TORSDOF 11
ENDMDL
MODEL 5
REMARK VINA RESULT:     -11.4      1.623      3.680
REMARK  Name = 74978230
REMARK  11 active torsions:
REMARK  status: ('A' for Active; 'I' for Inactive)
REMARK    1  A    between atoms: O_1  and  C_26
REMARK    2  A    between atoms: O_1  and  C_29
REMARK    3  A    between atoms: O_6  and  C_42
REMARK    4  A    between atoms: O_6  and  C_46
REMARK    5  A    between atoms: O_8  and  C_35
REMARK    6  A    between atoms: O_8  and  C_50
REMARK    7  A    between atoms: O_14  and  C_45
REMARK    8  A    between atoms: O_14  and  C_51
REMARK    9  A    between atoms: C_34  and  C_48
REMARK   10  A    between atoms: C_36  and  C_46
REMARK   11  A    between atoms: C_53  and  C_59
REMARK                            x       y       z     vdW  Elec       q    Type
REMARK                         _______ _______ _______ _____ _____    ______ ____
ROOT
ATOM      1  O   UNL     1     110.933 127.179 140.006  0.00  0.00    +0.000 OA
ATOM      2  O   UNL     1     109.098 128.252 138.739  0.00  0.00    +0.000 OA
ATOM      3  O   UNL     1     109.117 127.194 137.759  0.00  0.00    +0.000 OA
ATOM      4  C   UNL     1     109.995 128.246 139.850  0.00  0.00    +0.000 A 
ATOM      5  C   UNL     1     110.702 125.718 138.331  0.00  0.00    +0.000 A 
ATOM      6  C   UNL     1     109.710 127.894 139.161  0.00  0.00    +0.000 A 
ATOM      7  C   UNL     1     110.607 127.888 140.273  0.00  0.00    +0.000 A 
ATOM      8  C   UNL     1     110.036 127.185 138.894  0.00  0.00    +0.000 A 
ATOM      9  C   UNL     1     110.648 126.827 139.317  0.00  0.00    +0.000 A 
ATOM     10  C   UNL     1     110.995 126.089 139.049  0.00  0.00    +0.000 A 
ATOM     11  C   UNL     1     110.065 126.090 137.891  0.00  0.00    +0.000 A 
ATOM     12  C   UNL     1     109.729 126.829 138.174  0.00  0.00    +0.000 A 
ENDROOT
BRANCH   7  15
ATOM     13  O   UNL     1     112.650 129.340 141.648  0.00  0.00    +0.000 OA
ATOM     14  O   UNL     1     111.750 129.295 143.030  0.00  0.00    +0.000 OA
ATOM     15  C   UNL     1     110.893 128.240 140.962  0.00  0.00    +0.000 A 
ATOM     16  C   UNL     1     111.628 128.614 140.961  0.00  0.00    +0.000 A 
ATOM     17  C   UNL     1     110.443 128.218 141.653  0.00  0.00    +0.000 A 
ATOM     18  C   UNL     1     111.915 128.966 141.650  0.00  0.00    +0.000 A 
ATOM     19  C   UNL     1     110.730 128.570 142.343  0.00  0.00    +0.000 A 
ATOM     20  C   UNL     1     111.465 128.943 142.341  0.00  0.00    +0.000 A 
ENDBRANCH   7  15
BRANCH   4  21
ATOM     21  O   UNL     1     109.669 128.955 140.118  0.00  0.00    +0.000 OA
BRANCH  21  29
ATOM     22  O   UNL     1     110.349 129.789 139.177  0.00  0.00    +0.000 OA
ATOM     23  O   UNL     1     108.386 131.295 139.093  0.00  0.00    +0.000 OA
ATOM     24  O   UNL     1     108.362 129.959 140.062  0.00  0.00    +0.000 OA
ATOM     25  C   UNL     1     109.707 130.958 138.665  0.00  0.00    +0.000 C 
ATOM     26  C   UNL     1     109.041 130.793 139.121  0.00  0.00    +0.000 C 
ATOM     27  C   UNL     1     110.362 130.456 138.692  0.00  0.00    +0.000 C 
ATOM     28  C   UNL     1     109.028 130.125 139.605  0.00  0.00    +0.000 C 
ATOM     29  C   UNL     1     109.682 129.623 139.633  0.00  0.00    +0.000 C 
ATOM     30  C   UNL     1     111.029 130.622 138.236  0.00  0.00    +0.000 C 
BRANCH  25  31
ATOM     31  O   UNL     1     109.720 131.626 138.180  0.00  0.00    +0.000 OA
BRANCH  31  36
ATOM     32  O   UNL     1     109.156 130.865 137.109  0.00  0.00    +0.000 OA
ATOM     33  O   UNL     1     109.896 132.918 137.169  0.00  0.00    +0.000 OA
ATOM     34  O   UNL     1     109.420 132.803 135.593  0.00  0.00    +0.000 OA
ATOM     35  O   UNL     1     108.769 131.398 135.029  0.00  0.00    +0.000 OA
ATOM     36  C   UNL     1     109.482 131.569 137.392  0.00  0.00    +0.000 C 
ATOM     37  C   UNL     1     109.570 132.215 136.887  0.00  0.00    +0.000 C 
ATOM     38  C   UNL     1     109.332 132.157 136.099  0.00  0.00    +0.000 C 
ATOM     39  C   UNL     1     109.006 131.454 135.817  0.00  0.00    +0.000 C 
ATOM     40  C   UNL     1     108.919 130.809 136.322  0.00  0.00    +0.000 C 
BRANCH  40  42
ATOM     41  O   UNL     1     107.810 129.913 136.216  0.00  0.00    +0.000 OA
ATOM     42  C   UNL     1     108.593 130.105 136.039  0.00  0.00    +0.000 C 
ENDBRANCH  40  42
ENDBRANCH  31  36
ENDBRANCH  25  31
ENDBRANCH  21  29
ENDBRANCH   4  21
BRANCH   5  43
ATOM     43  O   UNL     1     111.030 125.008 138.067  0.00  0.00    +0.000 OA
BRANCH  43  52
ATOM     44  O   UNL     1     111.966 125.731 137.264  0.00  0.00    +0.000 OA
ATOM     45  O   UNL     1     113.691 125.047 136.115  0.00  0.00    +0.000 OA
ATOM     46  O   UNL     1     113.150 123.620 136.744  0.00  0.00    +0.000 OA
ATOM     47  O   UNL     1     111.819 123.601 137.720  0.00  0.00    +0.000 OA
ATOM     48  C   UNL     1     112.631 125.741 136.777  0.00  0.00    +0.000 C 
ATOM     49  C   UNL     1     113.026 125.037 136.603  0.00  0.00    +0.000 C 
ATOM     50  C   UNL     1     112.755 124.324 136.918  0.00  0.00    +0.000 C 
ATOM     51  C   UNL     1     112.090 124.315 137.405  0.00  0.00    +0.000 C 
ATOM     52  C   UNL     1     111.695 125.018 137.579  0.00  0.00    +0.000 C 
BRANCH  48  53
ATOM     53  C   UNL     1     112.902 126.454 136.462  0.00  0.00    +0.000 C 
BRANCH  53  54
ATOM     54  O   UNL     1     112.380 126.956 136.067  0.00  0.00    +0.000 OA
BRANCH  54  60
ATOM     55  O   UNL     1     113.389 127.966 136.018  0.00  0.00    +0.000 OA
ATOM     56  O   UNL     1     111.332 127.965 135.288  0.00  0.00    +0.000 OA
ATOM     57  O   UNL     1     111.817 129.480 134.850  0.00  0.00    +0.000 OA
ATOM     58  O   UNL     1     113.350 129.986 135.191  0.00  0.00    +0.000 OA
ATOM     59  C   UNL     1     112.099 128.218 135.459  0.00  0.00    +0.000 C 
ATOM     60  C   UNL     1     112.623 127.713 135.848  0.00  0.00    +0.000 C 
ATOM     61  C   UNL     1     112.341 128.975 135.239  0.00  0.00    +0.000 C 
ATOM     62  C   UNL     1     113.108 129.228 135.410  0.00  0.00    +0.000 C 
ATOM     63  C   UNL     1     113.632 128.724 135.799  0.00  0.00    +0.000 C 
ATOM     64  C   UNL     1     114.398 128.977 135.969  0.00  0.00    +0.000 C 
ENDBRANCH  54  60
ENDBRANCH  53  54
ENDBRANCH  48  53
ENDBRANCH  43  52
ENDBRANCH   5  43
TORSDOF 11
ENDMDL
MODEL 6
REMARK VINA RESULT:     -11.3      1.834      5.607
REMARK  Name = 74978230
REMARK  11 active torsions:
REMARK  status: ('A' for Active; 'I' for Inactive)
REMARK    1  A    between atoms: O_1  and  C_26
REMARK    2  A    between atoms: O_1  and  C_29
REMARK    3  A    between atoms: O_6  and  C_42
REMARK    4  A    between atoms: O_6  and  C_46
REMARK    5  A    between atoms: O_8  and  C_35
REMARK    6  A    between atoms: O_8  and  C_50
REMARK    7  A    between atoms: O_14  and  C_45
REMARK    8  A    between atoms: O_14  and  C_51
REMARK    9  A    between atoms: C_34  and  C_48
REMARK   10  A    between atoms: C_36  and  C_46
REMARK   11  A    between atoms: C_53  and  C_59
REMARK                            x       y       z     vdW  Elec       q    Type
REMARK                         _______ _______ _______ _____ _____    ______ ____
ROOT
ATOM      1  O   UNL     1     109.335 126.910 140.220  0.00  0.00    +0.000 OA
ATOM      2  O   UNL     1     111.624 127.104 141.140  0.00  0.00    +0.000 OA
ATOM      3  O   UNL     1     112.165 126.361 140.028  0.00  0.00    +0.000 OA
ATOM      4  C   UNL     1     110.225 127.376 141.236  0.00  0.00    +0.000 A 
ATOM      5  C   UNL     1     110.484 125.805 138.655  0.00  0.00    +0.000 A 
ATOM      6  C   UNL     1     110.861 127.039 140.833  0.00  0.00    +0.000 A 
ATOM      7  C   UNL     1     109.462 127.311 140.930  0.00  0.00    +0.000 A 
ATOM      8  C   UNL     1     110.734 126.638 140.123  0.00  0.00    +0.000 A 
ATOM      9  C   UNL     1     109.971 126.573 139.817  0.00  0.00    +0.000 A 
ATOM     10  C   UNL     1     109.826 126.157 139.079  0.00  0.00    +0.000 A 
ATOM     11  C   UNL     1     111.279 125.872 138.974  0.00  0.00    +0.000 A 
ATOM     12  C   UNL     1     111.405 126.291 139.714  0.00  0.00    +0.000 A 
ENDROOT
BRANCH   7  15
ATOM     13  O   UNL     1     107.469 129.349 141.148  0.00  0.00    +0.000 OA
ATOM     14  O   UNL     1     106.917 128.659 142.541  0.00  0.00    +0.000 OA
ATOM     15  C   UNL     1     108.825 127.648 141.333  0.00  0.00    +0.000 A 
ATOM     16  C   UNL     1     108.465 128.330 141.039  0.00  0.00    +0.000 A 
ATOM     17  C   UNL     1     108.549 127.303 142.029  0.00  0.00    +0.000 A 
ATOM     18  C   UNL     1     107.829 128.667 141.441  0.00  0.00    +0.000 A 
ATOM     19  C   UNL     1     107.912 127.641 142.432  0.00  0.00    +0.000 A 
ATOM     20  C   UNL     1     107.553 128.322 142.138  0.00  0.00    +0.000 A 
ENDBRANCH   7  15
BRANCH   4  21
ATOM     21  O   UNL     1     110.351 127.778 141.946  0.00  0.00    +0.000 OA
BRANCH  21  29
ATOM     22  O   UNL     1     110.837 128.976 141.337  0.00  0.00    +0.000 OA
ATOM     23  O   UNL     1     112.343 129.346 143.266  0.00  0.00    +0.000 OA
ATOM     24  O   UNL     1     111.354 128.024 143.231  0.00  0.00    +0.000 OA
ATOM     25  C   UNL     1     111.833 129.759 141.997  0.00  0.00    +0.000 C 
ATOM     26  C   UNL     1     111.841 129.223 142.623  0.00  0.00    +0.000 C 
ATOM     27  C   UNL     1     111.331 129.636 141.353  0.00  0.00    +0.000 C 
ATOM     28  C   UNL     1     111.347 128.562 142.606  0.00  0.00    +0.000 C 
ATOM     29  C   UNL     1     110.845 128.438 141.963  0.00  0.00    +0.000 C 
ATOM     30  C   UNL     1     111.323 130.173 140.727  0.00  0.00    +0.000 C 
BRANCH  25  31
ATOM     31  O   UNL     1     112.327 130.420 142.014  0.00  0.00    +0.000 OA
BRANCH  31  36
ATOM     32  O   UNL     1     113.307 129.708 141.255  0.00  0.00    +0.000 OA
ATOM     33  O   UNL     1     113.342 131.718 142.106  0.00  0.00    +0.000 OA
ATOM     34  O   UNL     1     114.829 131.655 141.394  0.00  0.00    +0.000 OA
ATOM     35  O   UNL     1     115.301 130.295 140.589  0.00  0.00    +0.000 OA
ATOM     36  C   UNL     1     113.070 130.388 141.658  0.00  0.00    +0.000 C 
ATOM     37  C   UNL     1     113.578 131.037 141.704  0.00  0.00    +0.000 C 
ATOM     38  C   UNL     1     114.321 131.006 141.348  0.00  0.00    +0.000 C 
ATOM     39  C   UNL     1     114.557 130.326 140.945  0.00  0.00    +0.000 C 
ATOM     40  C   UNL     1     114.050 129.678 140.899  0.00  0.00    +0.000 C 
BRANCH  40  42
ATOM     41  O   UNL     1     114.563 128.344 140.918  0.00  0.00    +0.000 OA
ATOM     42  C   UNL     1     114.287 128.997 140.496  0.00  0.00    +0.000 C 
ENDBRANCH  40  42
ENDBRANCH  31  36
ENDBRANCH  25  31
ENDBRANCH  21  29
ENDBRANCH   4  21
BRANCH   5  43
ATOM     43  O   UNL     1     110.354 125.403 137.945  0.00  0.00    +0.000 OA
BRANCH  43  52
ATOM     44  O   UNL     1     110.348 126.545 137.086  0.00  0.00    +0.000 OA
ATOM     45  O   UNL     1     111.154 126.823 135.076  0.00  0.00    +0.000 OA
ATOM     46  O   UNL     1     111.565 125.251 135.361  0.00  0.00    +0.000 OA
ATOM     47  O   UNL     1     111.165 124.541 136.796  0.00  0.00    +0.000 OA
ATOM     48  C   UNL     1     110.548 126.900 136.369  0.00  0.00    +0.000 C 
ATOM     49  C   UNL     1     110.954 126.468 135.793  0.00  0.00    +0.000 C 
ATOM     50  C   UNL     1     111.159 125.682 135.937  0.00  0.00    +0.000 C 
ATOM     51  C   UNL     1     110.959 125.327 136.654  0.00  0.00    +0.000 C 
ATOM     52  C   UNL     1     110.554 125.758 137.228  0.00  0.00    +0.000 C 
BRANCH  48  53
ATOM     53  C   UNL     1     110.343 127.686 136.226  0.00  0.00    +0.000 C 
BRANCH  53  54
ATOM     54  O   UNL     1     109.565 127.936 136.336  0.00  0.00    +0.000 OA
BRANCH  54  60
ATOM     55  O   UNL     1     109.944 129.282 136.629  0.00  0.00    +0.000 OA
ATOM     56  O   UNL     1     108.099 128.468 135.794  0.00  0.00    +0.000 OA
ATOM     57  O   UNL     1     107.747 130.079 135.817  0.00  0.00    +0.000 OA
ATOM     58  O   UNL     1     108.859 131.159 136.382  0.00  0.00    +0.000 OA
ATOM     59  C   UNL     1     108.656 129.008 136.077  0.00  0.00    +0.000 C 
ATOM     60  C   UNL     1     109.389 128.742 136.347  0.00  0.00    +0.000 C 
ATOM     61  C   UNL     1     108.479 129.813 136.088  0.00  0.00    +0.000 C 
ATOM     62  C   UNL     1     109.036 130.354 136.371  0.00  0.00    +0.000 C 
ATOM     63  C   UNL     1     109.768 130.088 136.641  0.00  0.00    +0.000 C 
ATOM     64  C   UNL     1     110.324 130.628 136.923  0.00  0.00    +0.000 C 
ENDBRANCH  54  60
ENDBRANCH  53  54
ENDBRANCH  48  53
ENDBRANCH  43  52
ENDBRANCH   5  43
TORSDOF 11
ENDMDL
MODEL 7
REMARK VINA RESULT:     -11.3      2.053      4.079
REMARK  Name = 74978230
REMARK  11 active torsions:
REMARK  status: ('A' for Active; 'I' for Inactive)
REMARK    1  A    between atoms: O_1  and  C_26
REMARK    2  A    between atoms: O_1  and  C_29
REMARK    3  A    between atoms: O_6  and  C_42
REMARK    4  A    between atoms: O_6  and  C_46
REMARK    5  A    between atoms: O_8  and  C_35
REMARK    6  A    between atoms: O_8  and  C_50
REMARK    7  A    between atoms: O_14  and  C_45
REMARK    8  A    between atoms: O_14  and  C_51
REMARK    9  A    between atoms: C_34  and  C_48
REMARK   10  A    between atoms: C_36  and  C_46
REMARK   11  A    between atoms: C_53  and  C_59
REMARK                            x       y       z     vdW  Elec       q    Type
REMARK                         _______ _______ _______ _____ _____    ______ ____
ROOT
ATOM      1  O   UNL     1     113.438 128.018 139.287  0.00  0.00    +0.000 OA
ATOM      2  O   UNL     1     111.651 127.485 140.915  0.00  0.00    +0.000 OA
ATOM      3  O   UNL     1     111.347 126.257 140.222  0.00  0.00    +0.000 OA
ATOM      4  C   UNL     1     112.684 128.357 140.454  0.00  0.00    +0.000 A 
ATOM      5  C   UNL     1     112.721 126.069 138.463  0.00  0.00    +0.000 A 
ATOM      6  C   UNL     1     112.246 127.662 140.372  0.00  0.00    +0.000 A 
ATOM      7  C   UNL     1     113.280 128.535 139.911  0.00  0.00    +0.000 A 
ATOM      8  C   UNL     1     112.404 127.146 139.748  0.00  0.00    +0.000 A 
ATOM      9  C   UNL     1     113.000 127.324 139.206  0.00  0.00    +0.000 A 
ATOM     10  C   UNL     1     113.173 126.794 138.552  0.00  0.00    +0.000 A 
ATOM     11  C   UNL     1     112.101 125.884 139.027  0.00  0.00    +0.000 A 
ATOM     12  C   UNL     1     111.941 126.426 139.675  0.00  0.00    +0.000 A 
ENDROOT
BRANCH   7  15
ATOM     13  O   UNL     1     113.952 131.159 138.998  0.00  0.00    +0.000 OA
ATOM     14  O   UNL     1     115.032 131.313 140.236  0.00  0.00    +0.000 OA
ATOM     15  C   UNL     1     113.718 129.229 139.992  0.00  0.00    +0.000 A 
ATOM     16  C   UNL     1     113.616 129.846 139.455  0.00  0.00    +0.000 A 
ATOM     17  C   UNL     1     114.258 129.306 140.612  0.00  0.00    +0.000 A 
ATOM     18  C   UNL     1     114.054 130.541 139.535  0.00  0.00    +0.000 A 
ATOM     19  C   UNL     1     114.696 130.001 140.692  0.00  0.00    +0.000 A 
ATOM     20  C   UNL     1     114.594 130.618 140.154  0.00  0.00    +0.000 A 
ENDBRANCH   7  15
BRANCH   4  21
ATOM     21  O   UNL     1     112.527 128.874 141.077  0.00  0.00    +0.000 OA
BRANCH  21  29
ATOM     22  O   UNL     1     111.342 129.381 140.461  0.00  0.00    +0.000 OA
ATOM     23  O   UNL     1     110.449 129.996 142.686  0.00  0.00    +0.000 OA
ATOM     24  O   UNL     1     111.932 129.284 142.560  0.00  0.00    +0.000 OA
ATOM     25  C   UNL     1     110.303 129.943 141.266  0.00  0.00    +0.000 C 
ATOM     26  C   UNL     1     110.746 129.792 141.944  0.00  0.00    +0.000 C 
ATOM     27  C   UNL     1     110.600 129.738 140.524  0.00  0.00    +0.000 C 
ATOM     28  C   UNL     1     111.488 129.435 141.881  0.00  0.00    +0.000 C 
ATOM     29  C   UNL     1     111.786 129.230 141.140  0.00  0.00    +0.000 C 
ATOM     30  C   UNL     1     110.157 129.889 139.845  0.00  0.00    +0.000 C 
BRANCH  25  31
ATOM     31  O   UNL     1     109.562 130.299 141.329  0.00  0.00    +0.000 OA
BRANCH  31  36
ATOM     32  O   UNL     1     108.954 129.021 141.532  0.00  0.00    +0.000 OA
ATOM     33  O   UNL     1     108.067 130.990 141.216  0.00  0.00    +0.000 OA
ATOM     34  O   UNL     1     106.714 130.058 141.363  0.00  0.00    +0.000 OA
ATOM     35  O   UNL     1     106.854 128.436 141.622  0.00  0.00    +0.000 OA
ATOM     36  C   UNL     1     108.885 129.833 141.402  0.00  0.00    +0.000 C 
ATOM     37  C   UNL     1     108.138 130.179 141.346  0.00  0.00    +0.000 C 
ATOM     38  C   UNL     1     107.461 129.713 141.419  0.00  0.00    +0.000 C 
ATOM     39  C   UNL     1     107.531 128.901 141.549  0.00  0.00    +0.000 C 
ATOM     40  C   UNL     1     108.278 128.556 141.605  0.00  0.00    +0.000 C 
BRANCH  40  42
ATOM     41  O   UNL     1     108.591 127.463 142.471  0.00  0.00    +0.000 OA
ATOM     42  C   UNL     1     108.347 127.744 141.734  0.00  0.00    +0.000 C 
ENDBRANCH  40  42
ENDBRANCH  31  36
ENDBRANCH  25  31
ENDBRANCH  21  29
ENDBRANCH   4  21
BRANCH   5  43
ATOM     43  O   UNL     1     112.881 125.554 137.837  0.00  0.00    +0.000 OA
BRANCH  43  52
ATOM     44  O   UNL     1     111.941 126.120 136.921  0.00  0.00    +0.000 OA
ATOM     45  O   UNL     1     110.684 125.181 135.404  0.00  0.00    +0.000 OA
ATOM     46  O   UNL     1     111.464 123.864 136.020  0.00  0.00    +0.000 OA
ATOM     47  O   UNL     1     112.563 124.051 137.237  0.00  0.00    +0.000 OA
ATOM     48  C   UNL     1     111.392 126.026 136.313  0.00  0.00    +0.000 C 
ATOM     49  C   UNL     1     111.233 125.274 136.012  0.00  0.00    +0.000 C 
ATOM     50  C   UNL     1     111.623 124.616 136.320  0.00  0.00    +0.000 C 
ATOM     51  C   UNL     1     112.173 124.710 136.929  0.00  0.00    +0.000 C 
ATOM     52  C   UNL     1     112.331 125.461 137.229  0.00  0.00    +0.000 C 
BRANCH  48  53
ATOM     53  C   UNL     1     111.001 126.684 136.004  0.00  0.00    +0.000 C 
BRANCH  53  54
ATOM     54  O   UNL     1     110.560 127.173 136.501  0.00  0.00    +0.000 OA
BRANCH  54  60
ATOM     55  O   UNL     1     110.551 128.246 135.557  0.00  0.00    +0.000 OA
ATOM     56  O   UNL     1     109.185 127.768 137.192  0.00  0.00    +0.000 OA
ATOM     57  O   UNL     1     108.488 129.139 136.593  0.00  0.00    +0.000 OA
ATOM     58  O   UNL     1     109.166 129.915 135.304  0.00  0.00    +0.000 OA
ATOM     59  C   UNL     1     109.524 128.156 136.547  0.00  0.00    +0.000 C 
ATOM     60  C   UNL     1     110.212 127.859 136.201  0.00  0.00    +0.000 C 
ATOM     61  C   UNL     1     109.176 128.841 136.248  0.00  0.00    +0.000 C 
ATOM     62  C   UNL     1     109.515 129.229 135.603  0.00  0.00    +0.000 C 
ATOM     63  C   UNL     1     110.203 128.932 135.258  0.00  0.00    +0.000 C 
ATOM     64  C   UNL     1     110.541 129.319 134.614  0.00  0.00    +0.000 C 
ENDBRANCH  54  60
ENDBRANCH  53  54
ENDBRANCH  48  53
ENDBRANCH  43  52
ENDBRANCH   5  43
TORSDOF 11
ENDMDL
MODEL 8
REMARK VINA RESULT:     -11.2      1.524      4.394
REMARK  Name = 74978230
REMARK  11 active torsions:
REMARK  status: ('A' for Active; 'I' for Inactive)
REMARK    1  A    between atoms: O_1  and  C_26
REMARK    2  A    between atoms: O_1  and  C_29
REMARK    3  A    between atoms: O_6  and  C_42
REMARK    4  A    between atoms: O_6  and  C_46
REMARK    5  A    between atoms: O_8  and  C_35
REMARK    6  A    between atoms: O_8  and  C_50
REMARK    7  A    between atoms: O_14  and  C_45
REMARK    8  A    between atoms: O_14  and  C_51
REMARK    9  A    between atoms: C_34  and  C_48
REMARK   10  A    between atoms: C_36  and  C_46
REMARK   11  A    between atoms: C_53  and  C_59
REMARK                            x       y       z     vdW  Elec       q    Type
REMARK                         _______ _______ _______ _____ _____    ______ ____
ROOT
ATOM      1  O   UNL     1     113.271 127.902 138.879  0.00  0.00    +0.000 OA
ATOM      2  O   UNL     1     112.635 129.616 137.211  0.00  0.00    +0.000 OA
ATOM      3  O   UNL     1     112.917 130.675 138.148  0.00  0.00    +0.000 OA
ATOM      4  C   UNL     1     112.809 128.245 137.571  0.00  0.00    +0.000 A 
ATOM      5  C   UNL     1     113.612 129.761 140.072  0.00  0.00    +0.000 A 
ATOM      6  C   UNL     1     112.847 129.045 137.767  0.00  0.00    +0.000 A 
ATOM      7  C   UNL     1     113.021 127.673 138.127  0.00  0.00    +0.000 A 
ATOM      8  C   UNL     1     113.097 129.274 138.519  0.00  0.00    +0.000 A 
ATOM      9  C   UNL     1     113.309 128.703 139.075  0.00  0.00    +0.000 A 
ATOM     10  C   UNL     1     113.571 128.929 139.862  0.00  0.00    +0.000 A 
ATOM     11  C   UNL     1     113.391 130.356 139.493  0.00  0.00    +0.000 A 
ATOM     12  C   UNL     1     113.132 130.111 138.711  0.00  0.00    +0.000 A 
ENDROOT
BRANCH   7  15
ATOM     13  O   UNL     1     111.749 125.124 138.363  0.00  0.00    +0.000 OA
ATOM     14  O   UNL     1     112.870 124.471 137.343  0.00  0.00    +0.000 OA
ATOM     15  C   UNL     1     112.984 126.873 137.931  0.00  0.00    +0.000 A 
ATOM     16  C   UNL     1     112.386 126.399 138.245  0.00  0.00    +0.000 A 
ATOM     17  C   UNL     1     113.544 126.546 137.421  0.00  0.00    +0.000 A 
ATOM     18  C   UNL     1     112.347 125.598 138.049  0.00  0.00    +0.000 A 
ATOM     19  C   UNL     1     113.506 125.745 137.225  0.00  0.00    +0.000 A 
ATOM     20  C   UNL     1     112.908 125.272 137.539  0.00  0.00    +0.000 A 
ENDBRANCH   7  15
BRANCH   4  21
ATOM     21  O   UNL     1     112.559 128.015 136.819  0.00  0.00    +0.000 OA
BRANCH  21  29
ATOM     22  O   UNL     1     111.171 128.215 137.092  0.00  0.00    +0.000 OA
ATOM     23  O   UNL     1     110.786 128.786 134.714  0.00  0.00    +0.000 OA
ATOM     24  O   UNL     1     112.302 128.395 135.235  0.00  0.00    +0.000 OA
ATOM     25  C   UNL     1     110.284 128.600 136.040  0.00  0.00    +0.000 C 
ATOM     26  C   UNL     1     110.914 128.596 135.507  0.00  0.00    +0.000 C 
ATOM     27  C   UNL     1     110.412 128.410 136.833  0.00  0.00    +0.000 C 
ATOM     28  C   UNL     1     111.672 128.400 135.767  0.00  0.00    +0.000 C 
ATOM     29  C   UNL     1     111.801 128.210 136.559  0.00  0.00    +0.000 C 
ATOM     30  C   UNL     1     109.783 128.415 137.365  0.00  0.00    +0.000 C 
BRANCH  25  31
ATOM     31  O   UNL     1     109.526 128.796 135.780  0.00  0.00    +0.000 OA
BRANCH  31  36
ATOM     32  O   UNL     1     109.797 130.192 135.924  0.00  0.00    +0.000 OA
ATOM     33  O   UNL     1     107.908 129.115 135.730  0.00  0.00    +0.000 OA
ATOM     34  O   UNL     1     107.370 130.671 135.849  0.00  0.00    +0.000 OA
ATOM     35  O   UNL     1     108.449 131.906 136.018  0.00  0.00    +0.000 OA
ATOM     36  C   UNL     1     109.257 129.573 135.840  0.00  0.00    +0.000 C 
ATOM     37  C   UNL     1     108.448 129.733 135.815  0.00  0.00    +0.000 C 
ATOM     38  C   UNL     1     108.179 130.511 135.874  0.00  0.00    +0.000 C 
ATOM     39  C   UNL     1     108.719 131.129 135.958  0.00  0.00    +0.000 C 
ATOM     40  C   UNL     1     109.527 130.968 135.983  0.00  0.00    +0.000 C 
BRANCH  40  42
ATOM     41  O   UNL     1     110.344 131.793 136.817  0.00  0.00    +0.000 OA
ATOM     42  C   UNL     1     110.067 131.587 136.067  0.00  0.00    +0.000 C 
ENDBRANCH  40  42
ENDBRANCH  31  36
ENDBRANCH  25  31
ENDBRANCH  21  29
ENDBRANCH   4  21
BRANCH   5  43
ATOM     43  O   UNL     1     113.863 129.987 140.825  0.00  0.00    +0.000 OA
BRANCH  43  52
ATOM     44  O   UNL     1     112.573 129.983 141.439  0.00  0.00    +0.000 OA
ATOM     45  O   UNL     1     111.709 131.293 142.957  0.00  0.00    +0.000 OA
ATOM     46  O   UNL     1     113.212 131.953 142.795  0.00  0.00    +0.000 OA
ATOM     47  O   UNL     1     114.289 131.301 141.728  0.00  0.00    +0.000 OA
ATOM     48  C   UNL     1     112.034 130.309 141.972  0.00  0.00    +0.000 C 
ATOM     49  C   UNL     1     112.247 130.966 142.424  0.00  0.00    +0.000 C 
ATOM     50  C   UNL     1     112.999 131.296 142.342  0.00  0.00    +0.000 C 
ATOM     51  C   UNL     1     113.538 130.970 141.809  0.00  0.00    +0.000 C 
ATOM     52  C   UNL     1     113.324 130.314 141.358  0.00  0.00    +0.000 C 
BRANCH  48  53
ATOM     53  C   UNL     1     111.283 129.979 142.054  0.00  0.00    +0.000 C 
BRANCH  53  54
ATOM     54  O   UNL     1     111.159 129.183 141.877  0.00  0.00    +0.000 OA
BRANCH  54  60
ATOM     55  O   UNL     1     109.866 129.387 141.303  0.00  0.00    +0.000 OA
ATOM     56  O   UNL     1     110.699 127.681 142.381  0.00  0.00    +0.000 OA
ATOM     57  O   UNL     1     109.176 127.134 142.060  0.00  0.00    +0.000 OA
ATOM     58  O   UNL     1     108.113 128.089 141.235  0.00  0.00    +0.000 OA
ATOM     59  C   UNL     1     110.167 128.159 141.968  0.00  0.00    +0.000 C 
ATOM     60  C   UNL     1     110.397 128.910 141.716  0.00  0.00    +0.000 C 
ATOM     61  C   UNL     1     109.406 127.885 141.808  0.00  0.00    +0.000 C 
ATOM     62  C   UNL     1     108.874 128.363 141.395  0.00  0.00    +0.000 C 
ATOM     63  C   UNL     1     109.104 129.114 141.143  0.00  0.00    +0.000 C 
ATOM     64  C   UNL     1     108.573 129.591 140.730  0.00  0.00    +0.000 C 
ENDBRANCH  54  60
ENDBRANCH  53  54
ENDBRANCH  48  53
ENDBRANCH  43  52
ENDBRANCH   5  43
TORSDOF 11
ENDMDL
MODEL 9
REMARK VINA RESULT:     -11.2      1.825      5.225
REMARK  Name = 74978230
REMARK  11 active torsions:
REMARK  status: ('A' for Active; 'I' for Inactive)
REMARK    1  A    between atoms: O_1  and  C_26
REMARK    2  A    between atoms: O_1  and  C_29
REMARK    3  A    between atoms: O_6  and  C_42
REMARK    4  A    between atoms: O_6  and  C_46
REMARK    5  A    between atoms: O_8  and  C_35
REMARK    6  A    between atoms: O_8  and  C_50
REMARK    7  A    between atoms: O_14  and  C_45
REMARK    8  A    between atoms: O_14  and  C_51
REMARK    9  A    between atoms: C_34  and  C_48
REMARK   10  A    between atoms: C_36  and  C_46
REMARK   11  A    between atoms: C_53  and  C_59
REMARK                            x       y       z     vdW  Elec       q    Type
REMARK                         _______ _______ _______ _____ _____    ______ ____
ROOT
ATOM      1  O   UNL     1     111.647 130.138 139.408  0.00  0.00    +0.000 OA
ATOM      2  O   UNL     1     111.406 128.747 137.376  0.00  0.00    +0.000 OA
ATOM      3  O   UNL     1     109.968 128.849 137.441  0.00  0.00    +0.000 OA
ATOM      4  C   UNL     1     112.237 129.383 138.347  0.00  0.00    +0.000 A 
ATOM      5  C   UNL     1     109.421 130.096 139.220  0.00  0.00    +0.000 A 
ATOM      6  C   UNL     1     111.486 129.210 138.053  0.00  0.00    +0.000 A 
ATOM      7  C   UNL     1     112.317 129.847 139.025  0.00  0.00    +0.000 A 
ATOM      8  C   UNL     1     110.815 129.501 138.436  0.00  0.00    +0.000 A 
ATOM      9  C   UNL     1     110.896 129.965 139.114  0.00  0.00    +0.000 A 
ATOM     10  C   UNL     1     110.206 130.273 139.522  0.00  0.00    +0.000 A 
ATOM     11  C   UNL     1     109.337 129.613 138.515  0.00  0.00    +0.000 A 
ATOM     12  C   UNL     1     110.039 129.313 138.119  0.00  0.00    +0.000 A 
ENDROOT
BRANCH   7  15
ATOM     13  O   UNL     1     114.330 129.508 141.027  0.00  0.00    +0.000 OA
ATOM     14  O   UNL     1     115.321 130.539 140.203  0.00  0.00    +0.000 OA
ATOM     15  C   UNL     1     113.068 130.020 139.319  0.00  0.00    +0.000 A 
ATOM     16  C   UNL     1     113.324 129.678 140.025  0.00  0.00    +0.000 A 
ATOM     17  C   UNL     1     113.564 130.536 138.908  0.00  0.00    +0.000 A 
ATOM     18  C   UNL     1     114.075 129.850 140.321  0.00  0.00    +0.000 A 
ATOM     19  C   UNL     1     114.316 130.708 139.203  0.00  0.00    +0.000 A 
ATOM     20  C   UNL     1     114.570 130.366 139.909  0.00  0.00    +0.000 A 
ENDBRANCH   7  15
BRANCH   4  21
ATOM     21  O   UNL     1     112.908 129.093 137.964  0.00  0.00    +0.000 OA
BRANCH  21  29
ATOM     22  O   UNL     1     112.789 127.777 138.510  0.00  0.00    +0.000 OA
ATOM     23  O   UNL     1     113.844 126.840 136.475  0.00  0.00    +0.000 OA
ATOM     24  O   UNL     1     113.610 128.469 136.609  0.00  0.00    +0.000 OA
ATOM     25  C   UNL     1     113.257 126.651 137.765  0.00  0.00    +0.000 C 
ATOM     26  C   UNL     1     113.492 127.152 137.154  0.00  0.00    +0.000 C 
ATOM     27  C   UNL     1     112.906 126.963 138.443  0.00  0.00    +0.000 C 
ATOM     28  C   UNL     1     113.376 127.966 137.220  0.00  0.00    +0.000 C 
ATOM     29  C   UNL     1     113.024 128.279 137.898  0.00  0.00    +0.000 C 
ATOM     30  C   UNL     1     112.671 126.462 139.055  0.00  0.00    +0.000 C 
BRANCH  25  31
ATOM     31  O   UNL     1     113.374 125.837 137.698  0.00  0.00    +0.000 OA
BRANCH  31  36
ATOM     32  O   UNL     1     112.107 125.691 137.050  0.00  0.00    +0.000 OA
ATOM     33  O   UNL     1     113.763 124.288 137.284  0.00  0.00    +0.000 OA
ATOM     34  O   UNL     1     112.693 123.369 136.429  0.00  0.00    +0.000 OA
ATOM     35  O   UNL     1     111.233 123.997 135.989  0.00  0.00    +0.000 OA
ATOM     36  C   UNL     1     112.838 125.377 137.271  0.00  0.00    +0.000 C 
ATOM     37  C   UNL     1     113.033 124.603 137.064  0.00  0.00    +0.000 C 
ATOM     38  C   UNL     1     112.498 124.143 136.636  0.00  0.00    +0.000 C 
ATOM     39  C   UNL     1     111.768 124.458 136.416  0.00  0.00    +0.000 C 
ATOM     40  C   UNL     1     111.573 125.231 136.624  0.00  0.00    +0.000 C 
BRANCH  40  42
ATOM     41  O   UNL     1     110.256 125.661 136.971  0.00  0.00    +0.000 OA
ATOM     42  C   UNL     1     110.843 125.545 136.403  0.00  0.00    +0.000 C 
ENDBRANCH  40  42
ENDBRANCH  31  36
ENDBRANCH  25  31
ENDBRANCH  21  29
ENDBRANCH   4  21
BRANCH   5  43
ATOM     43  O   UNL     1     108.752 130.388 139.605  0.00  0.00    +0.000 OA
BRANCH  43  52
ATOM     44  O   UNL     1     108.466 129.290 140.474  0.00  0.00    +0.000 OA
ATOM     45  O   UNL     1     107.935 129.244 142.591  0.00  0.00    +0.000 OA
ATOM     46  O   UNL     1     108.099 130.867 142.346  0.00  0.00    +0.000 OA
ATOM     47  O   UNL     1     108.507 131.439 140.853  0.00  0.00    +0.000 OA
ATOM     48  C   UNL     1     108.262 129.004 141.220  0.00  0.00    +0.000 C 
ATOM     49  C   UNL     1     108.140 129.530 141.845  0.00  0.00    +0.000 C 
ATOM     50  C   UNL     1     108.222 130.341 141.722  0.00  0.00    +0.000 C 
ATOM     51  C   UNL     1     108.426 130.627 140.975  0.00  0.00    +0.000 C 
ATOM     52  C   UNL     1     108.548 130.102 140.352  0.00  0.00    +0.000 C 
BRANCH  48  53
ATOM     53  C   UNL     1     108.180 128.192 141.343  0.00  0.00    +0.000 C 
BRANCH  53  54
ATOM     54  O   UNL     1     108.611 127.659 140.883  0.00  0.00    +0.000 OA
BRANCH  54  60
ATOM     55  O   UNL     1     107.706 126.567 141.059  0.00  0.00    +0.000 OA
ATOM     56  O   UNL     1     109.876 126.602 140.823  0.00  0.00    +0.000 OA
ATOM     57  O   UNL     1     109.604 124.981 140.968  0.00  0.00    +0.000 OA
ATOM     58  O   UNL     1     108.067 124.417 141.173  0.00  0.00    +0.000 OA
ATOM     59  C   UNL     1     109.107 126.320 140.926  0.00  0.00    +0.000 C 
ATOM     60  C   UNL     1     108.474 126.849 140.956  0.00  0.00    +0.000 C 
ATOM     61  C   UNL     1     108.972 125.510 140.998  0.00  0.00    +0.000 C 
ATOM     62  C   UNL     1     108.202 125.228 141.101  0.00  0.00    +0.000 C 
ATOM     63  C   UNL     1     107.570 125.756 141.131  0.00  0.00    +0.000 C 
ATOM     64  C   UNL     1     106.802 125.474 141.234  0.00  0.00    +0.000 C 
ENDBRANCH  54  60
ENDBRANCH  53  54
ENDBRANCH  48  53
ENDBRANCH  43  52
ENDBRANCH   5  43
TORSDOF 11
ENDMDL
MODEL 10
REMARK VINA RESULT:     -11.1      1.413      3.370
REMARK  Name = 74978230
REMARK  11 active torsions:
REMARK  status: ('A' for Active; 'I' for Inactive)
REMARK    1  A    between atoms: O_1  and  C_26
REMARK    2  A    between atoms: O_1  and  C_29
REMARK    3  A    between atoms: O_6  and  C_42
REMARK    4  A    between atoms: O_6  and  C_46
REMARK    5  A    between atoms: O_8  and  C_35
REMARK    6  A    between atoms: O_8  and  C_50
REMARK    7  A    between atoms: O_14  and  C_45
REMARK    8  A    between atoms: O_14  and  C_51
REMARK    9  A    between atoms: C_34  and  C_48
REMARK   10  A    between atoms: C_36  and  C_46
REMARK   11  A    between atoms: C_53  and  C_59
REMARK                            x       y       z     vdW  Elec       q    Type
REMARK                         _______ _______ _______ _____ _____    ______ ____
ROOT
ATOM      1  O   UNL     1     113.034 129.085 138.250  0.00  0.00    +0.000 OA
ATOM      2  O   UNL     1     111.357 130.860 138.649  0.00  0.00    +0.000 OA
ATOM      3  O   UNL     1     110.815 130.136 139.772  0.00  0.00    +0.000 OA
ATOM      4  C   UNL     1     112.454 130.341 137.896  0.00  0.00    +0.000 A 
ATOM      5  C   UNL     1     111.969 128.233 140.020  0.00  0.00    +0.000 A 
ATOM      6  C   UNL     1     111.915 130.268 138.516  0.00  0.00    +0.000 A 
ATOM      7  C   UNL     1     113.013 129.750 137.763  0.00  0.00    +0.000 A 
ATOM      8  C   UNL     1     111.936 129.603 139.004  0.00  0.00    +0.000 A 
ATOM      9  C   UNL     1     112.495 129.011 138.871  0.00  0.00    +0.000 A 
ATOM     10  C   UNL     1     112.527 128.314 139.372  0.00  0.00    +0.000 A 
ATOM     11  C   UNL     1     111.387 128.848 140.159  0.00  0.00    +0.000 A 
ATOM     12  C   UNL     1     111.370 129.539 139.647  0.00  0.00    +0.000 A 
ENDROOT
BRANCH   7  15
ATOM     13  O   UNL     1     114.099 128.783 135.301  0.00  0.00    +0.000 OA
ATOM     14  O   UNL     1     115.166 130.041 135.279  0.00  0.00    +0.000 OA
ATOM     15  C   UNL     1     113.552 129.823 137.142  0.00  0.00    +0.000 A 
ATOM     16  C   UNL     1     113.556 129.267 136.532  0.00  0.00    +0.000 A 
ATOM     17  C   UNL     1     114.085 130.452 137.131  0.00  0.00    +0.000 A 
ATOM     18  C   UNL     1     114.094 129.339 135.911  0.00  0.00    +0.000 A 
ATOM     19  C   UNL     1     114.624 130.524 136.509  0.00  0.00    +0.000 A 
ATOM     20  C   UNL     1     114.628 129.968 135.900  0.00  0.00    +0.000 A 
ENDBRANCH   7  15
BRANCH   4  21
ATOM     21  O   UNL     1     112.434 131.007 137.407  0.00  0.00    +0.000 OA
BRANCH  21  29
ATOM     22  O   UNL     1     111.341 130.537 136.615  0.00  0.00    +0.000 OA
ATOM     23  O   UNL     1     110.608 132.872 136.244  0.00  0.00    +0.000 OA
ATOM     24  O   UNL     1     111.945 132.562 137.160  0.00  0.00    +0.000 OA
ATOM     25  C   UNL     1     110.428 131.471 136.034  0.00  0.00    +0.000 C 
ATOM     26  C   UNL     1     110.852 132.094 136.368  0.00  0.00    +0.000 C 
ATOM     27  C   UNL     1     110.672 130.692 136.157  0.00  0.00    +0.000 C 
ATOM     28  C   UNL     1     111.520 131.939 136.826  0.00  0.00    +0.000 C 
ATOM     29  C   UNL     1     111.765 131.161 136.949  0.00  0.00    +0.000 C 
ATOM     30  C   UNL     1     110.248 130.068 135.822  0.00  0.00    +0.000 C 
BRANCH  25  31
ATOM     31  O   UNL     1     109.759 131.625 135.576  0.00  0.00    +0.000 OA
BRANCH  31  36
ATOM     32  O   UNL     1     108.960 131.814 136.746  0.00  0.00    +0.000 OA
ATOM     33  O   UNL     1     108.391 131.470 134.667  0.00  0.00    +0.000 OA
ATOM     34  O   UNL     1     106.908 131.582 135.383  0.00  0.00    +0.000 OA
ATOM     35  O   UNL     1     106.794 131.848 137.006  0.00  0.00    +0.000 OA
ATOM     36  C   UNL     1     109.018 131.681 135.933  0.00  0.00    +0.000 C 
ATOM     37  C   UNL     1     108.334 131.604 135.479  0.00  0.00    +0.000 C 
ATOM     38  C   UNL     1     107.593 131.659 135.837  0.00  0.00    +0.000 C 
ATOM     39  C   UNL     1     107.536 131.793 136.649  0.00  0.00    +0.000 C 
ATOM     40  C   UNL     1     108.220 131.870 137.103  0.00  0.00    +0.000 C 
BRANCH  40  42
ATOM     41  O   UNL     1     108.408 131.422 138.446  0.00  0.00    +0.000 OA
ATOM     42  C   UNL     1     108.162 132.003 137.915  0.00  0.00    +0.000 C 
ENDBRANCH  40  42
ENDBRANCH  31  36
ENDBRANCH  25  31
ENDBRANCH  21  29
ENDBRANCH   4  21
BRANCH   5  43
ATOM     43  O   UNL     1     111.992 127.566 140.507  0.00  0.00    +0.000 OA
BRANCH  43  52
ATOM     44  O   UNL     1     111.227 126.686 139.681  0.00  0.00    +0.000 OA
ATOM     45  O   UNL     1     109.698 125.214 140.195  0.00  0.00    +0.000 OA
ATOM     46  O   UNL     1     110.081 125.800 141.689  0.00  0.00    +0.000 OA
ATOM     47  O   UNL     1     111.228 126.976 141.845  0.00  0.00    +0.000 OA
ATOM     48  C   UNL     1     110.654 126.098 139.603  0.00  0.00    +0.000 C 
ATOM     49  C   UNL     1     110.271 125.802 140.273  0.00  0.00    +0.000 C 
ATOM     50  C   UNL     1     110.463 126.095 141.019  0.00  0.00    +0.000 C 
ATOM     51  C   UNL     1     111.037 126.683 141.097  0.00  0.00    +0.000 C 
ATOM     52  C   UNL     1     111.418 126.978 140.429  0.00  0.00    +0.000 C 
BRANCH  48  53
ATOM     53  C   UNL     1     110.462 125.805 138.856  0.00  0.00    +0.000 C 
BRANCH  53  54
ATOM     54  O   UNL     1     111.050 125.483 138.375  0.00  0.00    +0.000 OA
BRANCH  54  60
ATOM     55  O   UNL     1     110.463 125.979 137.170  0.00  0.00    +0.000 OA
ATOM     56  O   UNL     1     111.739 124.246 137.530  0.00  0.00    +0.000 OA
ATOM     57  O   UNL     1     111.497 124.122 135.902  0.00  0.00    +0.000 OA
ATOM     58  O   UNL     1     110.565 125.237 135.120  0.00  0.00    +0.000 OA
ATOM     59  C   UNL     1     111.273 124.803 137.138  0.00  0.00    +0.000 C 
ATOM     60  C   UNL     1     110.928 125.422 137.561  0.00  0.00    +0.000 C 
ATOM     61  C   UNL     1     111.152 124.741 136.325  0.00  0.00    +0.000 C 
ATOM     62  C   UNL     1     110.686 125.299 135.934  0.00  0.00    +0.000 C 
ATOM     63  C   UNL     1     110.341 125.918 136.356  0.00  0.00    +0.000 C 
ATOM     64  C   UNL     1     109.875 126.475 135.965  0.00  0.00    +0.000 C 
ENDBRANCH  54  60
ENDBRANCH  53  54
ENDBRANCH  48  53
ENDBRANCH  43  52
ENDBRANCH   5  43
TORSDOF 11
ENDMDL
