MODEL 1
REMARK VINA RESULT:     -11.3      0.000      0.000
REMARK  Name = 44259177
REMARK  9 active torsions:
REMARK  status: ('A' for Active; 'I' for Inactive)
REMARK    1  A    between atoms: O_2  and  C_28
REMARK    2  A    between atoms: O_2  and  C_32
REMARK    3  A    between atoms: O_5  and  C_30
REMARK    4  A    between atoms: O_5  and  C_40
REMARK    5  A    between atoms: O_12  and  C_38
REMARK    6  A    between atoms: O_12  and  C_45
REMARK    7  A    between atoms: C_23  and  C_32
REMARK    8  A    between atoms: C_39  and  C_43
REMARK    9  A    between atoms: C_41  and  C_50
REMARK                            x       y       z     vdW  Elec       q    Type
REMARK                         _______ _______ _______ _____ _____    ______ ____
ROOT
ATOM      1  O   UNL     1     113.377 126.250 138.798  0.00  0.00    +0.000 OA
ATOM      2  O   UNL     1     110.969 125.889 138.356  0.00  0.00    +0.000 OA
ATOM      3  O   UNL     1     110.618 126.491 139.620  0.00  0.00    +0.000 OA
ATOM      4  C   UNL     1     112.334 125.770 137.949  0.00  0.00    +0.000 A 
ATOM      5  C   UNL     1     113.137 125.890 138.096  0.00  0.00    +0.000 A 
ATOM      6  C   UNL     1     111.772 126.009 138.503  0.00  0.00    +0.000 A 
ATOM      7  C   UNL     1     112.013 126.369 139.206  0.00  0.00    +0.000 A 
ATOM      8  C   UNL     1     112.500 127.115 140.662  0.00  0.00    +0.000 A 
ATOM      9  C   UNL     1     112.816 126.490 139.353  0.00  0.00    +0.000 A 
ATOM     10  C   UNL     1     113.080 126.863 140.080  0.00  0.00    +0.000 A 
ATOM     11  C   UNL     1     111.419 126.615 139.775  0.00  0.00    +0.000 A 
ATOM     12  C   UNL     1     111.664 126.990 140.509  0.00  0.00    +0.000 A 
ENDROOT
BRANCH   5  15
ATOM     13  O   UNL     1     114.960 126.522 135.989  0.00  0.00    +0.000 OA
ATOM     14  O   UNL     1     115.383 124.931 135.877  0.00  0.00    +0.000 OA
ATOM     15  C   UNL     1     113.698 125.650 137.542  0.00  0.00    +0.000 A 
ATOM     16  C   UNL     1     114.048 126.206 137.043  0.00  0.00    +0.000 A 
ATOM     17  C   UNL     1     113.909 124.855 137.486  0.00  0.00    +0.000 A 
ATOM     18  C   UNL     1     114.610 125.967 136.488  0.00  0.00    +0.000 A 
ATOM     19  C   UNL     1     114.470 124.615 136.931  0.00  0.00    +0.000 A 
ATOM     20  C   UNL     1     114.821 125.171 136.432  0.00  0.00    +0.000 A 
ENDBRANCH   5  15
BRANCH   4  21
ATOM     21  O   UNL     1     112.092 125.410 137.247  0.00  0.00    +0.000 OA
BRANCH  21  30
ATOM     22  O   UNL     1     111.590 126.635 136.712  0.00  0.00    +0.000 OA
ATOM     23  O   UNL     1     110.087 127.014 135.174  0.00  0.00    +0.000 OA
ATOM     24  O   UNL     1     110.090 125.364 135.209  0.00  0.00    +0.000 OA
ATOM     25  O   UNL     1     111.092 124.562 136.245  0.00  0.00    +0.000 OA
ATOM     26  C   UNL     1     111.089 127.036 136.193  0.00  0.00    +0.000 C 
ATOM     27  C   UNL     1     110.589 126.613 135.692  0.00  0.00    +0.000 C 
ATOM     28  C   UNL     1     110.590 125.787 135.710  0.00  0.00    +0.000 C 
ATOM     29  C   UNL     1     111.091 125.386 136.228  0.00  0.00    +0.000 C 
ATOM     30  C   UNL     1     111.591 125.811 136.729  0.00  0.00    +0.000 C 
BRANCH  26  31
ATOM     31  C   UNL     1     111.087 127.861 136.175  0.00  0.00    +0.000 C 
BRANCH  31  32
ATOM     32  O   UNL     1     111.796 128.273 136.088  0.00  0.00    +0.000 OA
BRANCH  32  38
ATOM     33  O   UNL     1     111.196 129.438 136.659  0.00  0.00    +0.000 OA
ATOM     34  O   UNL     1     113.147 129.148 135.723  0.00  0.00    +0.000 OA
ATOM     35  O   UNL     1     113.222 130.750 136.111  0.00  0.00    +0.000 OA
ATOM     36  O   UNL     1     111.947 131.477 136.864  0.00  0.00    +0.000 OA
ATOM     37  C   UNL     1     112.508 129.512 136.100  0.00  0.00    +0.000 C 
ATOM     38  C   UNL     1     111.833 129.074 136.282  0.00  0.00    +0.000 C 
ATOM     39  C   UNL     1     112.547 130.313 136.293  0.00  0.00    +0.000 C 
ATOM     40  C   UNL     1     111.908 130.676 136.671  0.00  0.00    +0.000 C 
ATOM     41  C   UNL     1     111.233 130.239 136.853  0.00  0.00    +0.000 C 
ATOM     42  C   UNL     1     110.596 130.602 137.230  0.00  0.00    +0.000 C 
ENDBRANCH  32  38
ENDBRANCH  31  32
ENDBRANCH  26  31
ENDBRANCH  21  30
ENDBRANCH   4  21
BRANCH   8  43
ATOM     43  O   UNL     1     112.744 127.475 141.364  0.00  0.00    +0.000 OA
BRANCH  43  51
ATOM     44  O   UNL     1     113.147 128.755 140.873  0.00  0.00    +0.000 OA
ATOM     45  O   UNL     1     111.929 129.850 142.730  0.00  0.00    +0.000 OA
ATOM     46  O   UNL     1     111.932 128.205 142.602  0.00  0.00    +0.000 OA
ATOM     47  O   UNL     1     112.738 130.765 141.620  0.00  0.00    +0.000 OA
ATOM     48  C   UNL     1     112.335 129.485 142.111  0.00  0.00    +0.000 C 
ATOM     49  C   UNL     1     112.336 128.662 142.047  0.00  0.00    +0.000 C 
ATOM     50  C   UNL     1     112.739 129.942 141.556  0.00  0.00    +0.000 C 
ATOM     51  C   UNL     1     112.742 128.297 141.428  0.00  0.00    +0.000 C 
ATOM     52  C   UNL     1     113.145 129.577 140.937  0.00  0.00    +0.000 C 
BRANCH  52  55
ATOM     53  O   UNL     1     113.134 130.412 139.778  0.00  0.00    +0.000 OA
ATOM     54  O   UNL     1     114.369 130.115 140.432  0.00  0.00    +0.000 OA
ATOM     55  C   UNL     1     113.549 130.035 140.383  0.00  0.00    +0.000 C 
ENDBRANCH  52  55
ENDBRANCH  43  51
ENDBRANCH   8  43
TORSDOF 9
ENDMDL
MODEL 2
REMARK VINA RESULT:     -11.1      1.626      3.002
REMARK  Name = 44259177
REMARK  9 active torsions:
REMARK  status: ('A' for Active; 'I' for Inactive)
REMARK    1  A    between atoms: O_2  and  C_28
REMARK    2  A    between atoms: O_2  and  C_32
REMARK    3  A    between atoms: O_5  and  C_30
REMARK    4  A    between atoms: O_5  and  C_40
REMARK    5  A    between atoms: O_12  and  C_38
REMARK    6  A    between atoms: O_12  and  C_45
REMARK    7  A    between atoms: C_23  and  C_32
REMARK    8  A    between atoms: C_39  and  C_43
REMARK    9  A    between atoms: C_41  and  C_50
REMARK                            x       y       z     vdW  Elec       q    Type
REMARK                         _______ _______ _______ _____ _____    ______ ____
ROOT
ATOM      1  O   UNL     1     112.011 126.061 138.850  0.00  0.00    +0.000 OA
ATOM      2  O   UNL     1     113.517 127.947 138.302  0.00  0.00    +0.000 OA
ATOM      3  O   UNL     1     113.312 128.526 139.608  0.00  0.00    +0.000 OA
ATOM      4  C   UNL     1     112.873 126.728 137.927  0.00  0.00    +0.000 A 
ATOM      5  C   UNL     1     112.372 126.099 138.109  0.00  0.00    +0.000 A 
ATOM      6  C   UNL     1     113.015 127.319 138.485  0.00  0.00    +0.000 A 
ATOM      7  C   UNL     1     112.654 127.280 139.226  0.00  0.00    +0.000 A 
ATOM      8  C   UNL     1     111.914 127.212 140.763  0.00  0.00    +0.000 A 
ATOM      9  C   UNL     1     112.152 126.651 139.409  0.00  0.00    +0.000 A 
ATOM     10  C   UNL     1     111.771 126.600 140.177  0.00  0.00    +0.000 A 
ATOM     11  C   UNL     1     112.809 127.901 139.799  0.00  0.00    +0.000 A 
ATOM     12  C   UNL     1     112.436 127.867 140.573  0.00  0.00    +0.000 A 
ENDROOT
BRANCH   5  15
ATOM     13  O   UNL     1     110.673 124.904 136.146  0.00  0.00    +0.000 OA
ATOM     14  O   UNL     1     111.807 123.737 135.874  0.00  0.00    +0.000 OA
ATOM     15  C   UNL     1     112.231 125.509 137.551  0.00  0.00    +0.000 A 
ATOM     16  C   UNL     1     111.523 125.502 137.128  0.00  0.00    +0.000 A 
ATOM     17  C   UNL     1     112.798 124.925 137.415  0.00  0.00    +0.000 A 
ATOM     18  C   UNL     1     111.381 124.911 136.569  0.00  0.00    +0.000 A 
ATOM     19  C   UNL     1     112.657 124.335 136.857  0.00  0.00    +0.000 A 
ATOM     20  C   UNL     1     111.949 124.328 136.434  0.00  0.00    +0.000 A 
ENDBRANCH   5  15
BRANCH   4  21
ATOM     21  O   UNL     1     113.234 126.767 137.186  0.00  0.00    +0.000 OA
BRANCH  21  30
ATOM     22  O   UNL     1     112.412 127.836 136.716  0.00  0.00    +0.000 OA
ATOM     23  O   UNL     1     112.822 129.433 135.285  0.00  0.00    +0.000 OA
ATOM     24  O   UNL     1     114.261 128.626 135.274  0.00  0.00    +0.000 OA
ATOM     25  O   UNL     1     114.468 127.293 136.225  0.00  0.00    +0.000 OA
ATOM     26  C   UNL     1     112.309 128.502 136.241  0.00  0.00    +0.000 C 
ATOM     27  C   UNL     1     112.925 128.766 135.760  0.00  0.00    +0.000 C 
ATOM     28  C   UNL     1     113.645 128.362 135.755  0.00  0.00    +0.000 C 
ATOM     29  C   UNL     1     113.748 127.696 136.230  0.00  0.00    +0.000 C 
ATOM     30  C   UNL     1     113.131 127.433 136.711  0.00  0.00    +0.000 C 
BRANCH  26  31
ATOM     31  C   UNL     1     111.589 128.906 136.246  0.00  0.00    +0.000 C 
BRANCH  31  32
ATOM     32  O   UNL     1     110.882 128.491 136.156  0.00  0.00    +0.000 OA
BRANCH  32  38
ATOM     33  O   UNL     1     110.125 129.576 136.696  0.00  0.00    +0.000 OA
ATOM     34  O   UNL     1     109.511 127.870 135.479  0.00  0.00    +0.000 OA
ATOM     35  O   UNL     1     108.069 128.645 135.680  0.00  0.00    +0.000 OA
ATOM     36  O   UNL     1     107.996 130.040 136.558  0.00  0.00    +0.000 OA
ATOM     37  C   UNL     1     109.476 128.568 135.919  0.00  0.00    +0.000 C 
ATOM     38  C   UNL     1     110.161 128.879 136.257  0.00  0.00    +0.000 C 
ATOM     39  C   UNL     1     108.754 128.955 136.018  0.00  0.00    +0.000 C 
ATOM     40  C   UNL     1     108.718 129.654 136.458  0.00  0.00    +0.000 C 
ATOM     41  C   UNL     1     109.403 129.964 136.796  0.00  0.00    +0.000 C 
ATOM     42  C   UNL     1     109.367 130.661 137.235  0.00  0.00    +0.000 C 
ENDBRANCH  32  38
ENDBRANCH  31  32
ENDBRANCH  26  31
ENDBRANCH  21  30
ENDBRANCH   4  21
BRANCH   8  43
ATOM     43  O   UNL     1     111.552 127.171 141.503  0.00  0.00    +0.000 OA
BRANCH  43  51
ATOM     44  O   UNL     1     110.261 127.639 141.108  0.00  0.00    +0.000 OA
ATOM     45  O   UNL     1     110.079 128.919 143.219  0.00  0.00    +0.000 OA
ATOM     46  O   UNL     1     111.431 128.025 142.911  0.00  0.00    +0.000 OA
ATOM     47  O   UNL     1     108.849 128.961 142.120  0.00  0.00    +0.000 OA
ATOM     48  C   UNL     1     110.140 128.493 142.515  0.00  0.00    +0.000 C 
ATOM     49  C   UNL     1     110.816 128.045 142.361  0.00  0.00    +0.000 C 
ATOM     50  C   UNL     1     109.525 128.513 141.966  0.00  0.00    +0.000 C 
ATOM     51  C   UNL     1     110.876 127.618 141.657  0.00  0.00    +0.000 C 
ATOM     52  C   UNL     1     109.585 128.086 141.263  0.00  0.00    +0.000 C 
BRANCH  52  55
ATOM     53  O   UNL     1     108.947 128.701 140.142  0.00  0.00    +0.000 OA
ATOM     54  O   UNL     1     108.377 127.533 140.735  0.00  0.00    +0.000 OA
ATOM     55  C   UNL     1     108.970 128.107 140.713  0.00  0.00    +0.000 C 
ENDBRANCH  52  55
ENDBRANCH  43  51
ENDBRANCH   8  43
TORSDOF 9
ENDMDL
MODEL 3
REMARK VINA RESULT:     -11.1      1.848      5.698
REMARK  Name = 44259177
REMARK  9 active torsions:
REMARK  status: ('A' for Active; 'I' for Inactive)
REMARK    1  A    between atoms: O_2  and  C_28
REMARK    2  A    between atoms: O_2  and  C_32
REMARK    3  A    between atoms: O_5  and  C_30
REMARK    4  A    between atoms: O_5  and  C_40
REMARK    5  A    between atoms: O_12  and  C_38
REMARK    6  A    between atoms: O_12  and  C_45
REMARK    7  A    between atoms: C_23  and  C_32
REMARK    8  A    between atoms: C_39  and  C_43
REMARK    9  A    between atoms: C_41  and  C_50
REMARK                            x       y       z     vdW  Elec       q    Type
REMARK                         _______ _______ _______ _____ _____    ______ ____
ROOT
ATOM      1  O   UNL     1     112.886 128.533 138.111  0.00  0.00    +0.000 OA
ATOM      2  O   UNL     1     113.896 128.495 140.370  0.00  0.00    +0.000 OA
ATOM      3  O   UNL     1     113.474 127.129 140.567  0.00  0.00    +0.000 OA
ATOM      4  C   UNL     1     113.606 129.190 139.156  0.00  0.00    +0.000 A 
ATOM      5  C   UNL     1     113.269 129.203 138.403  0.00  0.00    +0.000 A 
ATOM      6  C   UNL     1     113.560 128.508 139.617  0.00  0.00    +0.000 A 
ATOM      7  C   UNL     1     113.176 127.837 139.325  0.00  0.00    +0.000 A 
ATOM      8  C   UNL     1     112.387 126.445 138.732  0.00  0.00    +0.000 A 
ATOM      9  C   UNL     1     112.840 127.850 138.572  0.00  0.00    +0.000 A 
ATOM     10  C   UNL     1     112.438 127.159 138.256  0.00  0.00    +0.000 A 
ATOM     11  C   UNL     1     113.135 127.133 139.815  0.00  0.00    +0.000 A 
ATOM     12  C   UNL     1     112.737 126.431 139.516  0.00  0.00    +0.000 A 
ENDROOT
BRANCH   5  15
ATOM     13  O   UNL     1     112.024 131.510 137.265  0.00  0.00    +0.000 OA
ATOM     14  O   UNL     1     113.454 131.934 136.559  0.00  0.00    +0.000 OA
ATOM     15  C   UNL     1     113.315 129.885 137.942  0.00  0.00    +0.000 A 
ATOM     16  C   UNL     1     112.647 130.356 137.834  0.00  0.00    +0.000 A 
ATOM     17  C   UNL     1     114.030 130.097 137.589  0.00  0.00    +0.000 A 
ATOM     18  C   UNL     1     112.693 131.039 137.373  0.00  0.00    +0.000 A 
ATOM     19  C   UNL     1     114.077 130.779 137.129  0.00  0.00    +0.000 A 
ATOM     20  C   UNL     1     113.408 131.250 137.021  0.00  0.00    +0.000 A 
ENDBRANCH   5  15
BRANCH   4  21
ATOM     21  O   UNL     1     113.989 129.859 139.449  0.00  0.00    +0.000 OA
BRANCH  21  30
ATOM     22  O   UNL     1     112.915 130.199 140.327  0.00  0.00    +0.000 OA
ATOM     23  O   UNL     1     112.900 131.314 142.203  0.00  0.00    +0.000 OA
ATOM     24  O   UNL     1     114.505 131.362 141.824  0.00  0.00    +0.000 OA
ATOM     25  O   UNL     1     115.050 130.634 140.447  0.00  0.00    +0.000 OA
ATOM     26  C   UNL     1     112.642 130.563 141.015  0.00  0.00    +0.000 C 
ATOM     27  C   UNL     1     113.172 130.950 141.515  0.00  0.00    +0.000 C 
ATOM     28  C   UNL     1     113.976 130.974 141.325  0.00  0.00    +0.000 C 
ATOM     29  C   UNL     1     114.248 130.610 140.636  0.00  0.00    +0.000 C 
ATOM     30  C   UNL     1     113.717 130.223 140.137  0.00  0.00    +0.000 C 
BRANCH  26  31
ATOM     31  C   UNL     1     111.840 130.539 141.205  0.00  0.00    +0.000 C 
BRANCH  31  32
ATOM     32  O   UNL     1     111.289 130.910 140.716  0.00  0.00    +0.000 OA
BRANCH  32  38
ATOM     33  O   UNL     1     110.417 129.778 140.751  0.00  0.00    +0.000 OA
ATOM     34  O   UNL     1     110.024 131.871 140.271  0.00  0.00    +0.000 OA
ATOM     35  O   UNL     1     108.519 131.221 140.083  0.00  0.00    +0.000 OA
ATOM     36  O   UNL     1     108.279 129.608 140.340  0.00  0.00    +0.000 OA
ATOM     37  C   UNL     1     109.904 131.065 140.400  0.00  0.00    +0.000 C 
ATOM     38  C   UNL     1     110.537 130.584 140.623  0.00  0.00    +0.000 C 
ATOM     39  C   UNL     1     109.152 130.740 140.306  0.00  0.00    +0.000 C 
ATOM     40  C   UNL     1     109.032 129.933 140.434  0.00  0.00    +0.000 C 
ATOM     41  C   UNL     1     109.664 129.452 140.657  0.00  0.00    +0.000 C 
ATOM     42  C   UNL     1     109.544 128.647 140.785  0.00  0.00    +0.000 C 
ENDBRANCH  32  38
ENDBRANCH  31  32
ENDBRANCH  26  31
ENDBRANCH  21  30
ENDBRANCH   4  21
BRANCH   8  43
ATOM     43  O   UNL     1     112.003 125.776 138.437  0.00  0.00    +0.000 OA
BRANCH  43  51
ATOM     44  O   UNL     1     113.184 125.296 137.791  0.00  0.00    +0.000 OA
ATOM     45  O   UNL     1     111.789 124.002 136.207  0.00  0.00    +0.000 OA
ATOM     46  O   UNL     1     111.073 124.914 137.381  0.00  0.00    +0.000 OA
ATOM     47  O   UNL     1     113.434 123.952 136.089  0.00  0.00    +0.000 OA
ATOM     48  C   UNL     1     112.254 124.433 136.735  0.00  0.00    +0.000 C 
ATOM     49  C   UNL     1     111.896 124.889 137.322  0.00  0.00    +0.000 C 
ATOM     50  C   UNL     1     113.076 124.408 136.676  0.00  0.00    +0.000 C 
ATOM     51  C   UNL     1     112.361 125.320 137.850  0.00  0.00    +0.000 C 
ATOM     52  C   UNL     1     113.541 124.840 137.204  0.00  0.00    +0.000 C 
BRANCH  52  55
ATOM     53  O   UNL     1     114.794 124.284 137.607  0.00  0.00    +0.000 OA
ATOM     54  O   UNL     1     114.756 125.322 136.625  0.00  0.00    +0.000 OA
ATOM     55  C   UNL     1     114.363 124.815 137.145  0.00  0.00    +0.000 C 
ENDBRANCH  52  55
ENDBRANCH  43  51
ENDBRANCH   8  43
TORSDOF 9
ENDMDL
MODEL 4
REMARK VINA RESULT:     -11.1      1.337      4.793
REMARK  Name = 44259177
REMARK  9 active torsions:
REMARK  status: ('A' for Active; 'I' for Inactive)
REMARK    1  A    between atoms: O_2  and  C_28
REMARK    2  A    between atoms: O_2  and  C_32
REMARK    3  A    between atoms: O_5  and  C_30
REMARK    4  A    between atoms: O_5  and  C_40
REMARK    5  A    between atoms: O_12  and  C_38
REMARK    6  A    between atoms: O_12  and  C_45
REMARK    7  A    between atoms: C_23  and  C_32
REMARK    8  A    between atoms: C_39  and  C_43
REMARK    9  A    between atoms: C_41  and  C_50
REMARK                            x       y       z     vdW  Elec       q    Type
REMARK                         _______ _______ _______ _____ _____    ______ ____
ROOT
ATOM      1  O   UNL     1     111.849 130.519 138.847  0.00  0.00    +0.000 OA
ATOM      2  O   UNL     1     114.247 130.537 138.235  0.00  0.00    +0.000 OA
ATOM      3  O   UNL     1     114.612 130.035 139.538  0.00  0.00    +0.000 OA
ATOM      4  C   UNL     1     112.880 130.777 137.893  0.00  0.00    +0.000 A 
ATOM      5  C   UNL     1     112.081 130.771 138.097  0.00  0.00    +0.000 A 
ATOM      6  C   UNL     1     113.448 130.531 138.439  0.00  0.00    +0.000 A 
ATOM      7  C   UNL     1     113.215 130.280 139.190  0.00  0.00    +0.000 A 
ATOM      8  C   UNL     1     112.746 129.757 140.746  0.00  0.00    +0.000 A 
ATOM      9  C   UNL     1     112.415 130.274 139.394  0.00  0.00    +0.000 A 
ATOM     10  C   UNL     1     112.160 130.014 140.172  0.00  0.00    +0.000 A 
ATOM     11  C   UNL     1     113.814 130.026 139.750  0.00  0.00    +0.000 A 
ATOM     12  C   UNL     1     113.579 129.763 140.534  0.00  0.00    +0.000 A 
ENDROOT
BRANCH   5  15
ATOM     13  O   UNL     1     110.000 130.147 136.240  0.00  0.00    +0.000 OA
ATOM     14  O   UNL     1     109.814 131.753 135.909  0.00  0.00    +0.000 OA
ATOM     15  C   UNL     1     111.515 131.016 137.550  0.00  0.00    +0.000 A 
ATOM     16  C   UNL     1     111.041 130.459 137.169  0.00  0.00    +0.000 A 
ATOM     17  C   UNL     1     111.421 131.819 137.384  0.00  0.00    +0.000 A 
ATOM     18  C   UNL     1     110.474 130.704 136.621  0.00  0.00    +0.000 A 
ATOM     19  C   UNL     1     110.855 132.065 136.837  0.00  0.00    +0.000 A 
ATOM     20  C   UNL     1     110.381 131.507 136.456  0.00  0.00    +0.000 A 
ENDBRANCH   5  15
BRANCH   4  21
ATOM     21  O   UNL     1     113.114 131.028 137.143  0.00  0.00    +0.000 OA
BRANCH  21  30
ATOM     22  O   UNL     1     113.424 129.712 136.683  0.00  0.00    +0.000 OA
ATOM     23  O   UNL     1     114.864 129.018 135.197  0.00  0.00    +0.000 OA
ATOM     24  O   UNL     1     115.120 130.648 135.143  0.00  0.00    +0.000 OA
ATOM     25  O   UNL     1     114.244 131.652 136.116  0.00  0.00    +0.000 OA
ATOM     26  C   UNL     1     113.861 129.209 136.197  0.00  0.00    +0.000 C 
ATOM     27  C   UNL     1     114.427 129.521 135.683  0.00  0.00    +0.000 C 
ATOM     28  C   UNL     1     114.554 130.336 135.656  0.00  0.00    +0.000 C 
ATOM     29  C   UNL     1     114.117 130.838 136.143  0.00  0.00    +0.000 C 
ATOM     30  C   UNL     1     113.551 130.526 136.656  0.00  0.00    +0.000 C 
BRANCH  26  31
ATOM     31  C   UNL     1     113.734 128.395 136.223  0.00  0.00    +0.000 C 
BRANCH  31  32
ATOM     32  O   UNL     1     112.966 128.098 136.267  0.00  0.00    +0.000 OA
BRANCH  32  38
ATOM     33  O   UNL     1     113.383 126.879 136.885  0.00  0.00    +0.000 OA
ATOM     34  O   UNL     1     111.632 127.335 135.665  0.00  0.00    +0.000 OA
ATOM     35  O   UNL     1     111.383 125.735 135.981  0.00  0.00    +0.000 OA
ATOM     36  O   UNL     1     112.467 124.897 136.900  0.00  0.00    +0.000 OA
ATOM     37  C   UNL     1     112.175 126.916 136.125  0.00  0.00    +0.000 C 
ATOM     38  C   UNL     1     112.842 127.297 136.426  0.00  0.00    +0.000 C 
ATOM     39  C   UNL     1     112.050 126.116 136.282  0.00  0.00    +0.000 C 
ATOM     40  C   UNL     1     112.593 125.697 136.742  0.00  0.00    +0.000 C 
ATOM     41  C   UNL     1     113.259 126.078 137.044  0.00  0.00    +0.000 C 
ATOM     42  C   UNL     1     113.801 125.660 137.503  0.00  0.00    +0.000 C 
ENDBRANCH  32  38
ENDBRANCH  31  32
ENDBRANCH  26  31
ENDBRANCH  21  30
ENDBRANCH   4  21
BRANCH   8  43
ATOM     43  O   UNL     1     112.511 129.506 141.496  0.00  0.00    +0.000 OA
BRANCH  43  51
ATOM     44  O   UNL     1     112.277 128.146 141.123  0.00  0.00    +0.000 OA
ATOM     45  O   UNL     1     110.420 128.019 142.755  0.00  0.00    +0.000 OA
ATOM     46  O   UNL     1     111.273 129.421 142.584  0.00  0.00    +0.000 OA
ATOM     47  O   UNL     1     110.805 126.702 141.838  0.00  0.00    +0.000 OA
ATOM     48  C   UNL     1     111.039 128.062 142.211  0.00  0.00    +0.000 C 
ATOM     49  C   UNL     1     111.465 128.763 142.126  0.00  0.00    +0.000 C 
ATOM     50  C   UNL     1     111.231 127.403 141.753  0.00  0.00    +0.000 C 
ATOM     51  C   UNL     1     112.084 128.805 141.581  0.00  0.00    +0.000 C 
ATOM     52  C   UNL     1     111.850 127.446 141.209  0.00  0.00    +0.000 C 
BRANCH  52  55
ATOM     53  O   UNL     1     111.612 126.620 140.067  0.00  0.00    +0.000 OA
ATOM     54  O   UNL     1     112.666 126.295 140.976  0.00  0.00    +0.000 OA
ATOM     55  C   UNL     1     112.043 126.788 140.751  0.00  0.00    +0.000 C 
ENDBRANCH  52  55
ENDBRANCH  43  51
ENDBRANCH   8  43
TORSDOF 9
ENDMDL
MODEL 5
REMARK VINA RESULT:     -11.0      1.392      4.625
REMARK  Name = 44259177
REMARK  9 active torsions:
REMARK  status: ('A' for Active; 'I' for Inactive)
REMARK    1  A    between atoms: O_2  and  C_28
REMARK    2  A    between atoms: O_2  and  C_32
REMARK    3  A    between atoms: O_5  and  C_30
REMARK    4  A    between atoms: O_5  and  C_40
REMARK    5  A    between atoms: O_12  and  C_38
REMARK    6  A    between atoms: O_12  and  C_45
REMARK    7  A    between atoms: C_23  and  C_32
REMARK    8  A    between atoms: C_39  and  C_43
REMARK    9  A    between atoms: C_41  and  C_50
REMARK                            x       y       z     vdW  Elec       q    Type
REMARK                         _______ _______ _______ _____ _____    ______ ____
ROOT
ATOM      1  O   UNL     1     111.309 128.726 136.267  0.00  0.00    +0.000 OA
ATOM      2  O   UNL     1     113.713 128.340 136.713  0.00  0.00    +0.000 OA
ATOM      3  O   UNL     1     113.881 129.707 137.146  0.00  0.00    +0.000 OA
ATOM      4  C   UNL     1     112.441 127.855 136.279  0.00  0.00    +0.000 A 
ATOM      5  C   UNL     1     111.640 127.984 136.130  0.00  0.00    +0.000 A 
ATOM      6  C   UNL     1     112.912 128.469 136.564  0.00  0.00    +0.000 A 
ATOM      7  C   UNL     1     112.580 129.213 136.702  0.00  0.00    +0.000 A 
ATOM      8  C   UNL     1     111.908 130.755 136.989  0.00  0.00    +0.000 A 
ATOM      9  C   UNL     1     111.779 129.341 136.553  0.00  0.00    +0.000 A 
ATOM     10  C   UNL     1     111.423 130.111 136.691  0.00  0.00    +0.000 A 
ATOM     11  C   UNL     1     113.081 129.844 136.999  0.00  0.00    +0.000 A 
ATOM     12  C   UNL     1     112.742 130.621 137.144  0.00  0.00    +0.000 A 
ENDROOT
BRANCH   5  15
ATOM     13  O   UNL     1     109.656 125.974 136.571  0.00  0.00    +0.000 OA
ATOM     14  O   UNL     1     109.758 125.525 134.987  0.00  0.00    +0.000 OA
ATOM     15  C   UNL     1     111.170 127.370 135.844  0.00  0.00    +0.000 A 
ATOM     16  C   UNL     1     110.648 126.979 136.351  0.00  0.00    +0.000 A 
ATOM     17  C   UNL     1     111.220 127.145 135.052  0.00  0.00    +0.000 A 
ATOM     18  C   UNL     1     110.177 126.364 136.065  0.00  0.00    +0.000 A 
ATOM     19  C   UNL     1     110.750 126.531 134.766  0.00  0.00    +0.000 A 
ATOM     20  C   UNL     1     110.229 126.140 135.273  0.00  0.00    +0.000 A 
ENDBRANCH   5  15
BRANCH   4  21
ATOM     21  O   UNL     1     112.772 127.112 136.142  0.00  0.00    +0.000 OA
BRANCH  21  30
ATOM     22  O   UNL     1     112.885 126.800 137.531  0.00  0.00    +0.000 OA
ATOM     23  O   UNL     1     114.277 125.497 138.594  0.00  0.00    +0.000 OA
ATOM     24  O   UNL     1     114.803 125.314 137.041  0.00  0.00    +0.000 OA
ATOM     25  O   UNL     1     114.050 126.121 135.815  0.00  0.00    +0.000 OA
ATOM     26  C   UNL     1     113.262 126.396 138.144  0.00  0.00    +0.000 C 
ATOM     27  C   UNL     1     113.901 125.900 137.981  0.00  0.00    +0.000 C 
ATOM     28  C   UNL     1     114.164 125.809 137.204  0.00  0.00    +0.000 C 
ATOM     29  C   UNL     1     113.787 126.213 136.591  0.00  0.00    +0.000 C 
ATOM     30  C   UNL     1     113.148 126.708 136.755  0.00  0.00    +0.000 C 
BRANCH  26  31
ATOM     31  C   UNL     1     112.999 126.487 138.921  0.00  0.00    +0.000 C 
BRANCH  31  32
ATOM     32  O   UNL     1     112.199 126.396 139.100  0.00  0.00    +0.000 OA
BRANCH  32  38
ATOM     33  O   UNL     1     112.329 127.160 140.300  0.00  0.00    +0.000 OA
ATOM     34  O   UNL     1     110.809 125.722 139.679  0.00  0.00    +0.000 OA
ATOM     35  O   UNL     1     110.244 126.149 141.169  0.00  0.00    +0.000 OA
ATOM     36  O   UNL     1     111.068 127.250 142.080  0.00  0.00    +0.000 OA
ATOM     37  C   UNL     1     111.222 126.273 140.135  0.00  0.00    +0.000 C 
ATOM     38  C   UNL     1     111.917 126.610 139.845  0.00  0.00    +0.000 C 
ATOM     39  C   UNL     1     110.939 126.486 140.879  0.00  0.00    +0.000 C 
ATOM     40  C   UNL     1     111.351 127.037 141.335  0.00  0.00    +0.000 C 
ATOM     41  C   UNL     1     112.046 127.375 141.045  0.00  0.00    +0.000 C 
ATOM     42  C   UNL     1     112.458 127.925 141.501  0.00  0.00    +0.000 C 
ENDBRANCH  32  38
ENDBRANCH  31  32
ENDBRANCH  26  31
ENDBRANCH  21  30
ENDBRANCH   4  21
BRANCH   8  43
ATOM     43  O   UNL     1     111.575 131.497 137.126  0.00  0.00    +0.000 OA
BRANCH  43  51
ATOM     44  O   UNL     1     111.169 131.202 138.464  0.00  0.00    +0.000 OA
ATOM     45  O   UNL     1     109.244 132.738 138.219  0.00  0.00    +0.000 OA
ATOM     46  O   UNL     1     110.291 132.522 136.962  0.00  0.00    +0.000 OA
ATOM     47  O   UNL     1     109.480 131.930 139.638  0.00  0.00    +0.000 OA
ATOM     48  C   UNL     1     109.886 132.226 138.300  0.00  0.00    +0.000 C 
ATOM     49  C   UNL     1     110.409 132.118 137.672  0.00  0.00    +0.000 C 
ATOM     50  C   UNL     1     110.004 131.822 139.010  0.00  0.00    +0.000 C 
ATOM     51  C   UNL     1     111.051 131.605 137.754  0.00  0.00    +0.000 C 
ATOM     52  C   UNL     1     110.646 131.310 139.091  0.00  0.00    +0.000 C 
BRANCH  52  55
ATOM     53  O   UNL     1     110.354 130.206 139.950  0.00  0.00    +0.000 OA
ATOM     54  O   UNL     1     111.292 131.203 140.362  0.00  0.00    +0.000 OA
ATOM     55  C   UNL     1     110.764 130.907 139.801  0.00  0.00    +0.000 C 
ENDBRANCH  52  55
ENDBRANCH  43  51
ENDBRANCH   8  43
TORSDOF 9
ENDMDL
MODEL 6
REMARK VINA RESULT:     -10.9      1.553      4.433
REMARK  Name = 44259177
REMARK  9 active torsions:
REMARK  status: ('A' for Active; 'I' for Inactive)
REMARK    1  A    between atoms: O_2  and  C_28
REMARK    2  A    between atoms: O_2  and  C_32
REMARK    3  A    between atoms: O_5  and  C_30
REMARK    4  A    between atoms: O_5  and  C_40
REMARK    5  A    between atoms: O_12  and  C_38
REMARK    6  A    between atoms: O_12  and  C_45
REMARK    7  A    between atoms: C_23  and  C_32
REMARK    8  A    between atoms: C_39  and  C_43
REMARK    9  A    between atoms: C_41  and  C_50
REMARK                            x       y       z     vdW  Elec       q    Type
REMARK                         _______ _______ _______ _____ _____    ______ ____
ROOT
ATOM      1  O   UNL     1     111.311 129.219 139.351  0.00  0.00    +0.000 OA
ATOM      2  O   UNL     1     113.460 130.002 138.406  0.00  0.00    +0.000 OA
ATOM      3  O   UNL     1     114.112 129.843 139.683  0.00  0.00    +0.000 OA
ATOM      4  C   UNL     1     112.074 129.694 138.241  0.00  0.00    +0.000 A 
ATOM      5  C   UNL     1     111.358 129.433 138.556  0.00  0.00    +0.000 A 
ATOM      6  C   UNL     1     112.744 129.741 138.721  0.00  0.00    +0.000 A 
ATOM      7  C   UNL     1     112.696 129.527 139.517  0.00  0.00    +0.000 A 
ATOM      8  C   UNL     1     112.611 129.088 141.164  0.00  0.00    +0.000 A 
ATOM      9  C   UNL     1     111.979 129.266 139.832  0.00  0.00    +0.000 A 
ATOM     10  C   UNL     1     111.917 129.041 140.658  0.00  0.00    +0.000 A 
ATOM     11  C   UNL     1     113.400 129.581 140.007  0.00  0.00    +0.000 A 
ATOM     12  C   UNL     1     113.357 129.359 140.836  0.00  0.00    +0.000 A 
ENDROOT
BRANCH   5  15
ATOM     13  O   UNL     1     109.411 127.864 137.171  0.00  0.00    +0.000 OA
ATOM     14  O   UNL     1     108.682 129.244 136.634  0.00  0.00    +0.000 OA
ATOM     15  C   UNL     1     110.689 129.386 138.076  0.00  0.00    +0.000 A 
ATOM     16  C   UNL     1     110.385 128.649 137.864  0.00  0.00    +0.000 A 
ATOM     17  C   UNL     1     110.325 130.075 137.807  0.00  0.00    +0.000 A 
ATOM     18  C   UNL     1     109.715 128.601 137.383  0.00  0.00    +0.000 A 
ATOM     19  C   UNL     1     109.656 130.028 137.326  0.00  0.00    +0.000 A 
ATOM     20  C   UNL     1     109.352 129.291 137.115  0.00  0.00    +0.000 A 
ENDBRANCH   5  15
BRANCH   4  21
ATOM     21  O   UNL     1     112.122 129.907 137.446  0.00  0.00    +0.000 OA
BRANCH  21  30
ATOM     22  O   UNL     1     112.811 128.732 137.019  0.00  0.00    +0.000 OA
ATOM     23  O   UNL     1     114.324 128.443 135.471  0.00  0.00    +0.000 OA
ATOM     24  O   UNL     1     114.046 130.064 135.338  0.00  0.00    +0.000 OA
ATOM     25  O   UNL     1     112.945 130.796 136.325  0.00  0.00    +0.000 OA
ATOM     26  C   UNL     1     113.362 128.365 136.525  0.00  0.00    +0.000 C 
ATOM     27  C   UNL     1     113.774 128.809 135.965  0.00  0.00    +0.000 C 
ATOM     28  C   UNL     1     113.634 129.620 135.898  0.00  0.00    +0.000 C 
ATOM     29  C   UNL     1     113.084 129.987 136.392  0.00  0.00    +0.000 C 
ATOM     30  C   UNL     1     112.673 129.541 136.952  0.00  0.00    +0.000 C 
BRANCH  26  31
ATOM     31  C   UNL     1     113.501 127.555 136.591  0.00  0.00    +0.000 C 
BRANCH  31  32
ATOM     32  O   UNL     1     112.871 127.024 136.563  0.00  0.00    +0.000 OA
BRANCH  32  38
ATOM     33  O   UNL     1     113.706 125.957 137.016  0.00  0.00    +0.000 OA
ATOM     34  O   UNL     1     111.744 125.928 136.060  0.00  0.00    +0.000 OA
ATOM     35  O   UNL     1     112.016 124.313 136.262  0.00  0.00    +0.000 OA
ATOM     36  O   UNL     1     113.415 123.794 136.966  0.00  0.00    +0.000 OA
ATOM     37  C   UNL     1     112.444 125.669 136.413  0.00  0.00    +0.000 C 
ATOM     38  C   UNL     1     113.007 126.216 136.664  0.00  0.00    +0.000 C 
ATOM     39  C   UNL     1     112.579 124.861 136.513  0.00  0.00    +0.000 C 
ATOM     40  C   UNL     1     113.279 124.602 136.866  0.00  0.00    +0.000 C 
ATOM     41  C   UNL     1     113.843 125.149 137.117  0.00  0.00    +0.000 C 
ATOM     42  C   UNL     1     114.541 124.890 137.469  0.00  0.00    +0.000 C 
ENDBRANCH  32  38
ENDBRANCH  31  32
ENDBRANCH  26  31
ENDBRANCH  21  30
ENDBRANCH   4  21
BRANCH   8  43
ATOM     43  O   UNL     1     112.560 128.873 141.959  0.00  0.00    +0.000 OA
BRANCH  43  51
ATOM     44  O   UNL     1     112.286 130.190 142.442  0.00  0.00    +0.000 OA
ATOM     45  O   UNL     1     110.863 129.238 144.230  0.00  0.00    +0.000 OA
ATOM     46  O   UNL     1     111.612 128.238 143.151  0.00  0.00    +0.000 OA
ATOM     47  O   UNL     1     111.064 130.872 144.116  0.00  0.00    +0.000 OA
ATOM     48  C   UNL     1     111.338 129.555 143.634  0.00  0.00    +0.000 C 
ATOM     49  C   UNL     1     111.712 129.055 143.094  0.00  0.00    +0.000 C 
ATOM     50  C   UNL     1     111.438 130.372 143.577  0.00  0.00    +0.000 C 
ATOM     51  C   UNL     1     112.186 129.373 142.499  0.00  0.00    +0.000 C 
ATOM     52  C   UNL     1     111.912 130.689 142.981  0.00  0.00    +0.000 C 
BRANCH  52  55
ATOM     53  O   UNL     1     111.467 131.961 142.505  0.00  0.00    +0.000 OA
ATOM     54  O   UNL     1     112.658 131.870 143.288  0.00  0.00    +0.000 OA
ATOM     55  C   UNL     1     112.012 131.506 142.925  0.00  0.00    +0.000 C 
ENDBRANCH  52  55
ENDBRANCH  43  51
ENDBRANCH   8  43
TORSDOF 9
ENDMDL
MODEL 7
REMARK VINA RESULT:     -10.9      1.866      4.874
REMARK  Name = 44259177
REMARK  9 active torsions:
REMARK  status: ('A' for Active; 'I' for Inactive)
REMARK    1  A    between atoms: O_2  and  C_28
REMARK    2  A    between atoms: O_2  and  C_32
REMARK    3  A    between atoms: O_5  and  C_30
REMARK    4  A    between atoms: O_5  and  C_40
REMARK    5  A    between atoms: O_12  and  C_38
REMARK    6  A    between atoms: O_12  and  C_45
REMARK    7  A    between atoms: C_23  and  C_32
REMARK    8  A    between atoms: C_39  and  C_43
REMARK    9  A    between atoms: C_41  and  C_50
REMARK                            x       y       z     vdW  Elec       q    Type
REMARK                         _______ _______ _______ _____ _____    ______ ____
ROOT
ATOM      1  O   UNL     1     112.009 129.350 135.520  0.00  0.00    +0.000 OA
ATOM      2  O   UNL     1     111.779 126.985 136.211  0.00  0.00    +0.000 OA
ATOM      3  O   UNL     1     110.339 127.080 136.159  0.00  0.00    +0.000 OA
ATOM      4  C   UNL     1     112.605 128.107 135.895  0.00  0.00    +0.000 A 
ATOM      5  C   UNL     1     112.681 128.896 135.665  0.00  0.00    +0.000 A 
ATOM      6  C   UNL     1     111.855 127.773 135.981  0.00  0.00    +0.000 A 
ATOM      7  C   UNL     1     111.182 128.229 135.836  0.00  0.00    +0.000 A 
ATOM      8  C   UNL     1     109.782 129.159 135.539  0.00  0.00    +0.000 A 
ATOM      9  C   UNL     1     111.259 129.017 135.606  0.00  0.00    +0.000 A 
ATOM     10  C   UNL     1     110.566 129.501 135.452  0.00  0.00    +0.000 A 
ATOM     11  C   UNL     1     110.407 127.870 135.928  0.00  0.00    +0.000 A 
ATOM     12  C   UNL     1     109.702 128.338 135.778  0.00  0.00    +0.000 A 
ENDROOT
BRANCH   5  15
ATOM     13  O   UNL     1     114.751 130.613 136.633  0.00  0.00    +0.000 OA
ATOM     14  O   UNL     1     115.680 130.230 135.325  0.00  0.00    +0.000 OA
ATOM     15  C   UNL     1     113.431 129.229 135.580  0.00  0.00    +0.000 A 
ATOM     16  C   UNL     1     113.715 129.754 136.149  0.00  0.00    +0.000 A 
ATOM     17  C   UNL     1     113.896 129.038 134.926  0.00  0.00    +0.000 A 
ATOM     18  C   UNL     1     114.466 130.088 136.064  0.00  0.00    +0.000 A 
ATOM     19  C   UNL     1     114.645 129.371 134.841  0.00  0.00    +0.000 A 
ATOM     20  C   UNL     1     114.930 129.896 135.410  0.00  0.00    +0.000 A 
ENDBRANCH   5  15
BRANCH   4  21
ATOM     21  O   UNL     1     113.277 127.652 136.041  0.00  0.00    +0.000 OA
BRANCH  21  30
ATOM     22  O   UNL     1     113.101 127.643 137.458  0.00  0.00    +0.000 OA
ATOM     23  O   UNL     1     113.665 126.162 138.959  0.00  0.00    +0.000 OA
ATOM     24  O   UNL     1     114.211 125.434 137.582  0.00  0.00    +0.000 OA
ATOM     25  O   UNL     1     114.017 126.179 136.123  0.00  0.00    +0.000 OA
ATOM     26  C   UNL     1     113.199 127.271 138.188  0.00  0.00    +0.000 C 
ATOM     27  C   UNL     1     113.568 126.534 138.230  0.00  0.00    +0.000 C 
ATOM     28  C   UNL     1     113.841 126.171 137.540  0.00  0.00    +0.000 C 
ATOM     29  C   UNL     1     113.744 126.543 136.811  0.00  0.00    +0.000 C 
ATOM     30  C   UNL     1     113.374 127.280 136.770  0.00  0.00    +0.000 C 
BRANCH  26  31
ATOM     31  C   UNL     1     112.926 127.634 138.876  0.00  0.00    +0.000 C 
BRANCH  31  32
ATOM     32  O   UNL     1     113.117 128.421 139.031  0.00  0.00    +0.000 OA
BRANCH  32  38
ATOM     33  O   UNL     1     111.988 128.561 139.897  0.00  0.00    +0.000 OA
ATOM     34  O   UNL     1     113.777 129.792 139.671  0.00  0.00    +0.000 OA
ATOM     35  O   UNL     1     112.978 130.616 140.857  0.00  0.00    +0.000 OA
ATOM     36  O   UNL     1     111.520 130.070 141.402  0.00  0.00    +0.000 OA
ATOM     37  C   UNL     1     113.047 129.518 139.944  0.00  0.00    +0.000 C 
ATOM     38  C   UNL     1     112.717 128.833 139.624  0.00  0.00    +0.000 C 
ATOM     39  C   UNL     1     112.648 129.931 140.537  0.00  0.00    +0.000 C 
ATOM     40  C   UNL     1     111.919 129.658 140.810  0.00  0.00    +0.000 C 
ATOM     41  C   UNL     1     111.589 128.972 140.490  0.00  0.00    +0.000 C 
ATOM     42  C   UNL     1     110.860 128.700 140.762  0.00  0.00    +0.000 C 
ENDBRANCH  32  38
ENDBRANCH  31  32
ENDBRANCH  26  31
ENDBRANCH  21  30
ENDBRANCH   4  21
BRANCH   8  43
ATOM     43  O   UNL     1     109.111 129.616 135.393  0.00  0.00    +0.000 OA
BRANCH  43  51
ATOM     44  O   UNL     1     109.090 130.138 136.723  0.00  0.00    +0.000 OA
ATOM     45  O   UNL     1     107.829 132.114 135.927  0.00  0.00    +0.000 OA
ATOM     46  O   UNL     1     108.270 130.933 134.862  0.00  0.00    +0.000 OA
ATOM     47  O   UNL     1     108.228 131.978 137.522  0.00  0.00    +0.000 OA
ATOM     48  C   UNL     1     108.249 131.456 136.192  0.00  0.00    +0.000 C 
ATOM     49  C   UNL     1     108.470 130.865 135.660  0.00  0.00    +0.000 C 
ATOM     50  C   UNL     1     108.449 131.387 136.990  0.00  0.00    +0.000 C 
ATOM     51  C   UNL     1     108.890 130.207 135.926  0.00  0.00    +0.000 C 
ATOM     52  C   UNL     1     108.869 130.729 137.255  0.00  0.00    +0.000 C 
BRANCH  52  55
ATOM     53  O   UNL     1     109.752 131.023 138.339  0.00  0.00    +0.000 OA
ATOM     54  O   UNL     1     108.585 130.230 138.564  0.00  0.00    +0.000 OA
ATOM     55  C   UNL     1     109.069 130.661 138.052  0.00  0.00    +0.000 C 
ENDBRANCH  52  55
ENDBRANCH  43  51
ENDBRANCH   8  43
TORSDOF 9
ENDMDL
MODEL 8
REMARK VINA RESULT:     -10.8      1.783      5.907
REMARK  Name = 44259177
REMARK  9 active torsions:
REMARK  status: ('A' for Active; 'I' for Inactive)
REMARK    1  A    between atoms: O_2  and  C_28
REMARK    2  A    between atoms: O_2  and  C_32
REMARK    3  A    between atoms: O_5  and  C_30
REMARK    4  A    between atoms: O_5  and  C_40
REMARK    5  A    between atoms: O_12  and  C_38
REMARK    6  A    between atoms: O_12  and  C_45
REMARK    7  A    between atoms: C_23  and  C_32
REMARK    8  A    between atoms: C_39  and  C_43
REMARK    9  A    between atoms: C_41  and  C_50
REMARK                            x       y       z     vdW  Elec       q    Type
REMARK                         _______ _______ _______ _____ _____    ______ ____
ROOT
ATOM      1  O   UNL     1     110.413 129.673 136.651  0.00  0.00    +0.000 OA
ATOM      2  O   UNL     1     109.048 129.004 138.605  0.00  0.00    +0.000 OA
ATOM      3  O   UNL     1     109.161 127.611 138.242  0.00  0.00    +0.000 OA
ATOM      4  C   UNL     1     109.667 130.024 137.818  0.00  0.00    +0.000 A 
ATOM      5  C   UNL     1     110.122 130.247 137.167  0.00  0.00    +0.000 A 
ATOM      6  C   UNL     1     109.503 129.227 137.953  0.00  0.00    +0.000 A 
ATOM      7  C   UNL     1     109.794 128.652 137.437  0.00  0.00    +0.000 A 
ATOM      8  C   UNL     1     110.391 127.455 136.377  0.00  0.00    +0.000 A 
ATOM      9  C   UNL     1     110.249 128.875 136.786  0.00  0.00    +0.000 A 
ATOM     10  C   UNL     1     110.558 128.287 136.241  0.00  0.00    +0.000 A 
ATOM     11  C   UNL     1     109.617 127.826 137.589  0.00  0.00    +0.000 A 
ATOM     12  C   UNL     1     109.917 127.222 137.055  0.00  0.00    +0.000 A 
ENDROOT
BRANCH   5  15
ATOM     13  O   UNL     1     111.961 132.434 137.193  0.00  0.00    +0.000 OA
ATOM     14  O   UNL     1     110.778 133.435 136.627  0.00  0.00    +0.000 OA
ATOM     15  C   UNL     1     110.286 131.043 137.032  0.00  0.00    +0.000 A 
ATOM     16  C   UNL     1     111.041 131.340 137.180  0.00  0.00    +0.000 A 
ATOM     17  C   UNL     1     109.694 131.544 136.749  0.00  0.00    +0.000 A 
ATOM     18  C   UNL     1     111.205 132.138 137.045  0.00  0.00    +0.000 A 
ATOM     19  C   UNL     1     109.858 132.341 136.614  0.00  0.00    +0.000 A 
ATOM     20  C   UNL     1     110.613 132.638 136.762  0.00  0.00    +0.000 A 
ENDBRANCH   5  15
BRANCH   4  21
ATOM     21  O   UNL     1     109.376 130.597 138.334  0.00  0.00    +0.000 OA
BRANCH  21  30
ATOM     22  O   UNL     1     110.286 130.245 139.377  0.00  0.00    +0.000 OA
ATOM     23  O   UNL     1     110.135 130.471 141.543  0.00  0.00    +0.000 OA
ATOM     24  O   UNL     1     108.693 131.113 141.061  0.00  0.00    +0.000 OA
ATOM     25  O   UNL     1     108.313 131.176 139.456  0.00  0.00    +0.000 OA
ATOM     26  C   UNL     1     110.475 130.214 140.179  0.00  0.00    +0.000 C 
ATOM     27  C   UNL     1     109.945 130.503 140.741  0.00  0.00    +0.000 C 
ATOM     28  C   UNL     1     109.224 130.824 140.499  0.00  0.00    +0.000 C 
ATOM     29  C   UNL     1     109.034 130.855 139.697  0.00  0.00    +0.000 C 
ATOM     30  C   UNL     1     109.565 130.566 139.136  0.00  0.00    +0.000 C 
BRANCH  26  31
ATOM     31  C   UNL     1     111.196 129.893 140.421  0.00  0.00    +0.000 C 
BRANCH  31  32
ATOM     32  O   UNL     1     111.895 130.116 140.043  0.00  0.00    +0.000 OA
BRANCH  32  38
ATOM     33  O   UNL     1     112.592 128.969 140.534  0.00  0.00    +0.000 OA
ATOM     34  O   UNL     1     113.334 130.885 139.797  0.00  0.00    +0.000 OA
ATOM     35  O   UNL     1     114.750 130.123 140.165  0.00  0.00    +0.000 OA
ATOM     36  O   UNL     1     114.727 128.591 140.779  0.00  0.00    +0.000 OA
ATOM     37  C   UNL     1     113.322 130.119 140.105  0.00  0.00    +0.000 C 
ATOM     38  C   UNL     1     112.603 129.734 140.228  0.00  0.00    +0.000 C 
ATOM     39  C   UNL     1     114.031 129.738 140.288  0.00  0.00    +0.000 C 
ATOM     40  C   UNL     1     114.019 128.972 140.596  0.00  0.00    +0.000 C 
ATOM     41  C   UNL     1     113.300 128.587 140.719  0.00  0.00    +0.000 C 
ATOM     42  C   UNL     1     113.288 127.822 141.026  0.00  0.00    +0.000 C 
ENDBRANCH  32  38
ENDBRANCH  31  32
ENDBRANCH  26  31
ENDBRANCH  21  30
ENDBRANCH   4  21
BRANCH   8  43
ATOM     43  O   UNL     1     110.683 126.882 135.859  0.00  0.00    +0.000 OA
BRANCH  43  51
ATOM     44  O   UNL     1     112.009 126.770 136.381  0.00  0.00    +0.000 OA
ATOM     45  O   UNL     1     111.893 124.309 136.143  0.00  0.00    +0.000 OA
ATOM     46  O   UNL     1     110.606 125.241 135.700  0.00  0.00    +0.000 OA
ATOM     47  O   UNL     1     113.257 125.017 136.745  0.00  0.00    +0.000 OA
ATOM     48  C   UNL     1     111.931 125.129 136.223  0.00  0.00    +0.000 C 
ATOM     49  C   UNL     1     111.288 125.595 136.001  0.00  0.00    +0.000 C 
ATOM     50  C   UNL     1     112.613 125.483 136.523  0.00  0.00    +0.000 C 
ATOM     51  C   UNL     1     111.327 126.416 136.081  0.00  0.00    +0.000 C 
ATOM     52  C   UNL     1     112.651 126.303 136.603  0.00  0.00    +0.000 C 
BRANCH  52  55
ATOM     53  O   UNL     1     113.929 126.908 136.390  0.00  0.00    +0.000 OA
ATOM     54  O   UNL     1     113.421 126.761 137.718  0.00  0.00    +0.000 OA
ATOM     55  C   UNL     1     113.333 126.657 136.903  0.00  0.00    +0.000 C 
ENDBRANCH  52  55
ENDBRANCH  43  51
ENDBRANCH   8  43
TORSDOF 9
ENDMDL
MODEL 9
REMARK VINA RESULT:     -10.8      1.813      5.246
REMARK  Name = 44259177
REMARK  9 active torsions:
REMARK  status: ('A' for Active; 'I' for Inactive)
REMARK    1  A    between atoms: O_2  and  C_28
REMARK    2  A    between atoms: O_2  and  C_32
REMARK    3  A    between atoms: O_5  and  C_30
REMARK    4  A    between atoms: O_5  and  C_40
REMARK    5  A    between atoms: O_12  and  C_38
REMARK    6  A    between atoms: O_12  and  C_45
REMARK    7  A    between atoms: C_23  and  C_32
REMARK    8  A    between atoms: C_39  and  C_43
REMARK    9  A    between atoms: C_41  and  C_50
REMARK                            x       y       z     vdW  Elec       q    Type
REMARK                         _______ _______ _______ _____ _____    ______ ____
ROOT
ATOM      1  O   UNL     1     112.112 127.414 136.896  0.00  0.00    +0.000 OA
ATOM      2  O   UNL     1     113.403 128.441 138.741  0.00  0.00    +0.000 OA
ATOM      3  O   UNL     1     112.994 129.763 138.328  0.00  0.00    +0.000 OA
ATOM      4  C   UNL     1     112.966 127.279 138.032  0.00  0.00    +0.000 A 
ATOM      5  C   UNL     1     112.536 126.937 137.417  0.00  0.00    +0.000 A 
ATOM      6  C   UNL     1     112.972 128.099 138.126  0.00  0.00    +0.000 A 
ATOM      7  C   UNL     1     112.548 128.576 137.603  0.00  0.00    +0.000 A 
ATOM      8  C   UNL     1     111.674 129.574 136.529  0.00  0.00    +0.000 A 
ATOM      9  C   UNL     1     112.118 128.234 136.988  0.00  0.00    +0.000 A 
ATOM     10  C   UNL     1     111.672 128.720 136.437  0.00  0.00    +0.000 A 
ATOM     11  C   UNL     1     112.562 129.428 137.710  0.00  0.00    +0.000 A 
ATOM     12  C   UNL     1     112.121 129.931 137.169  0.00  0.00    +0.000 A 
ENDROOT
BRANCH   5  15
ATOM     13  O   UNL     1     111.200 124.425 137.685  0.00  0.00    +0.000 OA
ATOM     14  O   UNL     1     112.514 123.658 137.047  0.00  0.00    +0.000 OA
ATOM     15  C   UNL     1     112.531 126.118 137.325  0.00  0.00    +0.000 A 
ATOM     16  C   UNL     1     111.868 125.682 137.551  0.00  0.00    +0.000 A 
ATOM     17  C   UNL     1     113.188 125.733 137.006  0.00  0.00    +0.000 A 
ATOM     18  C   UNL     1     111.862 124.861 137.459  0.00  0.00    +0.000 A 
ATOM     19  C   UNL     1     113.182 124.914 136.913  0.00  0.00    +0.000 A 
ATOM     20  C   UNL     1     112.520 124.478 137.140  0.00  0.00    +0.000 A 
ENDBRANCH   5  15
BRANCH   4  21
ATOM     21  O   UNL     1     113.391 126.803 138.555  0.00  0.00    +0.000 OA
BRANCH  21  30
ATOM     22  O   UNL     1     112.485 126.946 139.650  0.00  0.00    +0.000 OA
ATOM     23  O   UNL     1     112.843 127.015 141.802  0.00  0.00    +0.000 OA
ATOM     24  O   UNL     1     114.382 126.835 141.235  0.00  0.00    +0.000 OA
ATOM     25  O   UNL     1     114.656 126.729 139.612  0.00  0.00    +0.000 OA
ATOM     26  C   UNL     1     112.348 126.999 140.462  0.00  0.00    +0.000 C 
ATOM     27  C   UNL     1     112.980 126.962 140.990  0.00  0.00    +0.000 C 
ATOM     28  C   UNL     1     113.750 126.872 140.707  0.00  0.00    +0.000 C 
ATOM     29  C   UNL     1     113.887 126.819 139.895  0.00  0.00    +0.000 C 
ATOM     30  C   UNL     1     113.254 126.856 139.367  0.00  0.00    +0.000 C 
BRANCH  26  31
ATOM     31  C   UNL     1     111.579 127.089 140.746  0.00  0.00    +0.000 C 
BRANCH  31  32
ATOM     32  O   UNL     1     110.995 126.544 140.538  0.00  0.00    +0.000 OA
BRANCH  32  38
ATOM     33  O   UNL     1     109.942 127.415 140.955  0.00  0.00    +0.000 OA
ATOM     34  O   UNL     1     109.992 125.246 140.716  0.00  0.00    +0.000 OA
ATOM     35  O   UNL     1     108.438 125.468 141.223  0.00  0.00    +0.000 OA
ATOM     36  O   UNL     1     107.886 126.988 141.551  0.00  0.00    +0.000 OA
ATOM     37  C   UNL     1     109.716 126.007 140.881  0.00  0.00    +0.000 C 
ATOM     38  C   UNL     1     110.218 126.655 140.791  0.00  0.00    +0.000 C 
ATOM     39  C   UNL     1     108.939 126.117 141.134  0.00  0.00    +0.000 C 
ATOM     40  C   UNL     1     108.663 126.878 141.298  0.00  0.00    +0.000 C 
ATOM     41  C   UNL     1     109.165 127.527 141.209  0.00  0.00    +0.000 C 
ATOM     42  C   UNL     1     108.889 128.286 141.373  0.00  0.00    +0.000 C 
ENDBRANCH  32  38
ENDBRANCH  31  32
ENDBRANCH  26  31
ENDBRANCH  21  30
ENDBRANCH   4  21
BRANCH   8  43
ATOM     43  O   UNL     1     111.248 130.049 136.005  0.00  0.00    +0.000 OA
BRANCH  43  51
ATOM     44  O   UNL     1     110.140 130.288 136.875  0.00  0.00    +0.000 OA
ATOM     45  O   UNL     1     108.608 130.257 134.931  0.00  0.00    +0.000 OA
ATOM     46  O   UNL     1     110.227 130.028 134.709  0.00  0.00    +0.000 OA
ATOM     47  O   UNL     1     108.010 130.506 136.449  0.00  0.00    +0.000 OA
ATOM     48  C   UNL     1     109.119 130.267 135.579  0.00  0.00    +0.000 C 
ATOM     49  C   UNL     1     109.928 130.153 135.467  0.00  0.00    +0.000 C 
ATOM     50  C   UNL     1     108.820 130.392 136.337  0.00  0.00    +0.000 C 
ATOM     51  C   UNL     1     110.439 130.164 136.116  0.00  0.00    +0.000 C 
ATOM     52  C   UNL     1     109.331 130.402 136.985  0.00  0.00    +0.000 C 
BRANCH  52  55
ATOM     53  O   UNL     1     108.989 131.292 138.050  0.00  0.00    +0.000 OA
ATOM     54  O   UNL     1     108.776 129.887 138.198  0.00  0.00    +0.000 OA
ATOM     55  C   UNL     1     109.032 130.527 137.744  0.00  0.00    +0.000 C 
ENDBRANCH  52  55
ENDBRANCH  43  51
ENDBRANCH   8  43
TORSDOF 9
ENDMDL
MODEL 10
REMARK VINA RESULT:     -10.7      1.541      4.946
REMARK  Name = 44259177
REMARK  9 active torsions:
REMARK  status: ('A' for Active; 'I' for Inactive)
REMARK    1  A    between atoms: O_2  and  C_28
REMARK    2  A    between atoms: O_2  and  C_32
REMARK    3  A    between atoms: O_5  and  C_30
REMARK    4  A    between atoms: O_5  and  C_40
REMARK    5  A    between atoms: O_12  and  C_38
REMARK    6  A    between atoms: O_12  and  C_45
REMARK    7  A    between atoms: C_23  and  C_32
REMARK    8  A    between atoms: C_39  and  C_43
REMARK    9  A    between atoms: C_41  and  C_50
REMARK                            x       y       z     vdW  Elec       q    Type
REMARK                         _______ _______ _______ _____ _____    ______ ____
ROOT
ATOM      1  O   UNL     1     112.418 128.254 139.841  0.00  0.00    +0.000 OA
ATOM      2  O   UNL     1     110.381 129.150 138.757  0.00  0.00    +0.000 OA
ATOM      3  O   UNL     1     110.041 127.842 138.251  0.00  0.00    +0.000 OA
ATOM      4  C   UNL     1     111.557 129.354 139.543  0.00  0.00    +0.000 A 
ATOM      5  C   UNL     1     112.235 129.056 139.904  0.00  0.00    +0.000 A 
ATOM      6  C   UNL     1     111.060 128.852 139.118  0.00  0.00    +0.000 A 
ATOM      7  C   UNL     1     111.242 128.049 139.054  0.00  0.00    +0.000 A 
ATOM      8  C   UNL     1     111.609 126.387 138.915  0.00  0.00    +0.000 A 
ATOM      9  C   UNL     1     111.921 127.750 139.416  0.00  0.00    +0.000 A 
ATOM     10  C   UNL     1     112.122 126.917 139.357  0.00  0.00    +0.000 A 
ATOM     11  C   UNL     1     110.718 127.535 138.609  0.00  0.00    +0.000 A 
ATOM     12  C   UNL     1     110.902 126.698 138.539  0.00  0.00    +0.000 A 
ENDROOT
BRANCH   5  15
ATOM     13  O   UNL     1     114.689 130.504 140.127  0.00  0.00    +0.000 OA
ATOM     14  O   UNL     1     114.221 131.070 141.604  0.00  0.00    +0.000 OA
ATOM     15  C   UNL     1     112.731 129.559 140.329  0.00  0.00    +0.000 A 
ATOM     16  C   UNL     1     113.462 129.779 140.015  0.00  0.00    +0.000 A 
ATOM     17  C   UNL     1     112.498 129.842 141.068  0.00  0.00    +0.000 A 
ATOM     18  C   UNL     1     113.959 130.283 140.440  0.00  0.00    +0.000 A 
ATOM     19  C   UNL     1     112.994 130.346 141.493  0.00  0.00    +0.000 A 
ATOM     20  C   UNL     1     113.724 130.566 141.179  0.00  0.00    +0.000 A 
ENDBRANCH   5  15
BRANCH   4  21
ATOM     21  O   UNL     1     111.374 130.156 139.606  0.00  0.00    +0.000 OA
BRANCH  21  30
ATOM     22  O   UNL     1     111.774 130.463 138.270  0.00  0.00    +0.000 OA
ATOM     23  O   UNL     1     111.079 132.004 136.888  0.00  0.00    +0.000 OA
ATOM     24  O   UNL     1     110.131 132.313 138.203  0.00  0.00    +0.000 OA
ATOM     25  O   UNL     1     110.279 131.390 139.562  0.00  0.00    +0.000 OA
ATOM     26  C   UNL     1     111.700 130.925 137.590  0.00  0.00    +0.000 C 
ATOM     27  C   UNL     1     111.153 131.542 137.568  0.00  0.00    +0.000 C 
ATOM     28  C   UNL     1     110.679 131.697 138.226  0.00  0.00    +0.000 C 
ATOM     29  C   UNL     1     110.752 131.235 138.905  0.00  0.00    +0.000 C 
ATOM     30  C   UNL     1     111.300 130.618 138.927  0.00  0.00    +0.000 C 
BRANCH  26  31
ATOM     31  C   UNL     1     112.173 130.771 136.933  0.00  0.00    +0.000 C 
BRANCH  31  32
ATOM     32  O   UNL     1     112.987 130.669 137.024  0.00  0.00    +0.000 OA
BRANCH  32  38
ATOM     33  O   UNL     1     113.065 129.813 135.883  0.00  0.00    +0.000 OA
ATOM     34  O   UNL     1     114.600 130.990 136.895  0.00  0.00    +0.000 OA
ATOM     35  O   UNL     1     115.485 130.294 135.689  0.00  0.00    +0.000 OA
ATOM     36  O   UNL     1     114.757 129.277 134.612  0.00  0.00    +0.000 OA
ATOM     37  C   UNL     1     114.236 130.481 136.356  0.00  0.00    +0.000 C 
ATOM     38  C   UNL     1     113.429 130.321 136.421  0.00  0.00    +0.000 C 
ATOM     39  C   UNL     1     114.679 130.133 135.753  0.00  0.00    +0.000 C 
ATOM     40  C   UNL     1     114.314 129.625 135.215  0.00  0.00    +0.000 C 
ATOM     41  C   UNL     1     113.507 129.464 135.280  0.00  0.00    +0.000 C 
ATOM     42  C   UNL     1     113.144 128.957 134.742  0.00  0.00    +0.000 C 
ENDBRANCH  32  38
ENDBRANCH  31  32
ENDBRANCH  26  31
ENDBRANCH  21  30
ENDBRANCH   4  21
BRANCH   8  43
ATOM     43  O   UNL     1     111.794 125.586 138.853  0.00  0.00    +0.000 OA
BRANCH  43  51
ATOM     44  O   UNL     1     112.937 125.621 137.996  0.00  0.00    +0.000 OA
ATOM     45  O   UNL     1     111.943 123.837 136.597  0.00  0.00    +0.000 OA
ATOM     46  O   UNL     1     111.130 124.397 137.920  0.00  0.00    +0.000 OA
ATOM     47  O   UNL     1     113.417 124.467 136.207  0.00  0.00    +0.000 OA
ATOM     48  C   UNL     1     112.274 124.432 137.063  0.00  0.00    +0.000 C 
ATOM     49  C   UNL     1     111.868 124.711 137.725  0.00  0.00    +0.000 C 
ATOM     50  C   UNL     1     113.011 124.746 136.868  0.00  0.00    +0.000 C 
ATOM     51  C   UNL     1     112.200 125.306 138.191  0.00  0.00    +0.000 C 
ATOM     52  C   UNL     1     113.342 125.341 137.335  0.00  0.00    +0.000 C 
BRANCH  52  55
ATOM     53  O   UNL     1     114.763 125.352 137.489  0.00  0.00    +0.000 OA
ATOM     54  O   UNL     1     114.134 126.274 136.596  0.00  0.00    +0.000 OA
ATOM     55  C   UNL     1     114.080 125.655 137.140  0.00  0.00    +0.000 C 
ENDBRANCH  52  55
ENDBRANCH  43  51
ENDBRANCH   8  43
TORSDOF 9
ENDMDL
