MODEL 1
REMARK VINA RESULT:      -9.9      0.000      0.000
REMARK  Name = 44259303
REMARK  12 active torsions:
REMARK  status: ('A' for Active; 'I' for Inactive)
REMARK    1  A    between atoms: O_1  and  C_21
REMARK    2  A    between atoms: O_1  and  C_23
REMARK    3  A    between atoms: O_4  and  C_24
REMARK    4  A    between atoms: O_4  and  C_34
REMARK    5  A    between atoms: O_6  and  C_27
REMARK    6  A    between atoms: O_6  and  C_33
REMARK    7  A    between atoms: O_19  and  C_54
REMARK    8  A    between atoms: C_29  and  C_31
REMARK    9  A    between atoms: C_30  and  C_32
REMARK   10  A    between atoms: C_34  and  C_37
REMARK   11  A    between atoms: C_35  and  C_39
REMARK   12  A    between atoms: C_42  and  C_48
REMARK                            x       y       z     vdW  Elec       q    Type
REMARK                         _______ _______ _______ _____ _____    ______ ____
ROOT
ATOM      1  O   UNL     1     110.618 128.062 137.181  0.00  0.00    +0.000 OA
ATOM      2  O   UNL     1     110.875 125.868 138.297  0.00  0.00    +0.000 OA
ATOM      3  O   UNL     1     109.568 126.155 137.333  0.00  0.00    +0.000 OA
ATOM      4  C   UNL     1     111.358 127.187 138.036  0.00  0.00    +0.000 C 
ATOM      5  C   UNL     1     110.789 126.599 137.925  0.00  0.00    +0.000 C 
ATOM      6  C   UNL     1     110.136 126.742 137.443  0.00  0.00    +0.000 C 
ATOM      7  C   UNL     1     111.272 127.918 137.664  0.00  0.00    +0.000 C 
ATOM      8  C   UNL     1     110.050 127.473 137.071  0.00  0.00    +0.000 C 
ENDROOT
BRANCH   8  10
ATOM      9  O   UNL     1     109.507 127.847 135.803  0.00  0.00    +0.000 OA
ATOM     10  C   UNL     1     109.397 127.617 136.589  0.00  0.00    +0.000 C 
ENDBRANCH   8  10
BRANCH   4  11
ATOM     11  O   UNL     1     112.011 127.044 138.517  0.00  0.00    +0.000 OA
BRANCH  11  15
ATOM     12  O   UNL     1     112.688 126.411 137.430  0.00  0.00    +0.000 OA
ATOM     13  O   UNL     1     114.464 125.651 138.976  0.00  0.00    +0.000 OA
ATOM     14  O   UNL     1     114.549 125.272 137.373  0.00  0.00    +0.000 OA
ATOM     15  C   UNL     1     112.646 126.601 138.231  0.00  0.00    +0.000 C 
ATOM     16  C   UNL     1     113.238 126.347 138.747  0.00  0.00    +0.000 C 
ATOM     17  C   UNL     1     113.873 125.904 138.461  0.00  0.00    +0.000 C 
ATOM     18  C   UNL     1     113.914 125.715 137.659  0.00  0.00    +0.000 C 
ATOM     19  C   UNL     1     113.323 125.968 137.143  0.00  0.00    +0.000 C 
BRANCH  19  21
ATOM     20  O   UNL     1     112.957 125.122 136.051  0.00  0.00    +0.000 OA
ATOM     21  C   UNL     1     113.364 125.778 136.341  0.00  0.00    +0.000 C 
ENDBRANCH  19  21
BRANCH  16  22
ATOM     22  O   UNL     1     113.196 126.538 139.549  0.00  0.00    +0.000 OA
BRANCH  22  24
ATOM     23  O   UNL     1     114.510 126.608 140.108  0.00  0.00    +0.000 OA
ATOM     24  C   UNL     1     113.800 126.976 139.901  0.00  0.00    +0.000 C 
BRANCH  24  25
ATOM     25  C   UNL     1     113.695 127.781 140.046  0.00  0.00    +0.000 C 
ATOM     26  C   UNL     1     113.801 128.079 140.809  0.00  0.00    +0.000 C 
BRANCH  26  28
ATOM     27  O   UNL     1     113.376 131.299 141.392  0.00  0.00    +0.000 OA
ATOM     28  C   UNL     1     113.695 128.884 140.954  0.00  0.00    +0.000 A 
ATOM     29  C   UNL     1     113.110 129.135 141.480  0.00  0.00    +0.000 A 
ATOM     30  C   UNL     1     114.173 129.439 140.574  0.00  0.00    +0.000 A 
ATOM     31  C   UNL     1     113.004 129.940 141.626  0.00  0.00    +0.000 A 
ATOM     32  C   UNL     1     114.066 130.244 140.720  0.00  0.00    +0.000 A 
ATOM     33  C   UNL     1     113.482 130.494 141.246  0.00  0.00    +0.000 A 
BRANCH  31  34
ATOM     34  O   UNL     1     112.419 130.190 142.152  0.00  0.00    +0.000 OA
ATOM     35  C   UNL     1     112.021 129.639 142.619  0.00  0.00    +0.000 C 
ENDBRANCH  31  34
ENDBRANCH  26  28
ENDBRANCH  24  25
ENDBRANCH  22  24
ENDBRANCH  16  22
ENDBRANCH  11  15
ENDBRANCH   4  11
BRANCH   7  36
ATOM     36  O   UNL     1     111.840 128.507 137.773  0.00  0.00    +0.000 OA
BRANCH  36  41
ATOM     37  O   UNL     1     111.680 130.668 137.518  0.00  0.00    +0.000 OA
ATOM     38  O   UNL     1     110.759 128.881 138.963  0.00  0.00    +0.000 OA
ATOM     39  O   UNL     1     109.967 129.841 139.694  0.00  0.00    +0.000 OA
ATOM     40  O   UNL     1     110.110 132.661 138.950  0.00  0.00    +0.000 OA
ATOM     41  C   UNL     1     111.606 129.290 137.887  0.00  0.00    +0.000 A 
ATOM     42  C   UNL     1     111.914 129.885 137.405  0.00  0.00    +0.000 A 
ATOM     43  C   UNL     1     111.066 129.477 138.481  0.00  0.00    +0.000 A 
ATOM     44  C   UNL     1     110.833 130.260 138.594  0.00  0.00    +0.000 A 
ATOM     45  C   UNL     1     111.139 130.856 138.113  0.00  0.00    +0.000 A 
ATOM     46  C   UNL     1     110.269 130.443 139.217  0.00  0.00    +0.000 A 
ATOM     47  C   UNL     1     110.904 131.675 138.221  0.00  0.00    +0.000 A 
ATOM     48  C   UNL     1     110.022 131.257 139.340  0.00  0.00    +0.000 A 
ATOM     49  C   UNL     1     110.342 131.877 138.839  0.00  0.00    +0.000 A 
BRANCH  42  52
ATOM     50  O   UNL     1     112.471 129.276 134.669  0.00  0.00    +0.000 OA
ATOM     51  O   UNL     1     114.076 129.136 135.027  0.00  0.00    +0.000 OA
ATOM     52  C   UNL     1     112.453 129.698 136.811  0.00  0.00    +0.000 A 
ATOM     53  C   UNL     1     112.192 129.581 136.037  0.00  0.00    +0.000 A 
ATOM     54  C   UNL     1     113.256 129.628 136.990  0.00  0.00    +0.000 A 
ATOM     55  C   UNL     1     112.732 129.394 135.443  0.00  0.00    +0.000 A 
ATOM     56  C   UNL     1     113.797 129.441 136.395  0.00  0.00    +0.000 A 
ATOM     57  C   UNL     1     113.534 129.324 135.622  0.00  0.00    +0.000 A 
ENDBRANCH  42  52
ENDBRANCH  36  41
ENDBRANCH   7  36
TORSDOF 12
ENDMDL
MODEL 2
REMARK VINA RESULT:      -9.9      1.227      4.231
REMARK  Name = 44259303
REMARK  12 active torsions:
REMARK  status: ('A' for Active; 'I' for Inactive)
REMARK    1  A    between atoms: O_1  and  C_21
REMARK    2  A    between atoms: O_1  and  C_23
REMARK    3  A    between atoms: O_4  and  C_24
REMARK    4  A    between atoms: O_4  and  C_34
REMARK    5  A    between atoms: O_6  and  C_27
REMARK    6  A    between atoms: O_6  and  C_33
REMARK    7  A    between atoms: O_19  and  C_54
REMARK    8  A    between atoms: C_29  and  C_31
REMARK    9  A    between atoms: C_30  and  C_32
REMARK   10  A    between atoms: C_34  and  C_37
REMARK   11  A    between atoms: C_35  and  C_39
REMARK   12  A    between atoms: C_42  and  C_48
REMARK                            x       y       z     vdW  Elec       q    Type
REMARK                         _______ _______ _______ _____ _____    ______ ____
ROOT
ATOM      1  O   UNL     1     110.715 128.694 136.463  0.00  0.00    +0.000 OA
ATOM      2  O   UNL     1     108.843 129.696 137.735  0.00  0.00    +0.000 OA
ATOM      3  O   UNL     1     108.561 128.986 136.273  0.00  0.00    +0.000 OA
ATOM      4  C   UNL     1     110.232 129.383 137.619  0.00  0.00    +0.000 C 
ATOM      5  C   UNL     1     109.467 129.362 137.311  0.00  0.00    +0.000 C 
ATOM      6  C   UNL     1     109.325 129.007 136.581  0.00  0.00    +0.000 C 
ATOM      7  C   UNL     1     110.856 129.049 137.195  0.00  0.00    +0.000 C 
ATOM      8  C   UNL     1     109.949 128.673 136.157  0.00  0.00    +0.000 C 
ENDROOT
BRANCH   8  10
ATOM      9  O   UNL     1     110.198 128.594 134.752  0.00  0.00    +0.000 OA
ATOM     10  C   UNL     1     109.809 128.318 135.425  0.00  0.00    +0.000 C 
ENDBRANCH   8  10
BRANCH   4  11
ATOM     11  O   UNL     1     110.374 129.737 138.350  0.00  0.00    +0.000 OA
BRANCH  11  15
ATOM     12  O   UNL     1     110.322 131.033 137.748  0.00  0.00    +0.000 OA
ATOM     13  O   UNL     1     110.286 132.075 139.992  0.00  0.00    +0.000 OA
ATOM     14  O   UNL     1     110.247 133.022 138.641  0.00  0.00    +0.000 OA
ATOM     15  C   UNL     1     110.342 130.559 138.423  0.00  0.00    +0.000 C 
ATOM     16  C   UNL     1     110.330 130.907 139.171  0.00  0.00    +0.000 C 
ATOM     17  C   UNL     1     110.298 131.728 139.244  0.00  0.00    +0.000 C 
ATOM     18  C   UNL     1     110.278 132.201 138.569  0.00  0.00    +0.000 C 
ATOM     19  C   UNL     1     110.291 131.854 137.821  0.00  0.00    +0.000 C 
BRANCH  19  21
ATOM     20  O   UNL     1     110.954 132.427 136.693  0.00  0.00    +0.000 OA
ATOM     21  C   UNL     1     110.271 132.327 137.145  0.00  0.00    +0.000 C 
ENDBRANCH  19  21
BRANCH  16  22
ATOM     22  O   UNL     1     110.349 130.432 139.846  0.00  0.00    +0.000 OA
BRANCH  22  24
ATOM     23  O   UNL     1     110.908 131.094 140.984  0.00  0.00    +0.000 OA
ATOM     24  C   UNL     1     110.961 130.520 140.394  0.00  0.00    +0.000 C 
BRANCH  24  25
ATOM     25  C   UNL     1     111.625 130.033 140.350  0.00  0.00    +0.000 C 
ATOM     26  C   UNL     1     111.954 129.721 141.040  0.00  0.00    +0.000 C 
BRANCH  26  28
ATOM     27  O   UNL     1     114.611 127.771 140.864  0.00  0.00    +0.000 OA
ATOM     28  C   UNL     1     112.618 129.234 140.996  0.00  0.00    +0.000 A 
ATOM     29  C   UNL     1     112.538 128.417 141.087  0.00  0.00    +0.000 A 
ATOM     30  C   UNL     1     113.363 129.563 140.861  0.00  0.00    +0.000 A 
ATOM     31  C   UNL     1     113.202 127.930 141.043  0.00  0.00    +0.000 A 
ATOM     32  C   UNL     1     114.027 129.075 140.818  0.00  0.00    +0.000 A 
ATOM     33  C   UNL     1     113.947 128.259 140.908  0.00  0.00    +0.000 A 
BRANCH  31  34
ATOM     34  O   UNL     1     113.121 127.114 141.134  0.00  0.00    +0.000 OA
ATOM     35  C   UNL     1     112.423 126.800 141.442  0.00  0.00    +0.000 C 
ENDBRANCH  31  34
ENDBRANCH  26  28
ENDBRANCH  24  25
ENDBRANCH  22  24
ENDBRANCH  16  22
ENDBRANCH  11  15
ENDBRANCH   4  11
BRANCH   7  36
ATOM     36  O   UNL     1     111.622 129.069 137.502  0.00  0.00    +0.000 OA
BRANCH  36  41
ATOM     37  O   UNL     1     113.351 127.800 137.102  0.00  0.00    +0.000 OA
ATOM     38  O   UNL     1     111.057 127.605 138.010  0.00  0.00    +0.000 OA
ATOM     39  O   UNL     1     111.233 126.189 138.228  0.00  0.00    +0.000 OA
ATOM     40  O   UNL     1     113.778 124.949 137.513  0.00  0.00    +0.000 OA
ATOM     41  C   UNL     1     112.104 128.402 137.453  0.00  0.00    +0.000 A 
ATOM     42  C   UNL     1     112.869 128.468 137.150  0.00  0.00    +0.000 A 
ATOM     43  C   UNL     1     111.822 127.670 137.707  0.00  0.00    +0.000 A 
ATOM     44  C   UNL     1     112.305 127.003 137.659  0.00  0.00    +0.000 A 
ATOM     45  C   UNL     1     113.069 127.067 137.356  0.00  0.00    +0.000 A 
ATOM     46  C   UNL     1     111.999 126.245 137.927  0.00  0.00    +0.000 A 
ATOM     47  C   UNL     1     113.582 126.380 137.300  0.00  0.00    +0.000 A 
ATOM     48  C   UNL     1     112.497 125.547 137.878  0.00  0.00    +0.000 A 
ATOM     49  C   UNL     1     113.293 125.615 137.563  0.00  0.00    +0.000 A 
BRANCH  42  52
ATOM     50  O   UNL     1     114.025 131.015 137.738  0.00  0.00    +0.000 OA
ATOM     51  O   UNL     1     113.998 131.397 136.133  0.00  0.00    +0.000 OA
ATOM     52  C   UNL     1     113.151 129.199 136.896  0.00  0.00    +0.000 A 
ATOM     53  C   UNL     1     113.447 129.741 137.444  0.00  0.00    +0.000 A 
ATOM     54  C   UNL     1     113.138 129.391 136.094  0.00  0.00    +0.000 A 
ATOM     55  C   UNL     1     113.729 130.473 137.190  0.00  0.00    +0.000 A 
ATOM     56  C   UNL     1     113.420 130.123 135.839  0.00  0.00    +0.000 A 
ATOM     57  C   UNL     1     113.716 130.664 136.387  0.00  0.00    +0.000 A 
ENDBRANCH  42  52
ENDBRANCH  36  41
ENDBRANCH   7  36
TORSDOF 12
ENDMDL
MODEL 3
REMARK VINA RESULT:      -9.8      1.538      4.568
REMARK  Name = 44259303
REMARK  12 active torsions:
REMARK  status: ('A' for Active; 'I' for Inactive)
REMARK    1  A    between atoms: O_1  and  C_21
REMARK    2  A    between atoms: O_1  and  C_23
REMARK    3  A    between atoms: O_4  and  C_24
REMARK    4  A    between atoms: O_4  and  C_34
REMARK    5  A    between atoms: O_6  and  C_27
REMARK    6  A    between atoms: O_6  and  C_33
REMARK    7  A    between atoms: O_19  and  C_54
REMARK    8  A    between atoms: C_29  and  C_31
REMARK    9  A    between atoms: C_30  and  C_32
REMARK   10  A    between atoms: C_34  and  C_37
REMARK   11  A    between atoms: C_35  and  C_39
REMARK   12  A    between atoms: C_42  and  C_48
REMARK                            x       y       z     vdW  Elec       q    Type
REMARK                         _______ _______ _______ _____ _____    ______ ____
ROOT
ATOM      1  O   UNL     1     113.036 128.519 136.932  0.00  0.00    +0.000 OA
ATOM      2  O   UNL     1     111.832 130.619 136.416  0.00  0.00    +0.000 OA
ATOM      3  O   UNL     1     113.289 130.309 135.709  0.00  0.00    +0.000 OA
ATOM      4  C   UNL     1     111.905 129.374 137.114  0.00  0.00    +0.000 C 
ATOM      5  C   UNL     1     112.233 129.919 136.588  0.00  0.00    +0.000 C 
ATOM      6  C   UNL     1     112.962 129.764 136.235  0.00  0.00    +0.000 C 
ATOM      7  C   UNL     1     112.306 128.674 137.286  0.00  0.00    +0.000 C 
ATOM      8  C   UNL     1     113.363 129.064 136.406  0.00  0.00    +0.000 C 
ENDROOT
BRANCH   8  10
ATOM      9  O   UNL     1     114.204 128.208 135.631  0.00  0.00    +0.000 OA
ATOM     10  C   UNL     1     114.092 128.909 136.053  0.00  0.00    +0.000 C 
ENDBRANCH   8  10
BRANCH   4  11
ATOM     11  O   UNL     1     111.177 129.529 137.468  0.00  0.00    +0.000 OA
BRANCH  11  15
ATOM     12  O   UNL     1     110.487 129.096 136.293  0.00  0.00    +0.000 OA
ATOM     13  O   UNL     1     108.396 130.107 137.146  0.00  0.00    +0.000 OA
ATOM     14  O   UNL     1     108.405 129.337 135.687  0.00  0.00    +0.000 OA
ATOM     15  C   UNL     1     110.484 129.481 137.022  0.00  0.00    +0.000 C 
ATOM     16  C   UNL     1     109.786 129.818 137.307  0.00  0.00    +0.000 C 
ATOM     17  C   UNL     1     109.093 129.770 136.862  0.00  0.00    +0.000 C 
ATOM     18  C   UNL     1     109.098 129.385 136.132  0.00  0.00    +0.000 C 
ATOM     19  C   UNL     1     109.794 129.048 135.848  0.00  0.00    +0.000 C 
BRANCH  19  21
ATOM     20  O   UNL     1     109.847 127.839 135.087  0.00  0.00    +0.000 OA
ATOM     21  C   UNL     1     109.799 128.662 135.118  0.00  0.00    +0.000 C 
ENDBRANCH  19  21
BRANCH  16  22
ATOM     22  O   UNL     1     109.782 130.203 138.036  0.00  0.00    +0.000 OA
BRANCH  22  24
ATOM     23  O   UNL     1     108.508 130.166 138.683  0.00  0.00    +0.000 OA
ATOM     24  C   UNL     1     109.297 129.928 138.645  0.00  0.00    +0.000 C 
BRANCH  24  25
ATOM     25  C   UNL     1     109.602 129.416 139.215  0.00  0.00    +0.000 C 
ATOM     26  C   UNL     1     109.450 129.553 140.015  0.00  0.00    +0.000 C 
BRANCH  26  28
ATOM     27  O   UNL     1     110.672 127.506 142.298  0.00  0.00    +0.000 OA
ATOM     28  C   UNL     1     109.755 129.041 140.586  0.00  0.00    +0.000 A 
ATOM     29  C   UNL     1     110.281 129.324 141.156  0.00  0.00    +0.000 A 
ATOM     30  C   UNL     1     109.536 128.245 140.586  0.00  0.00    +0.000 A 
ATOM     31  C   UNL     1     110.586 128.812 141.726  0.00  0.00    +0.000 A 
ATOM     32  C   UNL     1     109.842 127.734 141.157  0.00  0.00    +0.000 A 
ATOM     33  C   UNL     1     110.366 128.017 141.727  0.00  0.00    +0.000 A 
BRANCH  31  34
ATOM     34  O   UNL     1     111.111 129.096 142.296  0.00  0.00    +0.000 OA
ATOM     35  C   UNL     1     111.270 129.904 142.345  0.00  0.00    +0.000 C 
ENDBRANCH  31  34
ENDBRANCH  26  28
ENDBRANCH  24  25
ENDBRANCH  22  24
ENDBRANCH  16  22
ENDBRANCH  11  15
ENDBRANCH   4  11
BRANCH   7  36
ATOM     36  O   UNL     1     111.979 128.129 137.811  0.00  0.00    +0.000 OA
BRANCH  36  41
ATOM     37  O   UNL     1     112.953 126.626 139.059  0.00  0.00    +0.000 OA
ATOM     38  O   UNL     1     112.848 129.089 138.835  0.00  0.00    +0.000 OA
ATOM     39  O   UNL     1     113.759 129.257 139.941  0.00  0.00    +0.000 OA
ATOM     40  O   UNL     1     114.795 126.889 141.299  0.00  0.00    +0.000 OA
ATOM     41  C   UNL     1     112.449 127.788 138.398  0.00  0.00    +0.000 A 
ATOM     42  C   UNL     1     112.483 126.967 138.472  0.00  0.00    +0.000 A 
ATOM     43  C   UNL     1     112.883 128.268 138.909  0.00  0.00    +0.000 A 
ATOM     44  C   UNL     1     113.352 127.927 139.496  0.00  0.00    +0.000 A 
ATOM     45  C   UNL     1     113.387 127.106 139.571  0.00  0.00    +0.000 A 
ATOM     46  C   UNL     1     113.800 128.437 140.023  0.00  0.00    +0.000 A 
ATOM     47  C   UNL     1     113.872 126.738 140.177  0.00  0.00    +0.000 A 
ATOM     48  C   UNL     1     114.290 128.087 140.636  0.00  0.00    +0.000 A 
ATOM     49  C   UNL     1     114.326 127.233 140.713  0.00  0.00    +0.000 A 
BRANCH  42  52
ATOM     50  O   UNL     1     112.351 125.312 136.146  0.00  0.00    +0.000 OA
ATOM     51  O   UNL     1     110.746 125.047 136.426  0.00  0.00    +0.000 OA
ATOM     52  C   UNL     1     112.050 126.487 137.961  0.00  0.00    +0.000 A 
ATOM     53  C   UNL     1     112.417 126.140 137.309  0.00  0.00    +0.000 A 
ATOM     54  C   UNL     1     111.248 126.354 138.101  0.00  0.00    +0.000 A 
ATOM     55  C   UNL     1     111.983 125.660 136.798  0.00  0.00    +0.000 A 
ATOM     56  C   UNL     1     110.813 125.874 137.589  0.00  0.00    +0.000 A 
ATOM     57  C   UNL     1     111.181 125.527 136.938  0.00  0.00    +0.000 A 
ENDBRANCH  42  52
ENDBRANCH  36  41
ENDBRANCH   7  36
TORSDOF 12
ENDMDL
MODEL 4
REMARK VINA RESULT:      -9.8      1.409      2.986
REMARK  Name = 44259303
REMARK  12 active torsions:
REMARK  status: ('A' for Active; 'I' for Inactive)
REMARK    1  A    between atoms: O_1  and  C_21
REMARK    2  A    between atoms: O_1  and  C_23
REMARK    3  A    between atoms: O_4  and  C_24
REMARK    4  A    between atoms: O_4  and  C_34
REMARK    5  A    between atoms: O_6  and  C_27
REMARK    6  A    between atoms: O_6  and  C_33
REMARK    7  A    between atoms: O_19  and  C_54
REMARK    8  A    between atoms: C_29  and  C_31
REMARK    9  A    between atoms: C_30  and  C_32
REMARK   10  A    between atoms: C_34  and  C_37
REMARK   11  A    between atoms: C_35  and  C_39
REMARK   12  A    between atoms: C_42  and  C_48
REMARK                            x       y       z     vdW  Elec       q    Type
REMARK                         _______ _______ _______ _____ _____    ______ ____
ROOT
ATOM      1  O   UNL     1     111.338 128.015 136.803  0.00  0.00    +0.000 OA
ATOM      2  O   UNL     1     111.897 125.767 137.676  0.00  0.00    +0.000 OA
ATOM      3  O   UNL     1     111.428 125.949 136.105  0.00  0.00    +0.000 OA
ATOM      4  C   UNL     1     111.759 127.175 137.880  0.00  0.00    +0.000 C 
ATOM      5  C   UNL     1     111.711 126.516 137.385  0.00  0.00    +0.000 C 
ATOM      6  C   UNL     1     111.476 126.607 136.600  0.00  0.00    +0.000 C 
ATOM      7  C   UNL     1     111.573 127.924 137.589  0.00  0.00    +0.000 C 
ATOM      8  C   UNL     1     111.290 127.356 136.309  0.00  0.00    +0.000 C 
ENDROOT
BRANCH   8  10
ATOM      9  O   UNL     1     110.328 127.796 135.348  0.00  0.00    +0.000 OA
ATOM     10  C   UNL     1     111.055 127.447 135.523  0.00  0.00    +0.000 C 
ENDBRANCH   8  10
BRANCH   4  11
ATOM     11  O   UNL     1     111.994 127.084 138.665  0.00  0.00    +0.000 OA
BRANCH  11  15
ATOM     12  O   UNL     1     110.680 126.648 139.021  0.00  0.00    +0.000 OA
ATOM     13  O   UNL     1     111.509 125.971 141.252  0.00  0.00    +0.000 OA
ATOM     14  O   UNL     1     109.919 125.761 140.864  0.00  0.00    +0.000 OA
ATOM     15  C   UNL     1     111.475 126.753 139.215  0.00  0.00    +0.000 C 
ATOM     16  C   UNL     1     111.751 126.527 139.959  0.00  0.00    +0.000 C 
ATOM     17  C   UNL     1     111.233 126.196 140.509  0.00  0.00    +0.000 C 
ATOM     18  C   UNL     1     110.438 126.091 140.314  0.00  0.00    +0.000 C 
ATOM     19  C   UNL     1     110.161 126.317 139.571  0.00  0.00    +0.000 C 
BRANCH  19  21
ATOM     20  O   UNL     1     108.855 126.859 139.371  0.00  0.00    +0.000 OA
ATOM     21  C   UNL     1     109.366 126.212 139.376  0.00  0.00    +0.000 C 
ENDBRANCH  19  21
BRANCH  16  22
ATOM     22  O   UNL     1     112.546 126.633 140.153  0.00  0.00    +0.000 OA
BRANCH  22  24
ATOM     23  O   UNL     1     112.714 126.831 141.559  0.00  0.00    +0.000 OA
ATOM     24  C   UNL     1     112.755 127.119 140.787  0.00  0.00    +0.000 C 
BRANCH  24  25
ATOM     25  C   UNL     1     113.005 127.893 140.648  0.00  0.00    +0.000 C 
ATOM     26  C   UNL     1     113.605 128.221 141.109  0.00  0.00    +0.000 C 
BRANCH  26  28
ATOM     27  O   UNL     1     114.602 131.318 140.553  0.00  0.00    +0.000 OA
ATOM     28  C   UNL     1     113.855 128.995 140.970  0.00  0.00    +0.000 A 
ATOM     29  C   UNL     1     113.418 129.629 141.268  0.00  0.00    +0.000 A 
ATOM     30  C   UNL     1     114.541 129.135 140.533  0.00  0.00    +0.000 A 
ATOM     31  C   UNL     1     113.668 130.403 141.129  0.00  0.00    +0.000 A 
ATOM     32  C   UNL     1     114.789 129.910 140.394  0.00  0.00    +0.000 A 
ATOM     33  C   UNL     1     114.354 130.543 140.692  0.00  0.00    +0.000 A 
BRANCH  31  34
ATOM     34  O   UNL     1     113.231 131.037 141.427  0.00  0.00    +0.000 OA
ATOM     35  C   UNL     1     112.790 130.945 142.118  0.00  0.00    +0.000 C 
ENDBRANCH  31  34
ENDBRANCH  26  28
ENDBRANCH  24  25
ENDBRANCH  22  24
ENDBRANCH  16  22
ENDBRANCH  11  15
ENDBRANCH   4  11
BRANCH   7  36
ATOM     36  O   UNL     1     111.621 128.583 138.083  0.00  0.00    +0.000 OA
BRANCH  36  41
ATOM     37  O   UNL     1     111.881 130.696 137.604  0.00  0.00    +0.000 OA
ATOM     38  O   UNL     1     113.112 128.561 137.375  0.00  0.00    +0.000 OA
ATOM     39  O   UNL     1     114.217 129.232 136.735  0.00  0.00    +0.000 OA
ATOM     40  O   UNL     1     114.073 132.119 136.319  0.00  0.00    +0.000 OA
ATOM     41  C   UNL     1     111.957 129.283 137.805  0.00  0.00    +0.000 A 
ATOM     42  C   UNL     1     111.546 129.995 137.882  0.00  0.00    +0.000 A 
ATOM     43  C   UNL     1     112.701 129.272 137.452  0.00  0.00    +0.000 A 
ATOM     44  C   UNL     1     113.036 129.973 137.174  0.00  0.00    +0.000 A 
ATOM     45  C   UNL     1     112.627 130.685 137.250  0.00  0.00    +0.000 A 
ATOM     46  C   UNL     1     113.814 129.949 136.807  0.00  0.00    +0.000 A 
ATOM     47  C   UNL     1     112.965 131.422 136.965  0.00  0.00    +0.000 A 
ATOM     48  C   UNL     1     114.168 130.676 136.516  0.00  0.00    +0.000 A 
ATOM     49  C   UNL     1     113.741 131.417 136.596  0.00  0.00    +0.000 A 
BRANCH  42  52
ATOM     50  O   UNL     1     108.697 129.987 137.654  0.00  0.00    +0.000 OA
ATOM     51  O   UNL     1     108.565 130.040 139.298  0.00  0.00    +0.000 OA
ATOM     52  C   UNL     1     110.801 130.006 138.235  0.00  0.00    +0.000 A 
ATOM     53  C   UNL     1     110.122 129.991 137.768  0.00  0.00    +0.000 A 
ATOM     54  C   UNL     1     110.736 130.033 139.057  0.00  0.00    +0.000 A 
ATOM     55  C   UNL     1     109.377 130.002 138.121  0.00  0.00    +0.000 A 
ATOM     56  C   UNL     1     109.990 130.044 139.412  0.00  0.00    +0.000 A 
ATOM     57  C   UNL     1     109.311 130.029 138.943  0.00  0.00    +0.000 A 
ENDBRANCH  42  52
ENDBRANCH  36  41
ENDBRANCH   7  36
TORSDOF 12
ENDMDL
MODEL 5
REMARK VINA RESULT:      -9.7      1.530      4.755
REMARK  Name = 44259303
REMARK  12 active torsions:
REMARK  status: ('A' for Active; 'I' for Inactive)
REMARK    1  A    between atoms: O_1  and  C_21
REMARK    2  A    between atoms: O_1  and  C_23
REMARK    3  A    between atoms: O_4  and  C_24
REMARK    4  A    between atoms: O_4  and  C_34
REMARK    5  A    between atoms: O_6  and  C_27
REMARK    6  A    between atoms: O_6  and  C_33
REMARK    7  A    between atoms: O_19  and  C_54
REMARK    8  A    between atoms: C_29  and  C_31
REMARK    9  A    between atoms: C_30  and  C_32
REMARK   10  A    between atoms: C_34  and  C_37
REMARK   11  A    between atoms: C_35  and  C_39
REMARK   12  A    between atoms: C_42  and  C_48
REMARK                            x       y       z     vdW  Elec       q    Type
REMARK                         _______ _______ _______ _____ _____    ______ ____
ROOT
ATOM      1  O   UNL     1     110.908 130.264 138.400  0.00  0.00    +0.000 OA
ATOM      2  O   UNL     1     108.757 129.261 139.100  0.00  0.00    +0.000 OA
ATOM      3  O   UNL     1     108.817 130.843 138.636  0.00  0.00    +0.000 OA
ATOM      4  C   UNL     1     110.161 129.138 138.865  0.00  0.00    +0.000 C 
ATOM      5  C   UNL     1     109.474 129.596 138.867  0.00  0.00    +0.000 C 
ATOM      6  C   UNL     1     109.504 130.386 138.635  0.00  0.00    +0.000 C 
ATOM      7  C   UNL     1     110.878 129.473 138.632  0.00  0.00    +0.000 C 
ATOM      8  C   UNL     1     110.221 130.721 138.401  0.00  0.00    +0.000 C 
ENDROOT
BRANCH   8  10
ATOM      9  O   UNL     1     110.829 132.011 138.484  0.00  0.00    +0.000 OA
ATOM     10  C   UNL     1     110.252 131.512 138.169  0.00  0.00    +0.000 C 
ENDBRANCH   8  10
BRANCH   4  11
ATOM     11  O   UNL     1     110.131 128.348 139.097  0.00  0.00    +0.000 OA
BRANCH  11  15
ATOM     12  O   UNL     1     110.137 128.732 140.473  0.00  0.00    +0.000 OA
ATOM     13  O   UNL     1     109.541 126.420 141.123  0.00  0.00    +0.000 OA
ATOM     14  O   UNL     1     109.746 127.576 142.282  0.00  0.00    +0.000 OA
ATOM     15  C   UNL     1     110.034 128.155 139.893  0.00  0.00    +0.000 C 
ATOM     16  C   UNL     1     109.836 127.383 140.110  0.00  0.00    +0.000 C 
ATOM     17  C   UNL     1     109.739 127.190 140.907  0.00  0.00    +0.000 C 
ATOM     18  C   UNL     1     109.842 127.769 141.486  0.00  0.00    +0.000 C 
ATOM     19  C   UNL     1     110.040 128.539 141.270  0.00  0.00    +0.000 C 
BRANCH  19  21
ATOM     20  O   UNL     1     110.901 129.385 142.035  0.00  0.00    +0.000 OA
ATOM     21  C   UNL     1     110.143 129.118 141.849  0.00  0.00    +0.000 C 
ENDBRANCH  19  21
BRANCH  16  22
ATOM     22  O   UNL     1     109.733 126.806 139.530  0.00  0.00    +0.000 OA
BRANCH  22  24
ATOM     23  O   UNL     1     110.378 125.641 140.051  0.00  0.00    +0.000 OA
ATOM     24  C   UNL     1     110.287 126.199 139.451  0.00  0.00    +0.000 C 
BRANCH  24  25
ATOM     25  C   UNL     1     110.751 126.152 138.770  0.00  0.00    +0.000 C 
ATOM     26  C   UNL     1     111.127 125.443 138.576  0.00  0.00    +0.000 C 
BRANCH  26  28
ATOM     27  O   UNL     1     112.983 125.254 135.854  0.00  0.00    +0.000 OA
ATOM     28  C   UNL     1     111.591 125.395 137.895  0.00  0.00    +0.000 A 
ATOM     29  C   UNL     1     112.404 125.531 137.940  0.00  0.00    +0.000 A 
ATOM     30  C   UNL     1     111.242 125.212 137.170  0.00  0.00    +0.000 A 
ATOM     31  C   UNL     1     112.867 125.484 137.259  0.00  0.00    +0.000 A 
ATOM     32  C   UNL     1     111.707 125.165 136.490  0.00  0.00    +0.000 A 
ATOM     33  C   UNL     1     112.519 125.301 136.534  0.00  0.00    +0.000 A 
BRANCH  31  34
ATOM     34  O   UNL     1     113.680 125.620 137.304  0.00  0.00    +0.000 OA
ATOM     35  C   UNL     1     114.093 125.430 137.992  0.00  0.00    +0.000 C 
ENDBRANCH  31  34
ENDBRANCH  26  28
ENDBRANCH  24  25
ENDBRANCH  22  24
ENDBRANCH  16  22
ENDBRANCH  11  15
ENDBRANCH   4  11
BRANCH   7  36
ATOM     36  O   UNL     1     111.565 129.016 138.630  0.00  0.00    +0.000 OA
BRANCH  36  41
ATOM     37  O   UNL     1     113.417 129.255 137.500  0.00  0.00    +0.000 OA
ATOM     38  O   UNL     1     111.015 128.822 137.087  0.00  0.00    +0.000 OA
ATOM     39  O   UNL     1     111.240 128.767 135.663  0.00  0.00    +0.000 OA
ATOM     40  O   UNL     1     113.947 129.157 134.638  0.00  0.00    +0.000 OA
ATOM     41  C   UNL     1     112.091 129.064 137.996  0.00  0.00    +0.000 A 
ATOM     42  C   UNL     1     112.891 129.208 138.134  0.00  0.00    +0.000 A 
ATOM     43  C   UNL     1     111.816 128.967 137.225  0.00  0.00    +0.000 A 
ATOM     44  C   UNL     1     112.341 129.014 136.591  0.00  0.00    +0.000 A 
ATOM     45  C   UNL     1     113.142 129.158 136.728  0.00  0.00    +0.000 A 
ATOM     46  C   UNL     1     112.043 128.911 135.791  0.00  0.00    +0.000 A 
ATOM     47  C   UNL     1     113.700 129.210 136.076  0.00  0.00    +0.000 A 
ATOM     48  C   UNL     1     112.586 128.959 135.127  0.00  0.00    +0.000 A 
ATOM     49  C   UNL     1     113.419 129.109 135.270  0.00  0.00    +0.000 A 
BRANCH  42  52
ATOM     50  O   UNL     1     113.699 130.918 140.277  0.00  0.00    +0.000 OA
ATOM     51  O   UNL     1     113.992 129.596 141.221  0.00  0.00    +0.000 OA
ATOM     52  C   UNL     1     113.166 129.305 138.905  0.00  0.00    +0.000 A 
ATOM     53  C   UNL     1     113.295 130.063 139.206  0.00  0.00    +0.000 A 
ATOM     54  C   UNL     1     113.312 128.645 139.377  0.00  0.00    +0.000 A 
ATOM     55  C   UNL     1     113.570 130.160 139.977  0.00  0.00    +0.000 A 
ATOM     56  C   UNL     1     113.588 128.742 140.150  0.00  0.00    +0.000 A 
ATOM     57  C   UNL     1     113.716 129.499 140.449  0.00  0.00    +0.000 A 
ENDBRANCH  42  52
ENDBRANCH  36  41
ENDBRANCH   7  36
TORSDOF 12
ENDMDL
MODEL 6
REMARK VINA RESULT:      -9.7      1.652      3.673
REMARK  Name = 44259303
REMARK  12 active torsions:
REMARK  status: ('A' for Active; 'I' for Inactive)
REMARK    1  A    between atoms: O_1  and  C_21
REMARK    2  A    between atoms: O_1  and  C_23
REMARK    3  A    between atoms: O_4  and  C_24
REMARK    4  A    between atoms: O_4  and  C_34
REMARK    5  A    between atoms: O_6  and  C_27
REMARK    6  A    between atoms: O_6  and  C_33
REMARK    7  A    between atoms: O_19  and  C_54
REMARK    8  A    between atoms: C_29  and  C_31
REMARK    9  A    between atoms: C_30  and  C_32
REMARK   10  A    between atoms: C_34  and  C_37
REMARK   11  A    between atoms: C_35  and  C_39
REMARK   12  A    between atoms: C_42  and  C_48
REMARK                            x       y       z     vdW  Elec       q    Type
REMARK                         _______ _______ _______ _____ _____    ______ ____
ROOT
ATOM      1  O   UNL     1     111.293 126.955 136.283  0.00  0.00    +0.000 OA
ATOM      2  O   UNL     1     111.470 129.292 135.489  0.00  0.00    +0.000 OA
ATOM      3  O   UNL     1     110.602 128.190 134.622  0.00  0.00    +0.000 OA
ATOM      4  C   UNL     1     111.787 128.286 136.452  0.00  0.00    +0.000 C 
ATOM      5  C   UNL     1     111.411 128.513 135.753  0.00  0.00    +0.000 C 
ATOM      6  C   UNL     1     110.977 127.962 135.320  0.00  0.00    +0.000 C 
ATOM      7  C   UNL     1     111.728 127.507 136.717  0.00  0.00    +0.000 C 
ATOM      8  C   UNL     1     110.918 127.183 135.585  0.00  0.00    +0.000 C 
ENDROOT
BRANCH   8  10
ATOM      9  O   UNL     1     110.834 125.920 134.921  0.00  0.00    +0.000 OA
ATOM     10  C   UNL     1     110.484 126.631 135.152  0.00  0.00    +0.000 C 
ENDBRANCH   8  10
BRANCH   4  11
ATOM     11  O   UNL     1     112.221 128.836 136.886  0.00  0.00    +0.000 OA
BRANCH  11  15
ATOM     12  O   UNL     1     113.342 128.687 136.012  0.00  0.00    +0.000 OA
ATOM     13  O   UNL     1     114.320 130.776 136.909  0.00  0.00    +0.000 OA
ATOM     14  O   UNL     1     115.114 129.929 135.736  0.00  0.00    +0.000 OA
ATOM     15  C   UNL     1     112.944 129.110 136.598  0.00  0.00    +0.000 C 
ATOM     16  C   UNL     1     113.271 129.807 136.897  0.00  0.00    +0.000 C 
ATOM     17  C   UNL     1     113.994 130.080 136.610  0.00  0.00    +0.000 C 
ATOM     18  C   UNL     1     114.391 129.656 136.023  0.00  0.00    +0.000 C 
ATOM     19  C   UNL     1     114.065 128.960 135.724  0.00  0.00    +0.000 C 
BRANCH  19  21
ATOM     20  O   UNL     1     114.830 127.822 135.323  0.00  0.00    +0.000 OA
ATOM     21  C   UNL     1     114.462 128.537 135.138  0.00  0.00    +0.000 C 
ENDBRANCH  19  21
BRANCH  16  22
ATOM     22  O   UNL     1     112.873 130.229 137.484  0.00  0.00    +0.000 OA
BRANCH  22  24
ATOM     23  O   UNL     1     113.729 130.988 138.341  0.00  0.00    +0.000 OA
ATOM     24  C   UNL     1     113.228 130.345 138.220  0.00  0.00    +0.000 C 
BRANCH  24  25
ATOM     25  C   UNL     1     113.079 129.816 138.836  0.00  0.00    +0.000 C 
ATOM     26  C   UNL     1     112.927 130.100 139.596  0.00  0.00    +0.000 C 
BRANCH  26  28
ATOM     27  O   UNL     1     112.333 127.985 142.059  0.00  0.00    +0.000 OA
ATOM     28  C   UNL     1     112.779 129.571 140.211  0.00  0.00    +0.000 A 
ATOM     29  C   UNL     1     112.045 129.573 140.589  0.00  0.00    +0.000 A 
ATOM     30  C   UNL     1     113.365 129.041 140.450  0.00  0.00    +0.000 A 
ATOM     31  C   UNL     1     111.897 129.044 141.204  0.00  0.00    +0.000 A 
ATOM     32  C   UNL     1     113.215 128.513 141.066  0.00  0.00    +0.000 A 
ATOM     33  C   UNL     1     112.482 128.514 141.443  0.00  0.00    +0.000 A 
BRANCH  31  34
ATOM     34  O   UNL     1     111.162 129.046 141.581  0.00  0.00    +0.000 OA
ATOM     35  C   UNL     1     110.645 129.679 141.473  0.00  0.00    +0.000 C 
ENDBRANCH  31  34
ENDBRANCH  26  28
ENDBRANCH  24  25
ENDBRANCH  22  24
ENDBRANCH  16  22
ENDBRANCH  11  15
ENDBRANCH   4  11
BRANCH   7  36
ATOM     36  O   UNL     1     112.103 127.278 137.415  0.00  0.00    +0.000 OA
BRANCH  36  41
ATOM     37  O   UNL     1     111.610 125.690 138.829  0.00  0.00    +0.000 OA
ATOM     38  O   UNL     1     110.634 127.794 137.963  0.00  0.00    +0.000 OA
ATOM     39  O   UNL     1     109.469 127.630 138.798  0.00  0.00    +0.000 OA
ATOM     40  O   UNL     1     109.288 125.294 140.541  0.00  0.00    +0.000 OA
ATOM     41  C   UNL     1     111.694 126.835 137.978  0.00  0.00    +0.000 A 
ATOM     42  C   UNL     1     112.019 126.134 138.266  0.00  0.00    +0.000 A 
ATOM     43  C   UNL     1     110.960 127.092 138.252  0.00  0.00    +0.000 A 
ATOM     44  C   UNL     1     110.551 126.649 138.814  0.00  0.00    +0.000 A 
ATOM     45  C   UNL     1     110.875 125.948 139.103  0.00  0.00    +0.000 A 
ATOM     46  C   UNL     1     109.786 126.927 139.092  0.00  0.00    +0.000 A 
ATOM     47  C   UNL     1     110.460 125.477 139.689  0.00  0.00    +0.000 A 
ATOM     48  C   UNL     1     109.356 126.470 139.678  0.00  0.00    +0.000 A 
ATOM     49  C   UNL     1     109.695 125.740 139.978  0.00  0.00    +0.000 A 
BRANCH  42  52
ATOM     50  O   UNL     1     113.571 124.470 136.536  0.00  0.00    +0.000 OA
ATOM     51  O   UNL     1     114.957 125.103 137.171  0.00  0.00    +0.000 OA
ATOM     52  C   UNL     1     112.753 125.876 137.992  0.00  0.00    +0.000 A 
ATOM     53  C   UNL     1     112.795 125.302 137.401  0.00  0.00    +0.000 A 
ATOM     54  C   UNL     1     113.446 126.192 138.310  0.00  0.00    +0.000 A 
ATOM     55  C   UNL     1     113.529 125.044 137.128  0.00  0.00    +0.000 A 
ATOM     56  C   UNL     1     114.181 125.935 138.036  0.00  0.00    +0.000 A 
ATOM     57  C   UNL     1     114.222 125.361 137.445  0.00  0.00    +0.000 A 
ENDBRANCH  42  52
ENDBRANCH  36  41
ENDBRANCH   7  36
TORSDOF 12
ENDMDL
MODEL 7
REMARK VINA RESULT:      -9.7      1.492      3.152
REMARK  Name = 44259303
REMARK  12 active torsions:
REMARK  status: ('A' for Active; 'I' for Inactive)
REMARK    1  A    between atoms: O_1  and  C_21
REMARK    2  A    between atoms: O_1  and  C_23
REMARK    3  A    between atoms: O_4  and  C_24
REMARK    4  A    between atoms: O_4  and  C_34
REMARK    5  A    between atoms: O_6  and  C_27
REMARK    6  A    between atoms: O_6  and  C_33
REMARK    7  A    between atoms: O_19  and  C_54
REMARK    8  A    between atoms: C_29  and  C_31
REMARK    9  A    between atoms: C_30  and  C_32
REMARK   10  A    between atoms: C_34  and  C_37
REMARK   11  A    between atoms: C_35  and  C_39
REMARK   12  A    between atoms: C_42  and  C_48
REMARK                            x       y       z     vdW  Elec       q    Type
REMARK                         _______ _______ _______ _____ _____    ______ ____
ROOT
ATOM      1  O   UNL     1     110.882 128.826 136.810  0.00  0.00    +0.000 OA
ATOM      2  O   UNL     1     109.332 129.076 138.724  0.00  0.00    +0.000 OA
ATOM      3  O   UNL     1     108.822 129.434 137.197  0.00  0.00    +0.000 OA
ATOM      4  C   UNL     1     110.620 128.729 138.212  0.00  0.00    +0.000 C 
ATOM      5  C   UNL     1     109.849 128.992 138.086  0.00  0.00    +0.000 C 
ATOM      6  C   UNL     1     109.593 129.172 137.323  0.00  0.00    +0.000 C 
ATOM      7  C   UNL     1     111.137 128.646 137.575  0.00  0.00    +0.000 C 
ATOM      8  C   UNL     1     110.110 129.088 136.685  0.00  0.00    +0.000 C 
ENDROOT
BRANCH   8  10
ATOM      9  O   UNL     1     109.814 128.673 135.350  0.00  0.00    +0.000 OA
ATOM     10  C   UNL     1     109.856 129.268 135.921  0.00  0.00    +0.000 C 
ENDBRANCH   8  10
BRANCH   4  11
ATOM     11  O   UNL     1     110.875 128.550 138.976  0.00  0.00    +0.000 OA
BRANCH  11  15
ATOM     12  O   UNL     1     110.278 127.255 138.879  0.00  0.00    +0.000 OA
ATOM     13  O   UNL     1     110.770 126.848 141.269  0.00  0.00    +0.000 OA
ATOM     14  O   UNL     1     110.008 125.690 140.375  0.00  0.00    +0.000 OA
ATOM     15  C   UNL     1     110.659 127.835 139.325  0.00  0.00    +0.000 C 
ATOM     16  C   UNL     1     110.823 127.699 140.123  0.00  0.00    +0.000 C 
ATOM     17  C   UNL     1     110.606 126.984 140.473  0.00  0.00    +0.000 C 
ATOM     18  C   UNL     1     110.225 126.405 140.025  0.00  0.00    +0.000 C 
ATOM     19  C   UNL     1     110.061 126.540 139.229  0.00  0.00    +0.000 C 
BRANCH  19  21
ATOM     20  O   UNL     1     108.882 126.048 138.588  0.00  0.00    +0.000 OA
ATOM     21  C   UNL     1     109.680 125.961 138.781  0.00  0.00    +0.000 C 
ENDBRANCH  19  21
BRANCH  16  22
ATOM     22  O   UNL     1     111.204 128.278 140.570  0.00  0.00    +0.000 OA
BRANCH  22  24
ATOM     23  O   UNL     1     112.337 127.489 140.940  0.00  0.00    +0.000 OA
ATOM     24  C   UNL     1     112.013 128.216 140.722  0.00  0.00    +0.000 C 
BRANCH  24  25
ATOM     25  C   UNL     1     112.497 128.880 140.655  0.00  0.00    +0.000 C 
ATOM     26  C   UNL     1     113.210 128.914 141.071  0.00  0.00    +0.000 C 
BRANCH  26  28
ATOM     27  O   UNL     1     115.145 131.574 140.807  0.00  0.00    +0.000 OA
ATOM     28  C   UNL     1     113.694 129.579 141.004  0.00  0.00    +0.000 A 
ATOM     29  C   UNL     1     113.557 130.237 141.483  0.00  0.00    +0.000 A 
ATOM     30  C   UNL     1     114.314 129.585 140.460  0.00  0.00    +0.000 A 
ATOM     31  C   UNL     1     114.042 130.902 141.417  0.00  0.00    +0.000 A 
ATOM     32  C   UNL     1     114.797 130.251 140.394  0.00  0.00    +0.000 A 
ATOM     33  C   UNL     1     114.661 130.909 140.872  0.00  0.00    +0.000 A 
BRANCH  31  34
ATOM     34  O   UNL     1     113.905 131.560 141.896  0.00  0.00    +0.000 OA
ATOM     35  C   UNL     1     113.309 131.540 142.466  0.00  0.00    +0.000 C 
ENDBRANCH  31  34
ENDBRANCH  26  28
ENDBRANCH  24  25
ENDBRANCH  22  24
ENDBRANCH  16  22
ENDBRANCH  11  15
ENDBRANCH   4  11
BRANCH   7  36
ATOM     36  O   UNL     1     111.909 128.383 137.700  0.00  0.00    +0.000 OA
BRANCH  36  41
ATOM     37  O   UNL     1     113.684 128.582 136.446  0.00  0.00    +0.000 OA
ATOM     38  O   UNL     1     112.108 130.021 137.699  0.00  0.00    +0.000 OA
ATOM     39  O   UNL     1     112.821 131.207 137.291  0.00  0.00    +0.000 OA
ATOM     40  O   UNL     1     115.173 130.931 135.583  0.00  0.00    +0.000 OA
ATOM     41  C   UNL     1     112.534 128.723 137.282  0.00  0.00    +0.000 A 
ATOM     42  C   UNL     1     113.059 128.242 136.864  0.00  0.00    +0.000 A 
ATOM     43  C   UNL     1     112.633 129.541 137.282  0.00  0.00    +0.000 A 
ATOM     44  C   UNL     1     113.258 129.880 136.864  0.00  0.00    +0.000 A 
ATOM     45  C   UNL     1     113.784 129.401 136.446  0.00  0.00    +0.000 A 
ATOM     46  C   UNL     1     113.351 130.735 136.871  0.00  0.00    +0.000 A 
ATOM     47  C   UNL     1     114.439 129.742 136.006  0.00  0.00    +0.000 A 
ATOM     48  C   UNL     1     114.000 131.094 136.437  0.00  0.00    +0.000 A 
ATOM     49  C   UNL     1     114.547 130.595 136.002  0.00  0.00    +0.000 A 
BRANCH  42  52
ATOM     50  O   UNL     1     113.472 125.699 138.101  0.00  0.00    +0.000 OA
ATOM     51  O   UNL     1     112.661 124.966 136.864  0.00  0.00    +0.000 OA
ATOM     52  C   UNL     1     112.960 127.424 136.864  0.00  0.00    +0.000 A 
ATOM     53  C   UNL     1     113.265 126.971 137.483  0.00  0.00    +0.000 A 
ATOM     54  C   UNL     1     112.555 127.058 136.246  0.00  0.00    +0.000 A 
ATOM     55  C   UNL     1     113.166 126.152 137.483  0.00  0.00    +0.000 A 
ATOM     56  C   UNL     1     112.455 126.238 136.246  0.00  0.00    +0.000 A 
ATOM     57  C   UNL     1     112.761 125.786 136.864  0.00  0.00    +0.000 A 
ENDBRANCH  42  52
ENDBRANCH  36  41
ENDBRANCH   7  36
TORSDOF 12
ENDMDL
MODEL 8
REMARK VINA RESULT:      -9.6      1.755      5.048
REMARK  Name = 44259303
REMARK  12 active torsions:
REMARK  status: ('A' for Active; 'I' for Inactive)
REMARK    1  A    between atoms: O_1  and  C_21
REMARK    2  A    between atoms: O_1  and  C_23
REMARK    3  A    between atoms: O_4  and  C_24
REMARK    4  A    between atoms: O_4  and  C_34
REMARK    5  A    between atoms: O_6  and  C_27
REMARK    6  A    between atoms: O_6  and  C_33
REMARK    7  A    between atoms: O_19  and  C_54
REMARK    8  A    between atoms: C_29  and  C_31
REMARK    9  A    between atoms: C_30  and  C_32
REMARK   10  A    between atoms: C_34  and  C_37
REMARK   11  A    between atoms: C_35  and  C_39
REMARK   12  A    between atoms: C_42  and  C_48
REMARK                            x       y       z     vdW  Elec       q    Type
REMARK                         _______ _______ _______ _____ _____    ______ ____
ROOT
ATOM      1  O   UNL     1     112.818 129.521 136.321  0.00  0.00    +0.000 OA
ATOM      2  O   UNL     1     113.195 131.229 138.073  0.00  0.00    +0.000 OA
ATOM      3  O   UNL     1     114.254 131.088 136.816  0.00  0.00    +0.000 OA
ATOM      4  C   UNL     1     112.414 130.161 137.534  0.00  0.00    +0.000 C 
ATOM      5  C   UNL     1     113.070 130.660 137.489  0.00  0.00    +0.000 C 
ATOM      6  C   UNL     1     113.599 130.590 136.861  0.00  0.00    +0.000 C 
ATOM      7  C   UNL     1     112.288 129.592 136.950  0.00  0.00    +0.000 C 
ATOM      8  C   UNL     1     113.474 130.020 136.277  0.00  0.00    +0.000 C 
ENDROOT
BRANCH   8  10
ATOM      9  O   UNL     1     113.721 129.918 134.874  0.00  0.00    +0.000 OA
ATOM     10  C   UNL     1     114.003 129.949 135.649  0.00  0.00    +0.000 C 
ENDBRANCH   8  10
BRANCH   4  11
ATOM     11  O   UNL     1     111.884 130.231 138.162  0.00  0.00    +0.000 OA
BRANCH  11  15
ATOM     12  O   UNL     1     111.265 131.356 137.534  0.00  0.00    +0.000 OA
ATOM     13  O   UNL     1     110.017 131.832 139.617  0.00  0.00    +0.000 OA
ATOM     14  O   UNL     1     109.814 132.798 138.294  0.00  0.00    +0.000 OA
ATOM     15  C   UNL     1     111.367 130.873 138.195  0.00  0.00    +0.000 C 
ATOM     16  C   UNL     1     110.950 131.032 138.890  0.00  0.00    +0.000 C 
ATOM     17  C   UNL     1     110.432 131.674 138.923  0.00  0.00    +0.000 C 
ATOM     18  C   UNL     1     110.332 132.156 138.261  0.00  0.00    +0.000 C 
ATOM     19  C   UNL     1     110.748 131.998 137.567  0.00  0.00    +0.000 C 
BRANCH  19  21
ATOM     20  O   UNL     1     110.164 132.232 136.285  0.00  0.00    +0.000 OA
ATOM     21  C   UNL     1     110.647 132.480 136.906  0.00  0.00    +0.000 C 
ENDBRANCH  19  21
BRANCH  16  22
ATOM     22  O   UNL     1     111.051 130.549 139.551  0.00  0.00    +0.000 OA
BRANCH  22  24
ATOM     23  O   UNL     1     109.790 130.430 140.212  0.00  0.00    +0.000 OA
ATOM     24  C   UNL     1     110.426 130.082 139.819  0.00  0.00    +0.000 C 
BRANCH  24  25
ATOM     25  C   UNL     1     110.438 129.266 139.695  0.00  0.00    +0.000 C 
ATOM     26  C   UNL     1     110.283 128.751 140.321  0.00  0.00    +0.000 C 
BRANCH  26  28
ATOM     27  O   UNL     1     110.334 125.489 139.824  0.00  0.00    +0.000 OA
ATOM     28  C   UNL     1     110.295 127.936 140.197  0.00  0.00    +0.000 A 
ATOM     29  C   UNL     1     110.915 127.482 140.500  0.00  0.00    +0.000 A 
ATOM     30  C   UNL     1     109.689 127.574 139.770  0.00  0.00    +0.000 A 
ATOM     31  C   UNL     1     110.927 126.667 140.375  0.00  0.00    +0.000 A 
ATOM     32  C   UNL     1     109.702 126.758 139.646  0.00  0.00    +0.000 A 
ATOM     33  C   UNL     1     110.321 126.305 139.948  0.00  0.00    +0.000 A 
BRANCH  31  34
ATOM     34  O   UNL     1     111.547 126.213 140.678  0.00  0.00    +0.000 OA
ATOM     35  C   UNL     1     112.191 126.582 141.038  0.00  0.00    +0.000 C 
ENDBRANCH  31  34
ENDBRANCH  26  28
ENDBRANCH  24  25
ENDBRANCH  22  24
ENDBRANCH  16  22
ENDBRANCH  11  15
ENDBRANCH   4  11
BRANCH   7  36
ATOM     36  O   UNL     1     111.633 129.093 136.994  0.00  0.00    +0.000 OA
BRANCH  36  41
ATOM     37  O   UNL     1     111.265 127.150 136.070  0.00  0.00    +0.000 OA
ATOM     38  O   UNL     1     112.820 128.186 137.694  0.00  0.00    +0.000 OA
ATOM     39  O   UNL     1     113.514 126.933 137.873  0.00  0.00    +0.000 OA
ATOM     40  O   UNL     1     112.617 124.589 136.380  0.00  0.00    +0.000 OA
ATOM     41  C   UNL     1     111.708 128.294 136.803  0.00  0.00    +0.000 A 
ATOM     42  C   UNL     1     111.190 127.949 136.262  0.00  0.00    +0.000 A 
ATOM     43  C   UNL     1     112.302 127.841 137.153  0.00  0.00    +0.000 A 
ATOM     44  C   UNL     1     112.377 127.042 136.961  0.00  0.00    +0.000 A 
ATOM     45  C   UNL     1     111.859 126.696 136.420  0.00  0.00    +0.000 A 
ATOM     46  C   UNL     1     113.000 126.579 137.332  0.00  0.00    +0.000 A 
ATOM     47  C   UNL     1     111.927 125.865 136.212  0.00  0.00    +0.000 A 
ATOM     48  C   UNL     1     113.083 125.747 137.137  0.00  0.00    +0.000 A 
ATOM     49  C   UNL     1     112.544 125.388 136.573  0.00  0.00    +0.000 A 
BRANCH  42  52
ATOM     50  O   UNL     1     108.580 129.110 136.358  0.00  0.00    +0.000 OA
ATOM     51  O   UNL     1     108.815 129.763 134.861  0.00  0.00    +0.000 OA
ATOM     52  C   UNL     1     110.596 128.402 135.912  0.00  0.00    +0.000 A 
ATOM     53  C   UNL     1     109.885 128.530 136.310  0.00  0.00    +0.000 A 
ATOM     54  C   UNL     1     110.714 128.729 135.164  0.00  0.00    +0.000 A 
ATOM     55  C   UNL     1     109.291 128.983 135.960  0.00  0.00    +0.000 A 
ATOM     56  C   UNL     1     110.120 129.183 134.813  0.00  0.00    +0.000 A 
ATOM     57  C   UNL     1     109.409 129.309 135.212  0.00  0.00    +0.000 A 
ENDBRANCH  42  52
ENDBRANCH  36  41
ENDBRANCH   7  36
TORSDOF 12
ENDMDL
MODEL 9
REMARK VINA RESULT:      -9.5      1.520      4.972
REMARK  Name = 44259303
REMARK  12 active torsions:
REMARK  status: ('A' for Active; 'I' for Inactive)
REMARK    1  A    between atoms: O_1  and  C_21
REMARK    2  A    between atoms: O_1  and  C_23
REMARK    3  A    between atoms: O_4  and  C_24
REMARK    4  A    between atoms: O_4  and  C_34
REMARK    5  A    between atoms: O_6  and  C_27
REMARK    6  A    between atoms: O_6  and  C_33
REMARK    7  A    between atoms: O_19  and  C_54
REMARK    8  A    between atoms: C_29  and  C_31
REMARK    9  A    between atoms: C_30  and  C_32
REMARK   10  A    between atoms: C_34  and  C_37
REMARK   11  A    between atoms: C_35  and  C_39
REMARK   12  A    between atoms: C_42  and  C_48
REMARK                            x       y       z     vdW  Elec       q    Type
REMARK                         _______ _______ _______ _____ _____    ______ ____
ROOT
ATOM      1  O   UNL     1     110.805 129.501 138.993  0.00  0.00    +0.000 OA
ATOM      2  O   UNL     1     111.154 130.406 136.716  0.00  0.00    +0.000 OA
ATOM      3  O   UNL     1     110.047 131.104 137.720  0.00  0.00    +0.000 OA
ATOM      4  C   UNL     1     111.475 129.454 137.731  0.00  0.00    +0.000 C 
ATOM      5  C   UNL     1     111.038 130.105 137.475  0.00  0.00    +0.000 C 
ATOM      6  C   UNL     1     110.484 130.453 137.977  0.00  0.00    +0.000 C 
ATOM      7  C   UNL     1     111.359 129.152 138.490  0.00  0.00    +0.000 C 
ATOM      8  C   UNL     1     110.368 130.152 138.736  0.00  0.00    +0.000 C 
ENDROOT
BRANCH   8  10
ATOM      9  O   UNL     1     110.046 130.765 139.986  0.00  0.00    +0.000 OA
ATOM     10  C   UNL     1     109.815 130.500 139.239  0.00  0.00    +0.000 C 
ENDBRANCH   8  10
BRANCH   4  11
ATOM     11  O   UNL     1     112.028 129.105 137.229  0.00  0.00    +0.000 OA
BRANCH  11  15
ATOM     12  O   UNL     1     112.964 130.147 137.516  0.00  0.00    +0.000 OA
ATOM     13  O   UNL     1     114.442 129.317 135.714  0.00  0.00    +0.000 OA
ATOM     14  O   UNL     1     114.884 130.636 136.602  0.00  0.00    +0.000 OA
ATOM     15  C   UNL     1     112.742 129.488 137.072  0.00  0.00    +0.000 C 
ATOM     16  C   UNL     1     113.236 129.211 136.471  0.00  0.00    +0.000 C 
ATOM     17  C   UNL     1     113.950 129.594 136.314  0.00  0.00    +0.000 C 
ATOM     18  C   UNL     1     114.170 130.253 136.759  0.00  0.00    +0.000 C 
ATOM     19  C   UNL     1     113.677 130.529 137.360  0.00  0.00    +0.000 C 
BRANCH  19  21
ATOM     20  O   UNL     1     114.067 131.106 138.608  0.00  0.00    +0.000 OA
ATOM     21  C   UNL     1     113.898 131.189 137.804  0.00  0.00    +0.000 C 
ENDBRANCH  19  21
BRANCH  16  22
ATOM     22  O   UNL     1     113.015 128.552 136.027  0.00  0.00    +0.000 OA
BRANCH  22  24
ATOM     23  O   UNL     1     114.209 127.775 135.910  0.00  0.00    +0.000 OA
ATOM     24  C   UNL     1     113.415 127.836 136.125  0.00  0.00    +0.000 C 
BRANCH  24  25
ATOM     25  C   UNL     1     113.020 127.183 136.437  0.00  0.00    +0.000 C 
ATOM     26  C   UNL     1     113.195 126.425 136.162  0.00  0.00    +0.000 C 
BRANCH  26  28
ATOM     27  O   UNL     1     111.612 123.812 137.409  0.00  0.00    +0.000 OA
ATOM     28  C   UNL     1     112.800 125.771 136.474  0.00  0.00    +0.000 A 
ATOM     29  C   UNL     1     112.090 125.519 136.136  0.00  0.00    +0.000 A 
ATOM     30  C   UNL     1     113.113 125.371 137.124  0.00  0.00    +0.000 A 
ATOM     31  C   UNL     1     111.695 124.865 136.448  0.00  0.00    +0.000 A 
ATOM     32  C   UNL     1     112.716 124.718 137.435  0.00  0.00    +0.000 A 
ATOM     33  C   UNL     1     112.008 124.465 137.098  0.00  0.00    +0.000 A 
BRANCH  31  34
ATOM     34  O   UNL     1     110.985 124.613 136.110  0.00  0.00    +0.000 OA
ATOM     35  C   UNL     1     110.594 125.092 135.565  0.00  0.00    +0.000 C 
ENDBRANCH  31  34
ENDBRANCH  26  28
ENDBRANCH  24  25
ENDBRANCH  22  24
ENDBRANCH  16  22
ENDBRANCH  11  15
ENDBRANCH   4  11
BRANCH   7  36
ATOM     36  O   UNL     1     111.796 128.502 138.747  0.00  0.00    +0.000 OA
BRANCH  36  41
ATOM     37  O   UNL     1     111.398 127.071 140.347  0.00  0.00    +0.000 OA
ATOM     38  O   UNL     1     110.409 127.798 138.197  0.00  0.00    +0.000 OA
ATOM     39  O   UNL     1     109.329 126.852 138.341  0.00  0.00    +0.000 OA
ATOM     40  O   UNL     1     109.249 125.138 140.704  0.00  0.00    +0.000 OA
ATOM     41  C   UNL     1     111.432 127.908 139.189  0.00  0.00    +0.000 A 
ATOM     42  C   UNL     1     111.762 127.665 139.905  0.00  0.00    +0.000 A 
ATOM     43  C   UNL     1     110.739 127.556 138.914  0.00  0.00    +0.000 A 
ATOM     44  C   UNL     1     110.374 126.962 139.356  0.00  0.00    +0.000 A 
ATOM     45  C   UNL     1     110.703 126.719 140.072  0.00  0.00    +0.000 A 
ATOM     46  C   UNL     1     109.651 126.603 139.059  0.00  0.00    +0.000 A 
ATOM     47  C   UNL     1     110.334 126.102 140.541  0.00  0.00    +0.000 A 
ATOM     48  C   UNL     1     109.268 125.984 139.514  0.00  0.00    +0.000 A 
ATOM     49  C   UNL     1     109.611 125.732 140.260  0.00  0.00    +0.000 A 
BRANCH  42  52
ATOM     50  O   UNL     1     113.073 129.600 141.550  0.00  0.00    +0.000 OA
ATOM     51  O   UNL     1     114.538 129.071 141.005  0.00  0.00    +0.000 OA
ATOM     52  C   UNL     1     112.455 128.017 140.180  0.00  0.00    +0.000 A 
ATOM     53  C   UNL     1     112.418 128.633 140.728  0.00  0.00    +0.000 A 
ATOM     54  C   UNL     1     113.188 127.752 139.908  0.00  0.00    +0.000 A 
ATOM     55  C   UNL     1     113.111 128.984 141.003  0.00  0.00    +0.000 A 
ATOM     56  C   UNL     1     113.882 128.104 140.183  0.00  0.00    +0.000 A 
ATOM     57  C   UNL     1     113.843 128.719 140.730  0.00  0.00    +0.000 A 
ENDBRANCH  42  52
ENDBRANCH  36  41
ENDBRANCH   7  36
TORSDOF 12
ENDMDL
MODEL 10
REMARK VINA RESULT:      -9.5      1.680      5.086
REMARK  Name = 44259303
REMARK  12 active torsions:
REMARK  status: ('A' for Active; 'I' for Inactive)
REMARK    1  A    between atoms: O_1  and  C_21
REMARK    2  A    between atoms: O_1  and  C_23
REMARK    3  A    between atoms: O_4  and  C_24
REMARK    4  A    between atoms: O_4  and  C_34
REMARK    5  A    between atoms: O_6  and  C_27
REMARK    6  A    between atoms: O_6  and  C_33
REMARK    7  A    between atoms: O_19  and  C_54
REMARK    8  A    between atoms: C_29  and  C_31
REMARK    9  A    between atoms: C_30  and  C_32
REMARK   10  A    between atoms: C_34  and  C_37
REMARK   11  A    between atoms: C_35  and  C_39
REMARK   12  A    between atoms: C_42  and  C_48
REMARK                            x       y       z     vdW  Elec       q    Type
REMARK                         _______ _______ _______ _____ _____    ______ ____
ROOT
ATOM      1  O   UNL     1     113.029 129.552 139.566  0.00  0.00    +0.000 OA
ATOM      2  O   UNL     1     113.243 127.795 141.296  0.00  0.00    +0.000 OA
ATOM      3  O   UNL     1     114.336 129.028 141.233  0.00  0.00    +0.000 OA
ATOM      4  C   UNL     1     112.552 128.349 140.174  0.00  0.00    +0.000 C 
ATOM      5  C   UNL     1     113.171 128.381 140.719  0.00  0.00    +0.000 C 
ATOM      6  C   UNL     1     113.718 128.997 140.688  0.00  0.00    +0.000 C 
ATOM      7  C   UNL     1     112.481 128.935 139.598  0.00  0.00    +0.000 C 
ATOM      8  C   UNL     1     113.647 129.582 140.112  0.00  0.00    +0.000 C 
ENDROOT
BRANCH   8  10
ATOM      9  O   UNL     1     113.942 130.979 140.185  0.00  0.00    +0.000 OA
ATOM     10  C   UNL     1     114.193 130.199 140.080  0.00  0.00    +0.000 C 
ENDBRANCH   8  10
BRANCH   4  11
ATOM     11  O   UNL     1     112.006 127.733 140.206  0.00  0.00    +0.000 OA
BRANCH  11  15
ATOM     12  O   UNL     1     111.299 128.383 141.264  0.00  0.00    +0.000 OA
ATOM     13  O   UNL     1     110.045 126.298 141.710  0.00  0.00    +0.000 OA
ATOM     14  O   UNL     1     109.757 127.644 142.620  0.00  0.00    +0.000 OA
ATOM     15  C   UNL     1     111.444 127.711 140.809  0.00  0.00    +0.000 C 
ATOM     16  C   UNL     1     111.025 127.015 140.958  0.00  0.00    +0.000 C 
ATOM     17  C   UNL     1     110.463 126.993 141.562  0.00  0.00    +0.000 C 
ATOM     18  C   UNL     1     110.319 127.666 142.016  0.00  0.00    +0.000 C 
ATOM     19  C   UNL     1     110.737 128.361 141.868  0.00  0.00    +0.000 C 
BRANCH  19  21
ATOM     20  O   UNL     1     110.132 129.646 142.018  0.00  0.00    +0.000 OA
ATOM     21  C   UNL     1     110.594 129.035 142.323  0.00  0.00    +0.000 C 
ENDBRANCH  19  21
BRANCH  16  22
ATOM     22  O   UNL     1     111.169 126.342 140.503  0.00  0.00    +0.000 OA
BRANCH  22  24
ATOM     23  O   UNL     1     109.939 125.633 140.331  0.00  0.00    +0.000 OA
ATOM     24  C   UNL     1     110.578 126.045 140.009  0.00  0.00    +0.000 C 
BRANCH  24  25
ATOM     25  C   UNL     1     110.627 126.159 139.194  0.00  0.00    +0.000 C 
ATOM     26  C   UNL     1     110.520 125.520 138.681  0.00  0.00    +0.000 C 
BRANCH  26  28
ATOM     27  O   UNL     1     110.717 125.975 135.418  0.00  0.00    +0.000 OA
ATOM     28  C   UNL     1     110.568 125.634 137.866  0.00  0.00    +0.000 A 
ATOM     29  C   UNL     1     111.173 125.273 137.434  0.00  0.00    +0.000 A 
ATOM     30  C   UNL     1     110.014 126.109 137.481  0.00  0.00    +0.000 A 
ATOM     31  C   UNL     1     111.221 125.387 136.619  0.00  0.00    +0.000 A 
ATOM     32  C   UNL     1     110.064 126.222 136.665  0.00  0.00    +0.000 A 
ATOM     33  C   UNL     1     110.667 125.862 136.234  0.00  0.00    +0.000 A 
BRANCH  31  34
ATOM     34  O   UNL     1     111.826 125.026 136.187  0.00  0.00    +0.000 OA
ATOM     35  C   UNL     1     112.206 124.359 136.489  0.00  0.00    +0.000 C 
ENDBRANCH  31  34
ENDBRANCH  26  28
ENDBRANCH  24  25
ENDBRANCH  22  24
ENDBRANCH  16  22
ENDBRANCH  11  15
ENDBRANCH   4  11
BRANCH   7  36
ATOM     36  O   UNL     1     111.863 128.905 139.053  0.00  0.00    +0.000 OA
BRANCH  36  41
ATOM     37  O   UNL     1     111.699 129.780 137.060  0.00  0.00    +0.000 OA
ATOM     38  O   UNL     1     113.056 128.090 138.256  0.00  0.00    +0.000 OA
ATOM     39  O   UNL     1     113.819 127.816 137.062  0.00  0.00    +0.000 OA
ATOM     40  O   UNL     1     113.198 129.280 134.614  0.00  0.00    +0.000 OA
ATOM     41  C   UNL     1     112.007 129.061 138.256  0.00  0.00    +0.000 A 
ATOM     42  C   UNL     1     111.555 129.624 137.857  0.00  0.00    +0.000 A 
ATOM     43  C   UNL     1     112.603 128.653 137.857  0.00  0.00    +0.000 A 
ATOM     44  C   UNL     1     112.747 128.809 137.060  0.00  0.00    +0.000 A 
ATOM     45  C   UNL     1     112.296 129.372 136.661  0.00  0.00    +0.000 A 
ATOM     46  C   UNL     1     113.372 128.378 136.655  0.00  0.00    +0.000 A 
ATOM     47  C   UNL     1     112.436 129.544 135.831  0.00  0.00    +0.000 A 
ATOM     48  C   UNL     1     113.526 128.536 135.825  0.00  0.00    +0.000 A 
ATOM     49  C   UNL     1     113.056 129.122 135.411  0.00  0.00    +0.000 A 
BRANCH  42  52
ATOM     50  O   UNL     1     108.889 129.732 138.884  0.00  0.00    +0.000 OA
ATOM     51  O   UNL     1     109.169 131.256 139.451  0.00  0.00    +0.000 OA
ATOM     52  C   UNL     1     110.959 130.032 138.256  0.00  0.00    +0.000 A 
ATOM     53  C   UNL     1     110.222 129.678 138.371  0.00  0.00    +0.000 A 
ATOM     54  C   UNL     1     111.099 130.793 138.539  0.00  0.00    +0.000 A 
ATOM     55  C   UNL     1     109.626 130.085 138.769  0.00  0.00    +0.000 A 
ATOM     56  C   UNL     1     110.502 131.202 138.938  0.00  0.00    +0.000 A 
ATOM     57  C   UNL     1     109.766 130.847 139.052  0.00  0.00    +0.000 A 
ENDBRANCH  42  52
ENDBRANCH  36  41
ENDBRANCH   7  36
TORSDOF 12
ENDMDL
