MODEL 1
REMARK VINA RESULT:      -8.4      0.000      0.000
REMARK  Name = 131834214
REMARK  4 active torsions:
REMARK  status: ('A' for Active; 'I' for Inactive)
REMARK    1  A    between atoms: O_3  and  C_14
REMARK    2  A    between atoms: O_7  and  C_23
REMARK    3  A    between atoms: C_8  and  C_12
REMARK    4  A    between atoms: C_19  and  C_23
REMARK                            x       y       z     vdW  Elec       q    Type
REMARK                         _______ _______ _______ _____ _____    ______ ____
ROOT
ATOM      1  O   UNL     1     105.473 124.371 147.719  0.00  0.00    +0.000 OA
ATOM      2  O   UNL     1     105.140 125.347 145.795  0.00  0.00    +0.000 OA
ATOM      3  O   UNL     1     107.842 125.852 146.986  0.00  0.00    +0.000 OA
ATOM      4  O   UNL     1     107.781 124.359 149.494  0.00  0.00    +0.000 OA
ATOM      5  C   UNL     1     105.105 124.614 147.022  0.00  0.00    +0.000 C 
ATOM      6  C   UNL     1     105.507 125.103 146.492  0.00  0.00    +0.000 C 
ATOM      7  C   UNL     1     106.278 125.347 146.660  0.00  0.00    +0.000 C 
ATOM      8  C   UNL     1     106.644 125.103 147.357  0.00  0.00    +0.000 A 
ATOM      9  C   UNL     1     106.242 124.614 147.887  0.00  0.00    +0.000 A 
ATOM     10  C   UNL     1     107.448 125.364 147.520  0.00  0.00    +0.000 A 
ATOM     11  C   UNL     1     106.614 124.353 148.616  0.00  0.00    +0.000 A 
ATOM     12  C   UNL     1     107.835 125.113 148.245  0.00  0.00    +0.000 A 
ATOM     13  C   UNL     1     107.416 124.604 148.796  0.00  0.00    +0.000 A 
ENDROOT
BRANCH   5  15
ATOM     14  O   UNL     1     102.292 124.798 147.493  0.00  0.00    +0.000 OA
ATOM     15  C   UNL     1     104.335 124.371 146.854  0.00  0.00    +0.000 A 
ATOM     16  C   UNL     1     103.699 124.706 147.257  0.00  0.00    +0.000 A 
ATOM     17  C   UNL     1     104.201 123.791 146.282  0.00  0.00    +0.000 A 
ATOM     18  C   UNL     1     102.928 124.462 147.089  0.00  0.00    +0.000 A 
ATOM     19  C   UNL     1     102.795 123.883 146.518  0.00  0.00    +0.000 A 
ATOM     20  C   UNL     1     103.431 123.547 146.114  0.00  0.00    +0.000 A 
BRANCH  16  21
ATOM     21  O   UNL     1     103.832 125.286 147.829  0.00  0.00    +0.000 OA
ATOM     22  C   UNL     1     103.199 125.598 148.256  0.00  0.00    +0.000 C 
ENDBRANCH  16  21
BRANCH  19  23
ATOM     23  C   UNL     1     102.024 123.639 146.350  0.00  0.00    +0.000 C 
BRANCH  23  24
ATOM     24  O   UNL     1     101.853 123.286 145.624  0.00  0.00    +0.000 OA
ATOM     25  C   UNL     1     101.085 123.031 145.461  0.00  0.00    +0.000 C 
ENDBRANCH  23  24
ENDBRANCH  19  23
ENDBRANCH   5  15
TORSDOF 4
ENDMDL
MODEL 2
REMARK VINA RESULT:      -7.5     12.778     14.295
REMARK  Name = 131834214
REMARK  4 active torsions:
REMARK  status: ('A' for Active; 'I' for Inactive)
REMARK    1  A    between atoms: O_3  and  C_14
REMARK    2  A    between atoms: O_7  and  C_23
REMARK    3  A    between atoms: C_8  and  C_12
REMARK    4  A    between atoms: C_19  and  C_23
REMARK                            x       y       z     vdW  Elec       q    Type
REMARK                         _______ _______ _______ _____ _____    ______ ____
ROOT
ATOM      1  O   UNL     1     113.110 126.538 136.491  0.00  0.00    +0.000 OA
ATOM      2  O   UNL     1     111.557 127.827 135.660  0.00  0.00    +0.000 OA
ATOM      3  O   UNL     1     110.781 124.942 135.880  0.00  0.00    +0.000 OA
ATOM      4  O   UNL     1     113.151 123.675 137.023  0.00  0.00    +0.000 OA
ATOM      5  C   UNL     1     112.720 127.212 136.219  0.00  0.00    +0.000 C 
ATOM      6  C   UNL     1     111.948 127.154 135.932  0.00  0.00    +0.000 C 
ATOM      7  C   UNL     1     111.568 126.421 135.917  0.00  0.00    +0.000 C 
ATOM      8  C   UNL     1     111.959 125.748 136.190  0.00  0.00    +0.000 A 
ATOM      9  C   UNL     1     112.730 125.807 136.477  0.00  0.00    +0.000 A 
ATOM     10  C   UNL     1     111.552 124.991 136.169  0.00  0.00    +0.000 A 
ATOM     11  C   UNL     1     113.148 125.112 136.763  0.00  0.00    +0.000 A 
ATOM     12  C   UNL     1     111.954 124.286 136.451  0.00  0.00    +0.000 A 
ATOM     13  C   UNL     1     112.758 124.347 136.750  0.00  0.00    +0.000 A 
ENDROOT
BRANCH   5  15
ATOM     14  O   UNL     1     113.605 129.513 137.666  0.00  0.00    +0.000 OA
ATOM     15  C   UNL     1     113.099 127.944 136.234  0.00  0.00    +0.000 A 
ATOM     16  C   UNL     1     113.162 128.362 136.942  0.00  0.00    +0.000 A 
ATOM     17  C   UNL     1     113.417 128.259 135.540  0.00  0.00    +0.000 A 
ATOM     18  C   UNL     1     113.542 129.095 136.958  0.00  0.00    +0.000 A 
ATOM     19  C   UNL     1     113.860 129.408 136.264  0.00  0.00    +0.000 A 
ATOM     20  C   UNL     1     113.797 128.990 135.555  0.00  0.00    +0.000 A 
BRANCH  16  21
ATOM     21  O   UNL     1     112.844 128.048 137.636  0.00  0.00    +0.000 OA
ATOM     22  C   UNL     1     113.002 128.408 138.362  0.00  0.00    +0.000 C 
ENDBRANCH  16  21
BRANCH  19  23
ATOM     23  C   UNL     1     114.240 130.141 136.279  0.00  0.00    +0.000 C 
BRANCH  23  24
ATOM     24  O   UNL     1     114.640 130.411 135.610  0.00  0.00    +0.000 OA
ATOM     25  C   UNL     1     115.048 131.128 135.636  0.00  0.00    +0.000 C 
ENDBRANCH  23  24
ENDBRANCH  19  23
ENDBRANCH   5  15
TORSDOF 4
ENDMDL
MODEL 3
REMARK VINA RESULT:      -7.5     12.913     14.502
REMARK  Name = 131834214
REMARK  4 active torsions:
REMARK  status: ('A' for Active; 'I' for Inactive)
REMARK    1  A    between atoms: O_3  and  C_14
REMARK    2  A    between atoms: O_7  and  C_23
REMARK    3  A    between atoms: C_8  and  C_12
REMARK    4  A    between atoms: C_19  and  C_23
REMARK                            x       y       z     vdW  Elec       q    Type
REMARK                         _______ _______ _______ _____ _____    ______ ____
ROOT
ATOM      1  O   UNL     1     111.966 127.276 135.663  0.00  0.00    +0.000 OA
ATOM      2  O   UNL     1     113.578 126.822 137.064  0.00  0.00    +0.000 OA
ATOM      3  O   UNL     1     111.634 124.581 136.649  0.00  0.00    +0.000 OA
ATOM      4  O   UNL     1     109.720 125.673 134.732  0.00  0.00    +0.000 OA
ATOM      5  C   UNL     1     112.644 127.362 136.126  0.00  0.00    +0.000 C 
ATOM      6  C   UNL     1     112.900 126.737 136.601  0.00  0.00    +0.000 C 
ATOM      7  C   UNL     1     112.479 126.028 136.613  0.00  0.00    +0.000 C 
ATOM      8  C   UNL     1     111.801 125.943 136.150  0.00  0.00    +0.000 A 
ATOM      9  C   UNL     1     111.545 126.567 135.675  0.00  0.00    +0.000 A 
ATOM     10  C   UNL     1     111.371 125.199 136.171  0.00  0.00    +0.000 A 
ATOM     11  C   UNL     1     110.841 126.491 135.188  0.00  0.00    +0.000 A 
ATOM     12  C   UNL     1     110.665 125.104 135.691  0.00  0.00    +0.000 A 
ATOM     13  C   UNL     1     110.398 125.755 135.196  0.00  0.00    +0.000 A 
ENDROOT
BRANCH   5  15
ATOM     14  O   UNL     1     112.918 130.092 136.926  0.00  0.00    +0.000 OA
ATOM     15  C   UNL     1     113.065 128.070 136.114  0.00  0.00    +0.000 A 
ATOM     16  C   UNL     1     112.781 128.726 136.526  0.00  0.00    +0.000 A 
ATOM     17  C   UNL     1     113.772 128.124 135.691  0.00  0.00    +0.000 A 
ATOM     18  C   UNL     1     113.202 129.436 136.514  0.00  0.00    +0.000 A 
ATOM     19  C   UNL     1     113.908 129.488 136.091  0.00  0.00    +0.000 A 
ATOM     20  C   UNL     1     114.193 128.833 135.679  0.00  0.00    +0.000 A 
BRANCH  16  21
ATOM     21  O   UNL     1     112.075 128.673 136.949  0.00  0.00    +0.000 OA
ATOM     22  C   UNL     1     111.752 129.347 137.299  0.00  0.00    +0.000 C 
ENDBRANCH  16  21
BRANCH  19  23
ATOM     23  C   UNL     1     114.330 130.198 136.079  0.00  0.00    +0.000 C 
BRANCH  23  24
ATOM     24  O   UNL     1     115.005 130.268 135.611  0.00  0.00    +0.000 OA
ATOM     25  C   UNL     1     115.381 131.000 135.536  0.00  0.00    +0.000 C 
ENDBRANCH  23  24
ENDBRANCH  19  23
ENDBRANCH   5  15
TORSDOF 4
ENDMDL
MODEL 4
REMARK VINA RESULT:      -7.3      1.982      3.182
REMARK  Name = 131834214
REMARK  4 active torsions:
REMARK  status: ('A' for Active; 'I' for Inactive)
REMARK    1  A    between atoms: O_3  and  C_14
REMARK    2  A    between atoms: O_7  and  C_23
REMARK    3  A    between atoms: C_8  and  C_12
REMARK    4  A    between atoms: C_19  and  C_23
REMARK                            x       y       z     vdW  Elec       q    Type
REMARK                         _______ _______ _______ _____ _____    ______ ____
ROOT
ATOM      1  O   UNL     1     106.726 124.945 147.033  0.00  0.00    +0.000 OA
ATOM      2  O   UNL     1     104.576 125.075 146.675  0.00  0.00    +0.000 OA
ATOM      3  O   UNL     1     105.323 124.527 149.524  0.00  0.00    +0.000 OA
ATOM      4  O   UNL     1     108.241 124.450 149.470  0.00  0.00    +0.000 OA
ATOM      5  C   UNL     1     106.005 125.038 146.643  0.00  0.00    +0.000 C 
ATOM      6  C   UNL     1     105.298 124.982 147.064  0.00  0.00    +0.000 C 
ATOM      7  C   UNL     1     105.312 124.832 147.876  0.00  0.00    +0.000 C 
ATOM      8  C   UNL     1     106.033 124.738 148.265  0.00  0.00    +0.000 A 
ATOM      9  C   UNL     1     106.740 124.795 147.844  0.00  0.00    +0.000 A 
ATOM     10  C   UNL     1     106.034 124.582 149.111  0.00  0.00    +0.000 A 
ATOM     11  C   UNL     1     107.498 124.699 148.239  0.00  0.00    +0.000 A 
ATOM     12  C   UNL     1     106.782 124.484 149.522  0.00  0.00    +0.000 A 
ATOM     13  C   UNL     1     107.519 124.543 149.083  0.00  0.00    +0.000 A 
ENDROOT
BRANCH   5  15
ATOM     14  O   UNL     1     106.418 126.822 144.448  0.00  0.00    +0.000 OA
ATOM     15  C   UNL     1     105.990 125.188 145.832  0.00  0.00    +0.000 A 
ATOM     16  C   UNL     1     106.211 125.930 145.546  0.00  0.00    +0.000 A 
ATOM     17  C   UNL     1     105.755 124.597 145.307  0.00  0.00    +0.000 A 
ATOM     18  C   UNL     1     106.197 126.080 144.735  0.00  0.00    +0.000 A 
ATOM     19  C   UNL     1     105.962 125.489 144.210  0.00  0.00    +0.000 A 
ATOM     20  C   UNL     1     105.741 124.747 144.496  0.00  0.00    +0.000 A 
BRANCH  16  21
ATOM     21  O   UNL     1     106.447 126.522 146.071  0.00  0.00    +0.000 OA
ATOM     22  C   UNL     1     106.597 127.284 145.793  0.00  0.00    +0.000 C 
ENDBRANCH  16  21
BRANCH  19  23
ATOM     23  C   UNL     1     105.947 125.639 143.398  0.00  0.00    +0.000 C 
BRANCH  23  24
ATOM     24  O   UNL     1     105.714 125.047 142.874  0.00  0.00    +0.000 OA
ATOM     25  C   UNL     1     105.791 125.163 142.060  0.00  0.00    +0.000 C 
ENDBRANCH  23  24
ENDBRANCH  19  23
ENDBRANCH   5  15
TORSDOF 4
ENDMDL
MODEL 5
REMARK VINA RESULT:      -7.3     10.377     11.116
REMARK  Name = 131834214
REMARK  4 active torsions:
REMARK  status: ('A' for Active; 'I' for Inactive)
REMARK    1  A    between atoms: O_3  and  C_14
REMARK    2  A    between atoms: O_7  and  C_23
REMARK    3  A    between atoms: C_8  and  C_12
REMARK    4  A    between atoms: C_19  and  C_23
REMARK                            x       y       z     vdW  Elec       q    Type
REMARK                         _______ _______ _______ _____ _____    ______ ____
ROOT
ATOM      1  O   UNL     1     111.256 132.889 146.634  0.00  0.00    +0.000 OA
ATOM      2  O   UNL     1     113.244 132.051 146.306  0.00  0.00    +0.000 OA
ATOM      3  O   UNL     1     112.734 132.959 149.114  0.00  0.00    +0.000 OA
ATOM      4  O   UNL     1     109.998 133.975 149.025  0.00  0.00    +0.000 OA
ATOM      5  C   UNL     1     111.905 132.547 146.256  0.00  0.00    +0.000 C 
ATOM      6  C   UNL     1     112.595 132.393 146.682  0.00  0.00    +0.000 C 
ATOM      7  C   UNL     1     112.635 132.582 147.485  0.00  0.00    +0.000 C 
ATOM      8  C   UNL     1     111.986 132.924 147.861  0.00  0.00    +0.000 A 
ATOM      9  C   UNL     1     111.296 133.078 147.435  0.00  0.00    +0.000 A 
ATOM     10  C   UNL     1     112.041 133.116 148.698  0.00  0.00    +0.000 A 
ATOM     11  C   UNL     1     110.613 133.434 147.816  0.00  0.00    +0.000 A 
ATOM     12  C   UNL     1     111.368 133.472 149.095  0.00  0.00    +0.000 A 
ATOM     13  C   UNL     1     110.649 133.633 148.651  0.00  0.00    +0.000 A 
ENDROOT
BRANCH   5  15
ATOM     14  O   UNL     1     111.888 133.367 143.519  0.00  0.00    +0.000 OA
ATOM     15  C   UNL     1     111.865 132.358 145.455  0.00  0.00    +0.000 A 
ATOM     16  C   UNL     1     111.897 132.957 144.888  0.00  0.00    +0.000 A 
ATOM     17  C   UNL     1     111.793 131.571 145.219  0.00  0.00    +0.000 A 
ATOM     18  C   UNL     1     111.856 132.768 144.086  0.00  0.00    +0.000 A 
ATOM     19  C   UNL     1     111.785 131.981 143.851  0.00  0.00    +0.000 A 
ATOM     20  C   UNL     1     111.753 131.382 144.417  0.00  0.00    +0.000 A 
BRANCH  16  21
ATOM     21  O   UNL     1     111.968 133.744 145.123  0.00  0.00    +0.000 OA
ATOM     22  C   UNL     1     111.958 134.346 144.559  0.00  0.00    +0.000 C 
ENDBRANCH  16  21
BRANCH  19  23
ATOM     23  C   UNL     1     111.744 131.792 143.048  0.00  0.00    +0.000 C 
BRANCH  23  24
ATOM     24  O   UNL     1     111.774 131.004 142.808  0.00  0.00    +0.000 OA
ATOM     25  C   UNL     1     111.718 130.814 142.006  0.00  0.00    +0.000 C 
ENDBRANCH  23  24
ENDBRANCH  19  23
ENDBRANCH   5  15
TORSDOF 4
ENDMDL
MODEL 6
REMARK VINA RESULT:      -7.3      0.876      4.655
REMARK  Name = 131834214
REMARK  4 active torsions:
REMARK  status: ('A' for Active; 'I' for Inactive)
REMARK    1  A    between atoms: O_3  and  C_14
REMARK    2  A    between atoms: O_7  and  C_23
REMARK    3  A    between atoms: C_8  and  C_12
REMARK    4  A    between atoms: C_19  and  C_23
REMARK                            x       y       z     vdW  Elec       q    Type
REMARK                         _______ _______ _______ _____ _____    ______ ____
ROOT
ATOM      1  O   UNL     1     103.818 124.097 146.565  0.00  0.00    +0.000 OA
ATOM      2  O   UNL     1     103.862 125.528 148.214  0.00  0.00    +0.000 OA
ATOM      3  O   UNL     1     101.117 124.595 147.461  0.00  0.00    +0.000 OA
ATOM      4  O   UNL     1     101.598 122.739 145.258  0.00  0.00    +0.000 OA
ATOM      5  C   UNL     1     104.104 124.620 147.136  0.00  0.00    +0.000 C 
ATOM      6  C   UNL     1     103.578 125.005 147.643  0.00  0.00    +0.000 C 
ATOM      7  C   UNL     1     102.767 124.866 147.578  0.00  0.00    +0.000 C 
ATOM      8  C   UNL     1     102.483 124.343 147.007  0.00  0.00    +0.000 A 
ATOM      9  C   UNL     1     103.008 123.958 146.501  0.00  0.00    +0.000 A 
ATOM     10  C   UNL     1     101.635 124.207 146.951  0.00  0.00    +0.000 A 
ATOM     11  C   UNL     1     102.724 123.411 145.902  0.00  0.00    +0.000 A 
ATOM     12  C   UNL     1     101.333 123.663 146.358  0.00  0.00    +0.000 A 
ATOM     13  C   UNL     1     101.881 123.263 145.830  0.00  0.00    +0.000 A 
ENDROOT
BRANCH   5  15
ATOM     14  O   UNL     1     106.503 125.791 146.115  0.00  0.00    +0.000 OA
ATOM     15  C   UNL     1     104.914 124.759 147.201  0.00  0.00    +0.000 A 
ATOM     16  C   UNL     1     105.303 125.205 146.626  0.00  0.00    +0.000 A 
ATOM     17  C   UNL     1     105.336 124.452 147.840  0.00  0.00    +0.000 A 
ATOM     18  C   UNL     1     106.114 125.345 146.690  0.00  0.00    +0.000 A 
ATOM     19  C   UNL     1     106.535 125.037 147.329  0.00  0.00    +0.000 A 
ATOM     20  C   UNL     1     106.146 124.591 147.904  0.00  0.00    +0.000 A 
BRANCH  16  21
ATOM     21  O   UNL     1     104.882 125.512 145.986  0.00  0.00    +0.000 OA
ATOM     22  C   UNL     1     105.249 126.031 145.461  0.00  0.00    +0.000 C 
ENDBRANCH  16  21
BRANCH  19  23
ATOM     23  C   UNL     1     107.347 125.177 147.394  0.00  0.00    +0.000 C 
BRANCH  23  24
ATOM     24  O   UNL     1     107.759 124.909 148.056  0.00  0.00    +0.000 OA
ATOM     25  C   UNL     1     108.584 124.943 148.069  0.00  0.00    +0.000 C 
ENDBRANCH  23  24
ENDBRANCH  19  23
ENDBRANCH   5  15
TORSDOF 4
ENDMDL
MODEL 7
REMARK VINA RESULT:      -7.2     11.972     13.278
REMARK  Name = 131834214
REMARK  4 active torsions:
REMARK  status: ('A' for Active; 'I' for Inactive)
REMARK    1  A    between atoms: O_3  and  C_14
REMARK    2  A    between atoms: O_7  and  C_23
REMARK    3  A    between atoms: C_8  and  C_12
REMARK    4  A    between atoms: C_19  and  C_23
REMARK                            x       y       z     vdW  Elec       q    Type
REMARK                         _______ _______ _______ _____ _____    ______ ____
ROOT
ATOM      1  O   UNL     1     112.340 126.237 136.375  0.00  0.00    +0.000 OA
ATOM      2  O   UNL     1     110.272 125.749 135.872  0.00  0.00    +0.000 OA
ATOM      3  O   UNL     1     111.964 123.380 136.578  0.00  0.00    +0.000 OA
ATOM      4  O   UNL     1     114.578 124.546 137.154  0.00  0.00    +0.000 OA
ATOM      5  C   UNL     1     111.549 126.325 136.154  0.00  0.00    +0.000 C 
ATOM      6  C   UNL     1     111.062 125.662 136.093  0.00  0.00    +0.000 C 
ATOM      7  C   UNL     1     111.365 124.911 136.254  0.00  0.00    +0.000 C 
ATOM      8  C   UNL     1     112.155 124.825 136.475  0.00  0.00    +0.000 A 
ATOM      9  C   UNL     1     112.642 125.488 136.535  0.00  0.00    +0.000 A 
ATOM     10  C   UNL     1     112.458 124.037 136.640  0.00  0.00    +0.000 A 
ATOM     11  C   UNL     1     113.467 125.409 136.765  0.00  0.00    +0.000 A 
ATOM     12  C   UNL     1     113.280 123.940 136.871  0.00  0.00    +0.000 A 
ATOM     13  C   UNL     1     113.788 124.631 136.934  0.00  0.00    +0.000 A 
ENDROOT
BRANCH   5  15
ATOM     14  O   UNL     1     110.639 128.875 137.069  0.00  0.00    +0.000 OA
ATOM     15  C   UNL     1     111.247 127.075 135.993  0.00  0.00    +0.000 A 
ATOM     16  C   UNL     1     111.094 127.599 136.611  0.00  0.00    +0.000 A 
ATOM     17  C   UNL     1     111.096 127.302 135.214  0.00  0.00    +0.000 A 
ATOM     18  C   UNL     1     110.791 128.351 136.450  0.00  0.00    +0.000 A 
ATOM     19  C   UNL     1     110.641 128.576 135.671  0.00  0.00    +0.000 A 
ATOM     20  C   UNL     1     110.793 128.051 135.053  0.00  0.00    +0.000 A 
BRANCH  16  21
ATOM     21  O   UNL     1     111.245 127.374 137.390  0.00  0.00    +0.000 OA
ATOM     22  C   UNL     1     111.115 127.907 138.007  0.00  0.00    +0.000 C 
ENDBRANCH  16  21
BRANCH  19  23
ATOM     23  C   UNL     1     110.337 129.327 135.511  0.00  0.00    +0.000 C 
BRANCH  23  24
ATOM     24  O   UNL     1     110.024 129.493 134.766  0.00  0.00    +0.000 OA
ATOM     25  C   UNL     1     109.702 130.238 134.612  0.00  0.00    +0.000 C 
ENDBRANCH  23  24
ENDBRANCH  19  23
ENDBRANCH   5  15
TORSDOF 4
ENDMDL
MODEL 8
REMARK VINA RESULT:      -7.1      2.021      3.649
REMARK  Name = 131834214
REMARK  4 active torsions:
REMARK  status: ('A' for Active; 'I' for Inactive)
REMARK    1  A    between atoms: O_3  and  C_14
REMARK    2  A    between atoms: O_7  and  C_23
REMARK    3  A    between atoms: C_8  and  C_12
REMARK    4  A    between atoms: C_19  and  C_23
REMARK                            x       y       z     vdW  Elec       q    Type
REMARK                         _______ _______ _______ _____ _____    ______ ____
ROOT
ATOM      1  O   UNL     1     105.594 125.426 147.127  0.00  0.00    +0.000 OA
ATOM      2  O   UNL     1     107.692 125.344 146.528  0.00  0.00    +0.000 OA
ATOM      3  O   UNL     1     107.162 124.362 149.308  0.00  0.00    +0.000 OA
ATOM      4  O   UNL     1     104.274 124.673 149.611  0.00  0.00    +0.000 OA
ATOM      5  C   UNL     1     106.278 125.499 146.671  0.00  0.00    +0.000 C 
ATOM      6  C   UNL     1     107.007 125.272 146.983  0.00  0.00    +0.000 C 
ATOM      7  C   UNL     1     107.053 124.972 147.751  0.00  0.00    +0.000 C 
ATOM      8  C   UNL     1     106.368 124.900 148.206  0.00  0.00    +0.000 A 
ATOM      9  C   UNL     1     105.639 125.127 147.894  0.00  0.00    +0.000 A 
ATOM     10  C   UNL     1     106.429 124.586 149.005  0.00  0.00    +0.000 A 
ATOM     11  C   UNL     1     104.919 125.056 148.359  0.00  0.00    +0.000 A 
ATOM     12  C   UNL     1     105.720 124.508 149.483  0.00  0.00    +0.000 A 
ATOM     13  C   UNL     1     104.960 124.744 149.158  0.00  0.00    +0.000 A 
ENDROOT
BRANCH   5  15
ATOM     14  O   UNL     1     105.629 125.146 143.911  0.00  0.00    +0.000 OA
ATOM     15  C   UNL     1     106.233 125.798 145.904  0.00  0.00    +0.000 A 
ATOM     16  C   UNL     1     105.954 125.322 145.292  0.00  0.00    +0.000 A 
ATOM     17  C   UNL     1     106.468 126.574 145.749  0.00  0.00    +0.000 A 
ATOM     18  C   UNL     1     105.909 125.622 144.523  0.00  0.00    +0.000 A 
ATOM     19  C   UNL     1     106.143 126.397 144.370  0.00  0.00    +0.000 A 
ATOM     20  C   UNL     1     106.423 126.874 144.983  0.00  0.00    +0.000 A 
BRANCH  16  21
ATOM     21  O   UNL     1     105.719 124.547 145.445  0.00  0.00    +0.000 OA
ATOM     22  C   UNL     1     105.289 124.126 144.881  0.00  0.00    +0.000 C 
ENDBRANCH  16  21
BRANCH  19  23
ATOM     23  C   UNL     1     106.098 126.697 143.601  0.00  0.00    +0.000 C 
BRANCH  23  24
ATOM     24  O   UNL     1     106.446 127.423 143.422  0.00  0.00    +0.000 OA
ATOM     25  C   UNL     1     106.401 127.722 142.653  0.00  0.00    +0.000 C 
ENDBRANCH  23  24
ENDBRANCH  19  23
ENDBRANCH   5  15
TORSDOF 4
ENDMDL
MODEL 9
REMARK VINA RESULT:      -7.1     12.556     13.806
REMARK  Name = 131834214
REMARK  4 active torsions:
REMARK  status: ('A' for Active; 'I' for Inactive)
REMARK    1  A    between atoms: O_3  and  C_14
REMARK    2  A    between atoms: O_7  and  C_23
REMARK    3  A    between atoms: C_8  and  C_12
REMARK    4  A    between atoms: C_19  and  C_23
REMARK                            x       y       z     vdW  Elec       q    Type
REMARK                         _______ _______ _______ _____ _____    ______ ____
ROOT
ATOM      1  O   UNL     1     112.236 126.513 136.819  0.00  0.00    +0.000 OA
ATOM      2  O   UNL     1     114.050 127.560 136.203  0.00  0.00    +0.000 OA
ATOM      3  O   UNL     1     114.354 124.588 136.423  0.00  0.00    +0.000 OA
ATOM      4  O   UNL     1     111.707 123.683 137.259  0.00  0.00    +0.000 OA
ATOM      5  C   UNL     1     112.752 127.123 136.611  0.00  0.00    +0.000 C 
ATOM      6  C   UNL     1     113.533 126.951 136.410  0.00  0.00    +0.000 C 
ATOM      7  C   UNL     1     113.799 126.169 136.416  0.00  0.00    +0.000 C 
ATOM      8  C   UNL     1     113.283 125.560 136.624  0.00  0.00    +0.000 A 
ATOM      9  C   UNL     1     112.501 125.732 136.825  0.00  0.00    +0.000 A 
ATOM     10  C   UNL     1     113.572 124.750 136.626  0.00  0.00    +0.000 A 
ATOM     11  C   UNL     1     111.954 125.106 137.043  0.00  0.00    +0.000 A 
ATOM     12  C   UNL     1     113.040 124.111 136.841  0.00  0.00    +0.000 A 
ATOM     13  C   UNL     1     112.225 124.290 137.051  0.00  0.00    +0.000 A 
ENDROOT
BRANCH   5  15
ATOM     14  O   UNL     1     111.261 129.220 135.368  0.00  0.00    +0.000 OA
ATOM     15  C   UNL     1     112.487 127.903 136.605  0.00  0.00    +0.000 A 
ATOM     16  C   UNL     1     112.007 128.171 135.990  0.00  0.00    +0.000 A 
ATOM     17  C   UNL     1     112.701 128.417 137.214  0.00  0.00    +0.000 A 
ATOM     18  C   UNL     1     111.741 128.953 135.984  0.00  0.00    +0.000 A 
ATOM     19  C   UNL     1     111.956 129.465 136.593  0.00  0.00    +0.000 A 
ATOM     20  C   UNL     1     112.436 129.198 137.208  0.00  0.00    +0.000 A 
BRANCH  16  21
ATOM     21  O   UNL     1     111.792 127.658 135.381  0.00  0.00    +0.000 OA
ATOM     22  C   UNL     1     111.231 127.891 134.823  0.00  0.00    +0.000 C 
ENDBRANCH  16  21
BRANCH  19  23
ATOM     23  C   UNL     1     111.691 130.247 136.586  0.00  0.00    +0.000 C 
BRANCH  23  24
ATOM     24  O   UNL     1     111.953 130.776 137.162  0.00  0.00    +0.000 OA
ATOM     25  C   UNL     1     111.695 131.560 137.150  0.00  0.00    +0.000 C 
ENDBRANCH  23  24
ENDBRANCH  19  23
ENDBRANCH   5  15
TORSDOF 4
ENDMDL
MODEL 10
REMARK VINA RESULT:      -7.0     10.992     12.795
REMARK  Name = 131834214
REMARK  4 active torsions:
REMARK  status: ('A' for Active; 'I' for Inactive)
REMARK    1  A    between atoms: O_3  and  C_14
REMARK    2  A    between atoms: O_7  and  C_23
REMARK    3  A    between atoms: C_8  and  C_12
REMARK    4  A    between atoms: C_19  and  C_23
REMARK                            x       y       z     vdW  Elec       q    Type
REMARK                         _______ _______ _______ _____ _____    ______ ____
ROOT
ATOM      1  O   UNL     1     112.272 126.209 137.819  0.00  0.00    +0.000 OA
ATOM      2  O   UNL     1     114.266 125.911 138.656  0.00  0.00    +0.000 OA
ATOM      3  O   UNL     1     113.503 123.927 136.547  0.00  0.00    +0.000 OA
ATOM      4  O   UNL     1     110.809 124.745 135.771  0.00  0.00    +0.000 OA
ATOM      5  C   UNL     1     112.947 126.316 138.281  0.00  0.00    +0.000 C 
ATOM      6  C   UNL     1     113.589 125.805 138.196  0.00  0.00    +0.000 C 
ATOM      7  C   UNL     1     113.556 125.187 137.650  0.00  0.00    +0.000 C 
ATOM      8  C   UNL     1     112.879 125.080 137.189  0.00  0.00    +0.000 A 
ATOM      9  C   UNL     1     112.237 125.592 137.274  0.00  0.00    +0.000 A 
ATOM     10  C   UNL     1     112.857 124.432 136.624  0.00  0.00    +0.000 A 
ATOM     11  C   UNL     1     111.528 125.491 136.800  0.00  0.00    +0.000 A 
ATOM     12  C   UNL     1     112.156 124.316 136.142  0.00  0.00    +0.000 A 
ATOM     13  C   UNL     1     111.486 124.849 136.230  0.00  0.00    +0.000 A 
ENDROOT
BRANCH   5  15
ATOM     14  O   UNL     1     113.235 129.102 138.850  0.00  0.00    +0.000 OA
ATOM     15  C   UNL     1     112.982 126.934 138.826  0.00  0.00    +0.000 A 
ATOM     16  C   UNL     1     113.091 127.708 138.565  0.00  0.00    +0.000 A 
ATOM     17  C   UNL     1     112.906 126.777 139.633  0.00  0.00    +0.000 A 
ATOM     18  C   UNL     1     113.125 128.327 139.111  0.00  0.00    +0.000 A 
ATOM     19  C   UNL     1     113.050 128.169 139.917  0.00  0.00    +0.000 A 
ATOM     20  C   UNL     1     112.940 127.394 140.178  0.00  0.00    +0.000 A 
BRANCH  16  21
ATOM     21  O   UNL     1     113.167 127.866 137.759  0.00  0.00    +0.000 OA
ATOM     22  C   UNL     1     113.180 128.646 137.490  0.00  0.00    +0.000 C 
ENDBRANCH  16  21
BRANCH  19  23
ATOM     23  C   UNL     1     113.084 128.788 140.463  0.00  0.00    +0.000 C 
BRANCH  23  24
ATOM     24  O   UNL     1     112.835 128.666 141.240  0.00  0.00    +0.000 OA
ATOM     25  C   UNL     1     112.775 129.305 141.759  0.00  0.00    +0.000 C 
ENDBRANCH  23  24
ENDBRANCH  19  23
ENDBRANCH   5  15
TORSDOF 4
ENDMDL
