MODEL 1
REMARK VINA RESULT:      -9.7      0.000      0.000
REMARK  Name = 44259417
REMARK  9 active torsions:
REMARK  status: ('A' for Active; 'I' for Inactive)
REMARK    1  A    between atoms: O_3  and  C_23
REMARK    2  A    between atoms: O_3  and  C_30
REMARK    3  A    between atoms: O_7  and  C_27
REMARK    4  A    between atoms: O_7  and  C_31
REMARK    5  A    between atoms: O_17  and  C_43
REMARK    6  A    between atoms: O_18  and  C_45
REMARK    7  A    between atoms: C_22  and  C_29
REMARK    8  A    between atoms: C_28  and  C_32
REMARK    9  A    between atoms: C_39  and  C_40
REMARK                            x       y       z     vdW  Elec       q    Type
REMARK                         _______ _______ _______ _____ _____    ______ ____
ROOT
ATOM      1  O   UNL     1     111.288 127.338 137.494  0.00  0.00    +0.000 OA
ATOM      2  O   UNL     1     110.288 128.319 135.453  0.00  0.00    +0.000 OA
ATOM      3  O   UNL     1     111.524 127.235 135.326  0.00  0.00    +0.000 OA
ATOM      4  C   UNL     1     109.691 128.774 136.930  0.00  0.00    +0.000 A 
ATOM      5  C   UNL     1     109.738 128.661 138.410  0.00  0.00    +0.000 A 
ATOM      6  C   UNL     1     110.336 128.207 136.877  0.00  0.00    +0.000 A 
ATOM      7  C   UNL     1     109.390 129.001 137.702  0.00  0.00    +0.000 A 
ATOM      8  C   UNL     1     110.669 127.881 137.558  0.00  0.00    +0.000 A 
ATOM      9  C   UNL     1     110.381 128.097 138.337  0.00  0.00    +0.000 A 
ATOM     10  C   UNL     1     110.621 127.993 136.134  0.00  0.00    +0.000 A 
ATOM     11  C   UNL     1     111.240 127.450 136.070  0.00  0.00    +0.000 A 
ATOM     12  C   UNL     1     111.573 127.123 136.750  0.00  0.00    +0.000 A 
ENDROOT
BRANCH  12  13
ATOM     13  C   UNL     1     112.192 126.581 136.686  0.00  0.00    +0.000 A 
ATOM     14  C   UNL     1     112.032 125.772 136.673  0.00  0.00    +0.000 A 
ATOM     15  C   UNL     1     112.970 126.849 136.635  0.00  0.00    +0.000 A 
ATOM     16  C   UNL     1     112.651 125.231 136.608  0.00  0.00    +0.000 A 
ATOM     17  C   UNL     1     113.590 126.307 136.571  0.00  0.00    +0.000 A 
ATOM     18  C   UNL     1     113.430 125.498 136.558  0.00  0.00    +0.000 A 
BRANCH  16  19
ATOM     19  O   UNL     1     112.491 124.421 136.595  0.00  0.00    +0.000 OA
ATOM     20  C   UNL     1     111.783 124.135 136.907  0.00  0.00    +0.000 C 
ENDBRANCH  16  19
BRANCH  18  21
ATOM     21  O   UNL     1     114.048 124.956 136.493  0.00  0.00    +0.000 OA
ATOM     22  C   UNL     1     114.828 125.223 136.453  0.00  0.00    +0.000 C 
ENDBRANCH  18  21
ENDBRANCH  12  13
BRANCH   4  23
ATOM     23  O   UNL     1     109.364 129.096 136.245  0.00  0.00    +0.000 OA
BRANCH  23  32
ATOM     24  O   UNL     1     109.723 130.475 136.345  0.00  0.00    +0.000 OA
ATOM     25  O   UNL     1     107.371 131.119 135.921  0.00  0.00    +0.000 OA
ATOM     26  O   UNL     1     108.514 132.283 136.162  0.00  0.00    +0.000 OA
ATOM     27  O   UNL     1     107.796 129.525 135.962  0.00  0.00    +0.000 OA
ATOM     28  C   UNL     1     108.155 130.904 136.062  0.00  0.00    +0.000 C 
ATOM     29  C   UNL     1     108.727 131.486 136.183  0.00  0.00    +0.000 C 
ATOM     30  C   UNL     1     108.368 130.107 136.083  0.00  0.00    +0.000 C 
ATOM     31  C   UNL     1     109.511 131.271 136.324  0.00  0.00    +0.000 C 
ATOM     32  C   UNL     1     109.152 129.892 136.224  0.00  0.00    +0.000 C 
BRANCH  31  34
ATOM     33  O   UNL     1     110.883 131.667 136.376  0.00  0.00    +0.000 OA
ATOM     34  C   UNL     1     110.082 131.854 136.445  0.00  0.00    +0.000 C 
ENDBRANCH  31  34
ENDBRANCH  23  32
ENDBRANCH   4  23
BRANCH   5  35
ATOM     35  O   UNL     1     109.455 128.874 139.156  0.00  0.00    +0.000 OA
BRANCH  35  43
ATOM     36  O   UNL     1     110.501 129.769 139.536  0.00  0.00    +0.000 OA
ATOM     37  O   UNL     1     108.825 131.326 140.480  0.00  0.00    +0.000 OA
ATOM     38  O   UNL     1     108.337 129.911 139.784  0.00  0.00    +0.000 OA
ATOM     39  O   UNL     1     110.431 131.702 140.546  0.00  0.00    +0.000 OA
ATOM     40  C   UNL     1     109.384 130.807 140.166  0.00  0.00    +0.000 C 
ATOM     41  C   UNL     1     109.139 130.100 139.818  0.00  0.00    +0.000 C 
ATOM     42  C   UNL     1     110.186 130.995 140.199  0.00  0.00    +0.000 C 
ATOM     43  C   UNL     1     109.698 129.580 139.503  0.00  0.00    +0.000 C 
ATOM     44  C   UNL     1     110.745 130.476 139.884  0.00  0.00    +0.000 C 
BRANCH  44  47
ATOM     45  O   UNL     1     111.908 131.045 139.280  0.00  0.00    +0.000 OA
ATOM     46  O   UNL     1     111.990 130.470 140.586  0.00  0.00    +0.000 OA
ATOM     47  C   UNL     1     111.548 130.664 139.917  0.00  0.00    +0.000 C 
ENDBRANCH  44  47
ENDBRANCH  35  43
ENDBRANCH   5  35
TORSDOF 9
ENDMDL
MODEL 2
REMARK VINA RESULT:      -9.5      2.153      6.065
REMARK  Name = 44259417
REMARK  9 active torsions:
REMARK  status: ('A' for Active; 'I' for Inactive)
REMARK    1  A    between atoms: O_3  and  C_23
REMARK    2  A    between atoms: O_3  and  C_30
REMARK    3  A    between atoms: O_7  and  C_27
REMARK    4  A    between atoms: O_7  and  C_31
REMARK    5  A    between atoms: O_17  and  C_43
REMARK    6  A    between atoms: O_18  and  C_45
REMARK    7  A    between atoms: C_22  and  C_29
REMARK    8  A    between atoms: C_28  and  C_32
REMARK    9  A    between atoms: C_39  and  C_40
REMARK                            x       y       z     vdW  Elec       q    Type
REMARK                         _______ _______ _______ _____ _____    ______ ____
ROOT
ATOM      1  O   UNL     1     112.795 129.186 139.213  0.00  0.00    +0.000 OA
ATOM      2  O   UNL     1     113.769 126.939 139.577  0.00  0.00    +0.000 OA
ATOM      3  O   UNL     1     113.749 128.038 140.806  0.00  0.00    +0.000 OA
ATOM      4  C   UNL     1     113.146 127.305 138.086  0.00  0.00    +0.000 A 
ATOM      5  C   UNL     1     112.482 128.286 137.191  0.00  0.00    +0.000 A 
ATOM      6  C   UNL     1     113.130 127.887 138.719  0.00  0.00    +0.000 A 
ATOM      7  C   UNL     1     112.820 127.507 137.318  0.00  0.00    +0.000 A 
ATOM      8  C   UNL     1     112.805 128.636 138.597  0.00  0.00    +0.000 A 
ATOM      9  C   UNL     1     112.475 128.854 137.836  0.00  0.00    +0.000 A 
ATOM     10  C   UNL     1     113.445 127.688 139.455  0.00  0.00    +0.000 A 
ATOM     11  C   UNL     1     113.435 128.238 140.071  0.00  0.00    +0.000 A 
ATOM     12  C   UNL     1     113.110 128.986 139.949  0.00  0.00    +0.000 A 
ENDROOT
BRANCH  12  13
ATOM     13  C   UNL     1     113.100 129.536 140.565  0.00  0.00    +0.000 A 
ATOM     14  C   UNL     1     113.715 130.079 140.643  0.00  0.00    +0.000 A 
ATOM     15  C   UNL     1     112.474 129.542 141.102  0.00  0.00    +0.000 A 
ATOM     16  C   UNL     1     113.705 130.628 141.258  0.00  0.00    +0.000 A 
ATOM     17  C   UNL     1     112.463 130.091 141.718  0.00  0.00    +0.000 A 
ATOM     18  C   UNL     1     113.079 130.634 141.796  0.00  0.00    +0.000 A 
BRANCH  16  19
ATOM     19  O   UNL     1     114.321 131.172 141.337  0.00  0.00    +0.000 OA
ATOM     20  C   UNL     1     115.002 131.092 140.879  0.00  0.00    +0.000 C 
ENDBRANCH  16  19
BRANCH  18  21
ATOM     21  O   UNL     1     113.069 131.183 142.411  0.00  0.00    +0.000 OA
ATOM     22  C   UNL     1     112.381 131.295 142.853  0.00  0.00    +0.000 C 
ENDBRANCH  18  21
ENDBRANCH  12  13
BRANCH   4  23
ATOM     23  O   UNL     1     113.473 126.559 138.217  0.00  0.00    +0.000 OA
BRANCH  23  32
ATOM     24  O   UNL     1     112.329 125.711 138.099  0.00  0.00    +0.000 OA
ATOM     25  O   UNL     1     113.582 124.235 136.556  0.00  0.00    +0.000 OA
ATOM     26  O   UNL     1     112.021 123.879 136.953  0.00  0.00    +0.000 OA
ATOM     27  O   UNL     1     114.308 125.575 137.188  0.00  0.00    +0.000 OA
ATOM     28  C   UNL     1     113.164 124.727 137.071  0.00  0.00    +0.000 C 
ATOM     29  C   UNL     1     112.384 124.549 137.269  0.00  0.00    +0.000 C 
ATOM     30  C   UNL     1     113.528 125.398 137.387  0.00  0.00    +0.000 C 
ATOM     31  C   UNL     1     111.966 125.041 137.784  0.00  0.00    +0.000 C 
ATOM     32  C   UNL     1     113.110 125.889 137.901  0.00  0.00    +0.000 C 
BRANCH  31  34
ATOM     33  O   UNL     1     110.900 125.040 138.735  0.00  0.00    +0.000 OA
ATOM     34  C   UNL     1     111.186 124.863 137.982  0.00  0.00    +0.000 C 
ENDBRANCH  31  34
ENDBRANCH  23  32
ENDBRANCH   4  23
BRANCH   5  35
ATOM     35  O   UNL     1     112.167 128.489 136.456  0.00  0.00    +0.000 OA
BRANCH  35  43
ATOM     36  O   UNL     1     110.779 128.393 136.779  0.00  0.00    +0.000 OA
ATOM     37  O   UNL     1     110.351 127.277 134.612  0.00  0.00    +0.000 OA
ATOM     38  O   UNL     1     111.882 127.745 135.011  0.00  0.00    +0.000 OA
ATOM     39  O   UNL     1     109.105 127.553 135.658  0.00  0.00    +0.000 OA
ATOM     40  C   UNL     1     110.493 127.649 135.334  0.00  0.00    +0.000 C 
ATOM     41  C   UNL     1     111.259 127.883 135.534  0.00  0.00    +0.000 C 
ATOM     42  C   UNL     1     109.871 127.787 135.858  0.00  0.00    +0.000 C 
ATOM     43  C   UNL     1     111.402 128.255 136.256  0.00  0.00    +0.000 C 
ATOM     44  C   UNL     1     110.013 128.159 136.580  0.00  0.00    +0.000 C 
BRANCH  44  47
ATOM     45  O   UNL     1     108.984 129.015 137.079  0.00  0.00    +0.000 OA
ATOM     46  O   UNL     1     109.174 127.719 137.650  0.00  0.00    +0.000 OA
ATOM     47  C   UNL     1     109.390 128.297 137.103  0.00  0.00    +0.000 C 
ENDBRANCH  44  47
ENDBRANCH  35  43
ENDBRANCH   5  35
TORSDOF 9
ENDMDL
MODEL 3
REMARK VINA RESULT:      -9.4      1.840      3.053
REMARK  Name = 44259417
REMARK  9 active torsions:
REMARK  status: ('A' for Active; 'I' for Inactive)
REMARK    1  A    between atoms: O_3  and  C_23
REMARK    2  A    between atoms: O_3  and  C_30
REMARK    3  A    between atoms: O_7  and  C_27
REMARK    4  A    between atoms: O_7  and  C_31
REMARK    5  A    between atoms: O_17  and  C_43
REMARK    6  A    between atoms: O_18  and  C_45
REMARK    7  A    between atoms: C_22  and  C_29
REMARK    8  A    between atoms: C_28  and  C_32
REMARK    9  A    between atoms: C_39  and  C_40
REMARK                            x       y       z     vdW  Elec       q    Type
REMARK                         _______ _______ _______ _____ _____    ______ ____
ROOT
ATOM      1  O   UNL     1     112.842 127.206 138.277  0.00  0.00    +0.000 OA
ATOM      2  O   UNL     1     111.359 128.672 136.944  0.00  0.00    +0.000 OA
ATOM      3  O   UNL     1     111.517 127.079 136.547  0.00  0.00    +0.000 OA
ATOM      4  C   UNL     1     112.177 129.324 138.228  0.00  0.00    +0.000 A 
ATOM      5  C   UNL     1     113.122 129.141 139.359  0.00  0.00    +0.000 A 
ATOM      6  C   UNL     1     112.268 128.491 138.032  0.00  0.00    +0.000 A 
ATOM      7  C   UNL     1     112.607 129.650 138.897  0.00  0.00    +0.000 A 
ATOM      8  C   UNL     1     112.763 128.003 138.476  0.00  0.00    +0.000 A 
ATOM      9  C   UNL     1     113.200 128.312 139.148  0.00  0.00    +0.000 A 
ATOM     10  C   UNL     1     111.853 128.184 137.389  0.00  0.00    +0.000 A 
ATOM     11  C   UNL     1     111.932 127.387 137.190  0.00  0.00    +0.000 A 
ATOM     12  C   UNL     1     112.426 126.898 137.634  0.00  0.00    +0.000 A 
ENDROOT
BRANCH  12  13
ATOM     13  C   UNL     1     112.505 126.101 137.435  0.00  0.00    +0.000 A 
ATOM     14  C   UNL     1     113.157 125.847 136.999  0.00  0.00    +0.000 A 
ATOM     15  C   UNL     1     111.931 125.559 137.673  0.00  0.00    +0.000 A 
ATOM     16  C   UNL     1     113.235 125.050 136.801  0.00  0.00    +0.000 A 
ATOM     17  C   UNL     1     112.008 124.761 137.475  0.00  0.00    +0.000 A 
ATOM     18  C   UNL     1     112.661 124.507 137.038  0.00  0.00    +0.000 A 
BRANCH  16  19
ATOM     19  O   UNL     1     113.888 124.796 136.364  0.00  0.00    +0.000 OA
ATOM     20  C   UNL     1     114.589 125.230 136.380  0.00  0.00    +0.000 C 
ENDBRANCH  16  19
BRANCH  18  21
ATOM     21  O   UNL     1     112.739 123.711 136.839  0.00  0.00    +0.000 OA
ATOM     22  C   UNL     1     112.139 123.177 137.029  0.00  0.00    +0.000 C 
ENDBRANCH  18  21
ENDBRANCH  12  13
BRANCH   4  23
ATOM     23  O   UNL     1     111.681 129.805 137.779  0.00  0.00    +0.000 OA
BRANCH  23  32
ATOM     24  O   UNL     1     110.560 129.990 138.645  0.00  0.00    +0.000 OA
ATOM     25  O   UNL     1     110.689 132.436 138.290  0.00  0.00    +0.000 OA
ATOM     26  O   UNL     1     109.525 131.806 139.274  0.00  0.00    +0.000 OA
ATOM     27  O   UNL     1     111.767 131.436 137.542  0.00  0.00    +0.000 OA
ATOM     28  C   UNL     1     110.646 131.621 138.408  0.00  0.00    +0.000 C 
ATOM     29  C   UNL     1     110.064 131.305 138.900  0.00  0.00    +0.000 C 
ATOM     30  C   UNL     1     111.185 131.120 138.034  0.00  0.00    +0.000 C 
ATOM     31  C   UNL     1     110.021 130.490 139.018  0.00  0.00    +0.000 C 
ATOM     32  C   UNL     1     111.142 130.305 138.152  0.00  0.00    +0.000 C 
BRANCH  31  34
ATOM     33  O   UNL     1     109.061 129.470 139.306  0.00  0.00    +0.000 OA
ATOM     34  C   UNL     1     109.439 130.175 139.510  0.00  0.00    +0.000 C 
ENDBRANCH  31  34
ENDBRANCH  23  32
ENDBRANCH   4  23
BRANCH   5  35
ATOM     35  O   UNL     1     113.539 129.446 140.003  0.00  0.00    +0.000 OA
BRANCH  35  43
ATOM     36  O   UNL     1     112.666 129.022 141.051  0.00  0.00    +0.000 OA
ATOM     37  O   UNL     1     112.941 131.215 142.165  0.00  0.00    +0.000 OA
ATOM     38  O   UNL     1     113.723 130.907 140.745  0.00  0.00    +0.000 OA
ATOM     39  O   UNL     1     111.975 130.060 142.843  0.00  0.00    +0.000 OA
ATOM     40  C   UNL     1     112.849 130.484 141.794  0.00  0.00    +0.000 C 
ATOM     41  C   UNL     1     113.240 130.331 141.084  0.00  0.00    +0.000 C 
ATOM     42  C   UNL     1     112.367 129.907 142.133  0.00  0.00    +0.000 C 
ATOM     43  C   UNL     1     113.149 129.600 140.712  0.00  0.00    +0.000 C 
ATOM     44  C   UNL     1     112.275 129.176 141.761  0.00  0.00    +0.000 C 
BRANCH  44  47
ATOM     45  O   UNL     1     112.121 128.025 142.594  0.00  0.00    +0.000 OA
ATOM     46  O   UNL     1     110.982 128.594 141.944  0.00  0.00    +0.000 OA
ATOM     47  C   UNL     1     111.792 128.598 142.100  0.00  0.00    +0.000 C 
ENDBRANCH  44  47
ENDBRANCH  35  43
ENDBRANCH   5  35
TORSDOF 9
ENDMDL
MODEL 4
REMARK VINA RESULT:      -9.4      1.099      3.698
REMARK  Name = 44259417
REMARK  9 active torsions:
REMARK  status: ('A' for Active; 'I' for Inactive)
REMARK    1  A    between atoms: O_3  and  C_23
REMARK    2  A    between atoms: O_3  and  C_30
REMARK    3  A    between atoms: O_7  and  C_27
REMARK    4  A    between atoms: O_7  and  C_31
REMARK    5  A    between atoms: O_17  and  C_43
REMARK    6  A    between atoms: O_18  and  C_45
REMARK    7  A    between atoms: C_22  and  C_29
REMARK    8  A    between atoms: C_28  and  C_32
REMARK    9  A    between atoms: C_39  and  C_40
REMARK                            x       y       z     vdW  Elec       q    Type
REMARK                         _______ _______ _______ _____ _____    ______ ____
ROOT
ATOM      1  O   UNL     1     111.928 127.516 137.431  0.00  0.00    +0.000 OA
ATOM      2  O   UNL     1     111.786 127.996 139.855  0.00  0.00    +0.000 OA
ATOM      3  O   UNL     1     112.079 126.458 139.334  0.00  0.00    +0.000 OA
ATOM      4  C   UNL     1     111.581 129.242 138.784  0.00  0.00    +0.000 A 
ATOM      5  C   UNL     1     111.526 129.714 137.377  0.00  0.00    +0.000 A 
ATOM      6  C   UNL     1     111.733 128.445 138.500  0.00  0.00    +0.000 A 
ATOM      7  C   UNL     1     111.476 129.880 138.218  0.00  0.00    +0.000 A 
ATOM      8  C   UNL     1     111.781 128.286 137.691  0.00  0.00    +0.000 A 
ATOM      9  C   UNL     1     111.679 128.911 137.112  0.00  0.00    +0.000 A 
ATOM     10  C   UNL     1     111.833 127.836 139.047  0.00  0.00    +0.000 A 
ATOM     11  C   UNL     1     111.980 127.067 138.787  0.00  0.00    +0.000 A 
ATOM     12  C   UNL     1     112.027 126.908 137.979  0.00  0.00    +0.000 A 
ENDROOT
BRANCH  12  13
ATOM     13  C   UNL     1     112.174 126.138 137.719  0.00  0.00    +0.000 A 
ATOM     14  C   UNL     1     112.944 125.901 137.544  0.00  0.00    +0.000 A 
ATOM     15  C   UNL     1     111.550 125.606 137.634  0.00  0.00    +0.000 A 
ATOM     16  C   UNL     1     113.090 125.132 137.284  0.00  0.00    +0.000 A 
ATOM     17  C   UNL     1     111.695 124.836 137.374  0.00  0.00    +0.000 A 
ATOM     18  C   UNL     1     112.466 124.600 137.199  0.00  0.00    +0.000 A 
BRANCH  16  19
ATOM     19  O   UNL     1     113.862 124.896 137.109  0.00  0.00    +0.000 OA
ATOM     20  C   UNL     1     114.434 125.460 136.924  0.00  0.00    +0.000 C 
ENDBRANCH  16  19
BRANCH  18  21
ATOM     21  O   UNL     1     112.613 123.831 136.939  0.00  0.00    +0.000 OA
ATOM     22  C   UNL     1     112.005 123.272 136.938  0.00  0.00    +0.000 C 
ENDBRANCH  18  21
ENDBRANCH  12  13
BRANCH   4  23
ATOM     23  O   UNL     1     111.535 129.392 139.594  0.00  0.00    +0.000 OA
BRANCH  23  32
ATOM     24  O   UNL     1     110.151 129.705 139.764  0.00  0.00    +0.000 OA
ATOM     25  O   UNL     1     110.766 131.747 141.020  0.00  0.00    +0.000 OA
ATOM     26  O   UNL     1     109.178 131.378 140.772  0.00  0.00    +0.000 OA
ATOM     27  O   UNL     1     111.945 130.754 140.431  0.00  0.00    +0.000 OA
ATOM     28  C   UNL     1     110.561 131.066 140.601  0.00  0.00    +0.000 C 
ATOM     29  C   UNL     1     109.767 130.881 140.477  0.00  0.00    +0.000 C 
ATOM     30  C   UNL     1     111.151 130.569 140.306  0.00  0.00    +0.000 C 
ATOM     31  C   UNL     1     109.562 130.201 140.059  0.00  0.00    +0.000 C 
ATOM     32  C   UNL     1     110.946 129.888 139.888  0.00  0.00    +0.000 C 
BRANCH  31  34
ATOM     33  O   UNL     1     108.531 129.228 139.877  0.00  0.00    +0.000 OA
ATOM     34  C   UNL     1     108.768 130.017 139.935  0.00  0.00    +0.000 C 
ENDBRANCH  31  34
ENDBRANCH  23  32
ENDBRANCH   4  23
BRANCH   5  35
ATOM     35  O   UNL     1     111.427 130.321 136.827  0.00  0.00    +0.000 OA
BRANCH  35  43
ATOM     36  O   UNL     1     110.080 130.057 136.430  0.00  0.00    +0.000 OA
ATOM     37  O   UNL     1     109.579 132.479 136.519  0.00  0.00    +0.000 OA
ATOM     38  O   UNL     1     111.093 131.935 136.887  0.00  0.00    +0.000 OA
ATOM     39  O   UNL     1     108.399 131.407 136.092  0.00  0.00    +0.000 OA
ATOM     40  C   UNL     1     109.746 131.672 136.489  0.00  0.00    +0.000 C 
ATOM     41  C   UNL     1     110.503 131.400 136.673  0.00  0.00    +0.000 C 
ATOM     42  C   UNL     1     109.156 131.135 136.276  0.00  0.00    +0.000 C 
ATOM     43  C   UNL     1     110.671 130.593 136.643  0.00  0.00    +0.000 C 
ATOM     44  C   UNL     1     109.323 130.328 136.246  0.00  0.00    +0.000 C 
BRANCH  44  47
ATOM     45  O   UNL     1     108.214 129.502 136.604  0.00  0.00    +0.000 OA
ATOM     46  O   UNL     1     108.662 129.547 135.248  0.00  0.00    +0.000 OA
ATOM     47  C   UNL     1     108.733 129.792 136.032  0.00  0.00    +0.000 C 
ENDBRANCH  44  47
ENDBRANCH  35  43
ENDBRANCH   5  35
TORSDOF 9
ENDMDL
MODEL 5
REMARK VINA RESULT:      -9.4      1.867      4.235
REMARK  Name = 44259417
REMARK  9 active torsions:
REMARK  status: ('A' for Active; 'I' for Inactive)
REMARK    1  A    between atoms: O_3  and  C_23
REMARK    2  A    between atoms: O_3  and  C_30
REMARK    3  A    between atoms: O_7  and  C_27
REMARK    4  A    between atoms: O_7  and  C_31
REMARK    5  A    between atoms: O_17  and  C_43
REMARK    6  A    between atoms: O_18  and  C_45
REMARK    7  A    between atoms: C_22  and  C_29
REMARK    8  A    between atoms: C_28  and  C_32
REMARK    9  A    between atoms: C_39  and  C_40
REMARK                            x       y       z     vdW  Elec       q    Type
REMARK                         _______ _______ _______ _____ _____    ______ ____
ROOT
ATOM      1  O   UNL     1     112.600 127.352 137.723  0.00  0.00    +0.000 OA
ATOM      2  O   UNL     1     113.813 127.603 139.866  0.00  0.00    +0.000 OA
ATOM      3  O   UNL     1     113.662 126.114 139.173  0.00  0.00    +0.000 OA
ATOM      4  C   UNL     1     113.165 128.952 139.155  0.00  0.00    +0.000 A 
ATOM      5  C   UNL     1     112.404 129.557 138.033  0.00  0.00    +0.000 A 
ATOM      6  C   UNL     1     113.080 128.181 138.784  0.00  0.00    +0.000 A 
ATOM      7  C   UNL     1     112.825 129.644 138.777  0.00  0.00    +0.000 A 
ATOM      8  C   UNL     1     112.675 128.098 138.069  0.00  0.00    +0.000 A 
ATOM      9  C   UNL     1     112.329 128.779 137.677  0.00  0.00    +0.000 A 
ATOM     10  C   UNL     1     113.409 127.520 139.152  0.00  0.00    +0.000 A 
ATOM     11  C   UNL     1     113.333 126.775 138.805  0.00  0.00    +0.000 A 
ATOM     12  C   UNL     1     112.929 126.692 138.091  0.00  0.00    +0.000 A 
ENDROOT
BRANCH  12  13
ATOM     13  C   UNL     1     112.854 125.946 137.744  0.00  0.00    +0.000 A 
ATOM     14  C   UNL     1     113.423 125.679 137.212  0.00  0.00    +0.000 A 
ATOM     15  C   UNL     1     112.207 125.469 137.931  0.00  0.00    +0.000 A 
ATOM     16  C   UNL     1     113.348 124.934 136.867  0.00  0.00    +0.000 A 
ATOM     17  C   UNL     1     112.131 124.723 137.586  0.00  0.00    +0.000 A 
ATOM     18  C   UNL     1     112.702 124.456 137.053  0.00  0.00    +0.000 A 
BRANCH  16  19
ATOM     19  O   UNL     1     113.919 124.666 136.334  0.00  0.00    +0.000 OA
ATOM     20  C   UNL     1     114.585 125.126 136.178  0.00  0.00    +0.000 C 
ENDBRANCH  16  19
BRANCH  18  21
ATOM     21  O   UNL     1     112.626 123.711 136.707  0.00  0.00    +0.000 OA
ATOM     22  C   UNL     1     111.960 123.249 136.862  0.00  0.00    +0.000 C 
ENDBRANCH  18  21
ENDBRANCH  12  13
BRANCH   4  23
ATOM     23  O   UNL     1     113.571 129.026 139.870  0.00  0.00    +0.000 OA
BRANCH  23  32
ATOM     24  O   UNL     1     112.516 129.354 140.775  0.00  0.00    +0.000 OA
ATOM     25  O   UNL     1     113.857 131.239 141.655  0.00  0.00    +0.000 OA
ATOM     26  O   UNL     1     112.355 130.939 142.267  0.00  0.00    +0.000 OA
ATOM     27  O   UNL     1     114.465 130.283 140.456  0.00  0.00    +0.000 OA
ATOM     28  C   UNL     1     113.410 130.611 141.362  0.00  0.00    +0.000 C 
ATOM     29  C   UNL     1     112.659 130.461 141.667  0.00  0.00    +0.000 C 
ATOM     30  C   UNL     1     113.714 130.132 140.762  0.00  0.00    +0.000 C 
ATOM     31  C   UNL     1     112.212 129.832 141.374  0.00  0.00    +0.000 C 
ATOM     32  C   UNL     1     113.267 129.504 140.469  0.00  0.00    +0.000 C 
BRANCH  31  34
ATOM     33  O   UNL     1     111.174 128.910 141.711  0.00  0.00    +0.000 OA
ATOM     34  C   UNL     1     111.461 129.683 141.680  0.00  0.00    +0.000 C 
ENDBRANCH  31  34
ENDBRANCH  23  32
ENDBRANCH   4  23
BRANCH   5  35
ATOM     35  O   UNL     1     112.074 130.216 137.662  0.00  0.00    +0.000 OA
BRANCH  35  43
ATOM     36  O   UNL     1     110.705 130.007 138.012  0.00  0.00    +0.000 OA
ATOM     37  O   UNL     1     110.460 132.421 138.498  0.00  0.00    +0.000 OA
ATOM     38  O   UNL     1     111.911 131.825 137.986  0.00  0.00    +0.000 OA
ATOM     39  O   UNL     1     109.172 131.406 138.685  0.00  0.00    +0.000 OA
ATOM     40  C   UNL     1     110.541 131.616 138.336  0.00  0.00    +0.000 C 
ATOM     41  C   UNL     1     111.267 131.319 138.080  0.00  0.00    +0.000 C 
ATOM     42  C   UNL     1     109.898 131.109 138.429  0.00  0.00    +0.000 C 
ATOM     43  C   UNL     1     111.349 130.514 137.918  0.00  0.00    +0.000 C 
ATOM     44  C   UNL     1     109.979 130.304 138.267  0.00  0.00    +0.000 C 
BRANCH  44  47
ATOM     45  O   UNL     1     108.868 129.600 137.710  0.00  0.00    +0.000 OA
ATOM     46  O   UNL     1     109.159 129.485 139.104  0.00  0.00    +0.000 OA
ATOM     47  C   UNL     1     109.335 129.796 138.361  0.00  0.00    +0.000 C 
ENDBRANCH  44  47
ENDBRANCH  35  43
ENDBRANCH   5  35
TORSDOF 9
ENDMDL
MODEL 6
REMARK VINA RESULT:      -9.3      6.507      8.820
REMARK  Name = 44259417
REMARK  9 active torsions:
REMARK  status: ('A' for Active; 'I' for Inactive)
REMARK    1  A    between atoms: O_3  and  C_23
REMARK    2  A    between atoms: O_3  and  C_30
REMARK    3  A    between atoms: O_7  and  C_27
REMARK    4  A    between atoms: O_7  and  C_31
REMARK    5  A    between atoms: O_17  and  C_43
REMARK    6  A    between atoms: O_18  and  C_45
REMARK    7  A    between atoms: C_22  and  C_29
REMARK    8  A    between atoms: C_28  and  C_32
REMARK    9  A    between atoms: C_39  and  C_40
REMARK                            x       y       z     vdW  Elec       q    Type
REMARK                         _______ _______ _______ _____ _____    ______ ____
ROOT
ATOM      1  O   UNL     1     106.258 126.366 145.286  0.00  0.00    +0.000 OA
ATOM      2  O   UNL     1     105.905 124.451 143.759  0.00  0.00    +0.000 OA
ATOM      3  O   UNL     1     106.118 124.190 145.374  0.00  0.00    +0.000 OA
ATOM      4  C   UNL     1     105.922 125.981 143.126  0.00  0.00    +0.000 A 
ATOM      5  C   UNL     1     106.055 127.444 143.339  0.00  0.00    +0.000 A 
ATOM      6  C   UNL     1     106.034 125.858 143.970  0.00  0.00    +0.000 A 
ATOM      7  C   UNL     1     105.933 126.780 142.809  0.00  0.00    +0.000 A 
ATOM      8  C   UNL     1     106.152 126.497 144.478  0.00  0.00    +0.000 A 
ATOM      9  C   UNL     1     106.166 127.302 144.179  0.00  0.00    +0.000 A 
ATOM     10  C   UNL     1     106.023 125.089 144.267  0.00  0.00    +0.000 A 
ATOM     11  C   UNL     1     106.129 124.958 145.076  0.00  0.00    +0.000 A 
ATOM     12  C   UNL     1     106.247 125.597 145.584  0.00  0.00    +0.000 A 
ENDROOT
BRANCH  12  13
ATOM     13  C   UNL     1     106.354 125.466 146.392  0.00  0.00    +0.000 A 
ATOM     14  C   UNL     1     105.711 125.512 146.906  0.00  0.00    +0.000 A 
ATOM     15  C   UNL     1     107.104 125.289 146.685  0.00  0.00    +0.000 A 
ATOM     16  C   UNL     1     105.818 125.381 147.713  0.00  0.00    +0.000 A 
ATOM     17  C   UNL     1     107.212 125.157 147.493  0.00  0.00    +0.000 A 
ATOM     18  C   UNL     1     106.568 125.204 148.007  0.00  0.00    +0.000 A 
BRANCH  16  19
ATOM     19  O   UNL     1     105.174 125.427 148.228  0.00  0.00    +0.000 OA
ATOM     20  C   UNL     1     104.498 125.844 148.006  0.00  0.00    +0.000 C 
ENDBRANCH  16  19
BRANCH  18  21
ATOM     21  O   UNL     1     106.675 125.073 148.814  0.00  0.00    +0.000 OA
ATOM     22  C   UNL     1     107.364 124.709 149.086  0.00  0.00    +0.000 C 
ENDBRANCH  18  21
ENDBRANCH  12  13
BRANCH   4  23
ATOM     23  O   UNL     1     105.805 125.336 142.624  0.00  0.00    +0.000 OA
BRANCH  23  32
ATOM     24  O   UNL     1     106.991 125.350 141.828  0.00  0.00    +0.000 OA
ATOM     25  O   UNL     1     105.616 125.200 139.776  0.00  0.00    +0.000 OA
ATOM     26  O   UNL     1     107.260 125.264 139.664  0.00  0.00    +0.000 OA
ATOM     27  O   UNL     1     104.888 125.236 141.256  0.00  0.00    +0.000 OA
ATOM     28  C   UNL     1     106.074 125.250 140.460  0.00  0.00    +0.000 C 
ATOM     29  C   UNL     1     106.896 125.282 140.404  0.00  0.00    +0.000 C 
ATOM     30  C   UNL     1     105.710 125.268 141.201  0.00  0.00    +0.000 C 
ATOM     31  C   UNL     1     107.355 125.332 141.088  0.00  0.00    +0.000 C 
ATOM     32  C   UNL     1     106.168 125.318 141.885  0.00  0.00    +0.000 C 
BRANCH  31  34
ATOM     33  O   UNL     1     108.641 124.818 141.441  0.00  0.00    +0.000 OA
ATOM     34  C   UNL     1     108.177 125.364 141.032  0.00  0.00    +0.000 C 
ENDBRANCH  31  34
ENDBRANCH  23  32
ENDBRANCH   4  23
BRANCH   5  35
ATOM     35  O   UNL     1     106.067 128.215 143.044  0.00  0.00    +0.000 OA
BRANCH  35  43
ATOM     36  O   UNL     1     107.483 128.408 143.040  0.00  0.00    +0.000 OA
ATOM     37  O   UNL     1     107.317 129.585 140.870  0.00  0.00    +0.000 OA
ATOM     38  O   UNL     1     105.956 128.999 141.597  0.00  0.00    +0.000 OA
ATOM     39  O   UNL     1     108.788 129.385 141.590  0.00  0.00    +0.000 OA
ATOM     40  C   UNL     1     107.372 129.193 141.593  0.00  0.00    +0.000 C 
ATOM     41  C   UNL     1     106.692 128.900 141.957  0.00  0.00    +0.000 C 
ATOM     42  C   UNL     1     108.108 129.093 141.954  0.00  0.00    +0.000 C 
ATOM     43  C   UNL     1     106.746 128.507 142.680  0.00  0.00    +0.000 C 
ATOM     44  C   UNL     1     108.163 128.700 142.677  0.00  0.00    +0.000 C 
BRANCH  44  47
ATOM     45  O   UNL     1     109.135 129.112 143.640  0.00  0.00    +0.000 OA
ATOM     46  O   UNL     1     109.397 127.989 142.796  0.00  0.00    +0.000 OA
ATOM     47  C   UNL     1     108.898 128.600 143.037  0.00  0.00    +0.000 C 
ENDBRANCH  44  47
ENDBRANCH  35  43
ENDBRANCH   5  35
TORSDOF 9
ENDMDL
MODEL 7
REMARK VINA RESULT:      -9.3      2.934      4.140
REMARK  Name = 44259417
REMARK  9 active torsions:
REMARK  status: ('A' for Active; 'I' for Inactive)
REMARK    1  A    between atoms: O_3  and  C_23
REMARK    2  A    between atoms: O_3  and  C_30
REMARK    3  A    between atoms: O_7  and  C_27
REMARK    4  A    between atoms: O_7  and  C_31
REMARK    5  A    between atoms: O_17  and  C_43
REMARK    6  A    between atoms: O_18  and  C_45
REMARK    7  A    between atoms: C_22  and  C_29
REMARK    8  A    between atoms: C_28  and  C_32
REMARK    9  A    between atoms: C_39  and  C_40
REMARK                            x       y       z     vdW  Elec       q    Type
REMARK                         _______ _______ _______ _____ _____    ______ ____
ROOT
ATOM      1  O   UNL     1     112.969 126.696 139.379  0.00  0.00    +0.000 OA
ATOM      2  O   UNL     1     110.638 125.872 139.260  0.00  0.00    +0.000 OA
ATOM      3  O   UNL     1     111.666 125.622 137.995  0.00  0.00    +0.000 OA
ATOM      4  C   UNL     1     111.131 126.670 140.625  0.00  0.00    +0.000 A 
ATOM      5  C   UNL     1     112.208 127.371 141.369  0.00  0.00    +0.000 A 
ATOM      6  C   UNL     1     111.677 126.546 139.972  0.00  0.00    +0.000 A 
ATOM      7  C   UNL     1     111.399 127.085 141.328  0.00  0.00    +0.000 A 
ATOM      8  C   UNL     1     112.454 126.821 140.013  0.00  0.00    +0.000 A 
ATOM      9  C   UNL     1     112.739 127.238 140.707  0.00  0.00    +0.000 A 
ATOM     10  C   UNL     1     111.414 126.147 139.300  0.00  0.00    +0.000 A 
ATOM     11  C   UNL     1     111.929 126.021 138.667  0.00  0.00    +0.000 A 
ATOM     12  C   UNL     1     112.706 126.296 138.707  0.00  0.00    +0.000 A 
ENDROOT
BRANCH  12  13
ATOM     13  C   UNL     1     113.220 126.171 138.074  0.00  0.00    +0.000 A 
ATOM     14  C   UNL     1     113.290 126.738 137.480  0.00  0.00    +0.000 A 
ATOM     15  C   UNL     1     113.665 125.477 138.036  0.00  0.00    +0.000 A 
ATOM     16  C   UNL     1     113.804 126.612 136.848  0.00  0.00    +0.000 A 
ATOM     17  C   UNL     1     114.180 125.351 137.404  0.00  0.00    +0.000 A 
ATOM     18  C   UNL     1     114.249 125.919 136.809  0.00  0.00    +0.000 A 
BRANCH  16  19
ATOM     19  O   UNL     1     113.873 127.181 136.253  0.00  0.00    +0.000 OA
ATOM     20  C   UNL     1     113.537 127.927 136.354  0.00  0.00    +0.000 C 
ENDBRANCH  16  19
BRANCH  18  21
ATOM     21  O   UNL     1     114.763 125.793 136.176  0.00  0.00    +0.000 OA
ATOM     22  C   UNL     1     115.191 125.089 136.125  0.00  0.00    +0.000 C 
ENDBRANCH  18  21
ENDBRANCH  12  13
BRANCH   4  23
ATOM     23  O   UNL     1     110.356 126.392 140.576  0.00  0.00    +0.000 OA
BRANCH  23  32
ATOM     24  O   UNL     1     109.625 127.620 140.569  0.00  0.00    +0.000 OA
ATOM     25  O   UNL     1     108.083 126.712 142.279  0.00  0.00    +0.000 OA
ATOM     26  O   UNL     1     107.866 128.241 141.701  0.00  0.00    +0.000 OA
ATOM     27  O   UNL     1     109.328 125.787 141.716  0.00  0.00    +0.000 OA
ATOM     28  C   UNL     1     108.597 127.014 141.709  0.00  0.00    +0.000 C 
ATOM     29  C   UNL     1     108.489 127.779 141.420  0.00  0.00    +0.000 C 
ATOM     30  C   UNL     1     109.220 126.552 141.427  0.00  0.00    +0.000 C 
ATOM     31  C   UNL     1     109.003 128.082 140.850  0.00  0.00    +0.000 C 
ATOM     32  C   UNL     1     109.734 126.854 140.857  0.00  0.00    +0.000 C 
BRANCH  31  34
ATOM     33  O   UNL     1     109.006 129.006 139.759  0.00  0.00    +0.000 OA
ATOM     34  C   UNL     1     108.894 128.847 140.561  0.00  0.00    +0.000 C 
ENDBRANCH  31  34
ENDBRANCH  23  32
ENDBRANCH   4  23
BRANCH   5  35
ATOM     35  O   UNL     1     112.473 127.771 142.040  0.00  0.00    +0.000 OA
BRANCH  35  43
ATOM     36  O   UNL     1     112.498 129.107 141.534  0.00  0.00    +0.000 OA
ATOM     37  O   UNL     1     111.441 129.917 143.619  0.00  0.00    +0.000 OA
ATOM     38  O   UNL     1     111.769 128.311 143.430  0.00  0.00    +0.000 OA
ATOM     39  O   UNL     1     111.818 130.983 142.417  0.00  0.00    +0.000 OA
ATOM     40  C   UNL     1     111.793 129.647 142.924  0.00  0.00    +0.000 C 
ATOM     41  C   UNL     1     111.957 128.844 142.830  0.00  0.00    +0.000 C 
ATOM     42  C   UNL     1     111.982 130.180 142.323  0.00  0.00    +0.000 C 
ATOM     43  C   UNL     1     112.309 128.573 142.135  0.00  0.00    +0.000 C 
ATOM     44  C   UNL     1     112.334 129.910 141.628  0.00  0.00    +0.000 C 
BRANCH  44  47
ATOM     45  O   UNL     1     111.953 130.649 140.466  0.00  0.00    +0.000 OA
ATOM     46  O   UNL     1     113.279 130.768 140.985  0.00  0.00    +0.000 OA
ATOM     47  C   UNL     1     112.522 130.442 141.026  0.00  0.00    +0.000 C 
ENDBRANCH  44  47
ENDBRANCH  35  43
ENDBRANCH   5  35
TORSDOF 9
ENDMDL
MODEL 8
REMARK VINA RESULT:      -9.3      6.845      9.238
REMARK  Name = 44259417
REMARK  9 active torsions:
REMARK  status: ('A' for Active; 'I' for Inactive)
REMARK    1  A    between atoms: O_3  and  C_23
REMARK    2  A    between atoms: O_3  and  C_30
REMARK    3  A    between atoms: O_7  and  C_27
REMARK    4  A    between atoms: O_7  and  C_31
REMARK    5  A    between atoms: O_17  and  C_43
REMARK    6  A    between atoms: O_18  and  C_45
REMARK    7  A    between atoms: C_22  and  C_29
REMARK    8  A    between atoms: C_28  and  C_32
REMARK    9  A    between atoms: C_39  and  C_40
REMARK                            x       y       z     vdW  Elec       q    Type
REMARK                         _______ _______ _______ _____ _____    ______ ____
ROOT
ATOM      1  O   UNL     1     106.290 125.193 145.382  0.00  0.00    +0.000 OA
ATOM      2  O   UNL     1     106.082 127.646 145.125  0.00  0.00    +0.000 OA
ATOM      3  O   UNL     1     106.497 127.002 146.586  0.00  0.00    +0.000 OA
ATOM      4  C   UNL     1     105.798 126.681 143.809  0.00  0.00    +0.000 A 
ATOM      5  C   UNL     1     105.726 125.318 143.223  0.00  0.00    +0.000 A 
ATOM      6  C   UNL     1     106.013 126.333 144.566  0.00  0.00    +0.000 A 
ATOM      7  C   UNL     1     105.653 126.170 143.134  0.00  0.00    +0.000 A 
ATOM      8  C   UNL     1     106.083 125.515 144.651  0.00  0.00    +0.000 A 
ATOM      9  C   UNL     1     105.942 124.989 143.987  0.00  0.00    +0.000 A 
ATOM     10  C   UNL     1     106.151 126.829 145.210  0.00  0.00    +0.000 A 
ATOM     11  C   UNL     1     106.359 126.507 145.941  0.00  0.00    +0.000 A 
ATOM     12  C   UNL     1     106.428 125.689 146.026  0.00  0.00    +0.000 A 
ENDROOT
BRANCH  12  13
ATOM     13  C   UNL     1     106.636 125.367 146.758  0.00  0.00    +0.000 A 
ATOM     14  C   UNL     1     106.055 125.049 147.249  0.00  0.00    +0.000 A 
ATOM     15  C   UNL     1     107.425 125.364 146.997  0.00  0.00    +0.000 A 
ATOM     16  C   UNL     1     106.263 124.728 147.979  0.00  0.00    +0.000 A 
ATOM     17  C   UNL     1     107.634 125.043 147.728  0.00  0.00    +0.000 A 
ATOM     18  C   UNL     1     107.053 124.725 148.219  0.00  0.00    +0.000 A 
BRANCH  16  19
ATOM     19  O   UNL     1     105.681 124.410 148.471  0.00  0.00    +0.000 OA
ATOM     20  C   UNL     1     104.890 124.614 148.359  0.00  0.00    +0.000 C 
ENDBRANCH  16  19
BRANCH  18  21
ATOM     21  O   UNL     1     107.260 124.403 148.950  0.00  0.00    +0.000 OA
ATOM     22  C   UNL     1     108.028 124.494 149.237  0.00  0.00    +0.000 C 
ENDBRANCH  18  21
ENDBRANCH  12  13
BRANCH   4  23
ATOM     23  O   UNL     1     105.731 127.500 143.733  0.00  0.00    +0.000 OA
BRANCH  23  32
ATOM     24  O   UNL     1     106.922 127.868 143.036  0.00  0.00    +0.000 OA
ATOM     25  O   UNL     1     105.566 129.087 141.362  0.00  0.00    +0.000 OA
ATOM     26  O   UNL     1     107.209 129.049 141.223  0.00  0.00    +0.000 OA
ATOM     27  O   UNL     1     104.827 128.312 142.617  0.00  0.00    +0.000 OA
ATOM     28  C   UNL     1     106.018 128.681 141.920  0.00  0.00    +0.000 C 
ATOM     29  C   UNL     1     106.840 128.661 141.851  0.00  0.00    +0.000 C 
ATOM     30  C   UNL     1     105.648 128.293 142.548  0.00  0.00    +0.000 C 
ATOM     31  C   UNL     1     107.292 128.255 142.409  0.00  0.00    +0.000 C 
ATOM     32  C   UNL     1     106.100 127.887 143.106  0.00  0.00    +0.000 C 
BRANCH  31  34
ATOM     33  O   UNL     1     108.585 128.212 143.015  0.00  0.00    +0.000 OA
ATOM     34  C   UNL     1     108.113 128.236 142.339  0.00  0.00    +0.000 C 
ENDBRANCH  31  34
ENDBRANCH  23  32
ENDBRANCH   4  23
BRANCH   5  35
ATOM     35  O   UNL     1     105.588 124.820 142.580  0.00  0.00    +0.000 OA
BRANCH  35  43
ATOM     36  O   UNL     1     106.872 124.741 141.958  0.00  0.00    +0.000 OA
ATOM     37  O   UNL     1     105.850 125.315 139.778  0.00  0.00    +0.000 OA
ATOM     38  O   UNL     1     104.907 125.202 141.128  0.00  0.00    +0.000 OA
ATOM     39  O   UNL     1     107.475 125.045 139.883  0.00  0.00    +0.000 OA
ATOM     40  C   UNL     1     106.190 125.124 140.504  0.00  0.00    +0.000 C 
ATOM     41  C   UNL     1     105.719 125.067 141.179  0.00  0.00    +0.000 C 
ATOM     42  C   UNL     1     107.003 124.989 140.557  0.00  0.00    +0.000 C 
ATOM     43  C   UNL     1     106.059 124.876 141.906  0.00  0.00    +0.000 C 
ATOM     44  C   UNL     1     107.343 124.798 141.283  0.00  0.00    +0.000 C 
BRANCH  44  47
ATOM     45  O   UNL     1     108.444 123.890 141.362  0.00  0.00    +0.000 OA
ATOM     46  O   UNL     1     108.679 125.299 141.363  0.00  0.00    +0.000 OA
ATOM     47  C   UNL     1     108.156 124.663 141.336  0.00  0.00    +0.000 C 
ENDBRANCH  44  47
ENDBRANCH  35  43
ENDBRANCH   5  35
TORSDOF 9
ENDMDL
MODEL 9
REMARK VINA RESULT:      -9.2      1.768      5.512
REMARK  Name = 44259417
REMARK  9 active torsions:
REMARK  status: ('A' for Active; 'I' for Inactive)
REMARK    1  A    between atoms: O_3  and  C_23
REMARK    2  A    between atoms: O_3  and  C_30
REMARK    3  A    between atoms: O_7  and  C_27
REMARK    4  A    between atoms: O_7  and  C_31
REMARK    5  A    between atoms: O_17  and  C_43
REMARK    6  A    between atoms: O_18  and  C_45
REMARK    7  A    between atoms: C_22  and  C_29
REMARK    8  A    between atoms: C_28  and  C_32
REMARK    9  A    between atoms: C_39  and  C_40
REMARK                            x       y       z     vdW  Elec       q    Type
REMARK                         _______ _______ _______ _____ _____    ______ ____
ROOT
ATOM      1  O   UNL     1     110.426 129.889 137.081  0.00  0.00    +0.000 OA
ATOM      2  O   UNL     1     111.723 128.631 135.390  0.00  0.00    +0.000 OA
ATOM      3  O   UNL     1     110.637 129.776 134.912  0.00  0.00    +0.000 OA
ATOM      4  C   UNL     1     111.971 128.298 136.993  0.00  0.00    +0.000 A 
ATOM      5  C   UNL     1     111.641 128.570 138.415  0.00  0.00    +0.000 A 
ATOM      6  C   UNL     1     111.402 128.897 136.757  0.00  0.00    +0.000 A 
ATOM      7  C   UNL     1     112.091 128.134 137.828  0.00  0.00    +0.000 A 
ATOM      8  C   UNL     1     110.970 129.316 137.321  0.00  0.00    +0.000 A 
ATOM      9  C   UNL     1     111.077 129.165 138.160  0.00  0.00    +0.000 A 
ATOM     10  C   UNL     1     111.291 129.050 135.954  0.00  0.00    +0.000 A 
ATOM     11  C   UNL     1     110.747 129.623 135.714  0.00  0.00    +0.000 A 
ATOM     12  C   UNL     1     110.315 130.042 136.279  0.00  0.00    +0.000 A 
ENDROOT
BRANCH  12  13
ATOM     13  C   UNL     1     109.772 130.615 136.039  0.00  0.00    +0.000 A 
ATOM     14  C   UNL     1     109.967 131.415 136.085  0.00  0.00    +0.000 A 
ATOM     15  C   UNL     1     109.032 130.387 135.754  0.00  0.00    +0.000 A 
ATOM     16  C   UNL     1     109.424 131.987 135.845  0.00  0.00    +0.000 A 
ATOM     17  C   UNL     1     108.488 130.959 135.514  0.00  0.00    +0.000 A 
ATOM     18  C   UNL     1     108.684 131.760 135.560  0.00  0.00    +0.000 A 
BRANCH  16  19
ATOM     19  O   UNL     1     109.620 132.787 135.891  0.00  0.00    +0.000 OA
ATOM     20  C   UNL     1     110.205 133.039 136.415  0.00  0.00    +0.000 C 
ENDBRANCH  16  19
BRANCH  18  21
ATOM     21  O   UNL     1     108.140 132.332 135.320  0.00  0.00    +0.000 OA
ATOM     22  C   UNL     1     107.423 132.104 134.981  0.00  0.00    +0.000 C 
ENDBRANCH  18  21
ENDBRANCH  12  13
BRANCH   4  23
ATOM     23  O   UNL     1     112.399 127.883 136.422  0.00  0.00    +0.000 OA
BRANCH  23  32
ATOM     24  O   UNL     1     111.824 126.578 136.505  0.00  0.00    +0.000 OA
ATOM     25  O   UNL     1     114.088 125.589 136.646  0.00  0.00    +0.000 OA
ATOM     26  O   UNL     1     112.759 124.614 136.681  0.00  0.00    +0.000 OA
ATOM     27  O   UNL     1     113.909 127.224 136.516  0.00  0.00    +0.000 OA
ATOM     28  C   UNL     1     113.333 125.918 136.599  0.00  0.00    +0.000 C 
ATOM     29  C   UNL     1     112.668 125.431 136.617  0.00  0.00    +0.000 C 
ATOM     30  C   UNL     1     113.243 126.736 136.534  0.00  0.00    +0.000 C 
ATOM     31  C   UNL     1     111.913 125.761 136.570  0.00  0.00    +0.000 C 
ATOM     32  C   UNL     1     112.489 127.066 136.487  0.00  0.00    +0.000 C 
BRANCH  31  34
ATOM     33  O   UNL     1     110.582 125.466 136.141  0.00  0.00    +0.000 OA
ATOM     34  C   UNL     1     111.249 125.273 136.588  0.00  0.00    +0.000 C 
ENDBRANCH  31  34
ENDBRANCH  23  32
ENDBRANCH   4  23
BRANCH   5  35
ATOM     35  O   UNL     1     111.750 128.419 139.219  0.00  0.00    +0.000 OA
BRANCH  35  43
ATOM     36  O   UNL     1     110.581 127.630 139.444  0.00  0.00    +0.000 OA
ATOM     37  O   UNL     1     111.892 126.096 140.877  0.00  0.00    +0.000 OA
ATOM     38  O   UNL     1     112.625 127.397 140.174  0.00  0.00    +0.000 OA
ATOM     39  O   UNL     1     110.285 125.818 140.624  0.00  0.00    +0.000 OA
ATOM     40  C   UNL     1     111.455 126.607 140.400  0.00  0.00    +0.000 C 
ATOM     41  C   UNL     1     111.822 127.258 140.048  0.00  0.00    +0.000 C 
ATOM     42  C   UNL     1     110.652 126.469 140.273  0.00  0.00    +0.000 C 
ATOM     43  C   UNL     1     111.385 127.769 139.570  0.00  0.00    +0.000 C 
ATOM     44  C   UNL     1     110.215 126.979 139.796  0.00  0.00    +0.000 C 
BRANCH  44  47
ATOM     45  O   UNL     1     108.850 127.195 140.160  0.00  0.00    +0.000 OA
ATOM     46  O   UNL     1     109.169 126.349 139.053  0.00  0.00    +0.000 OA
ATOM     47  C   UNL     1     109.411 126.841 139.669  0.00  0.00    +0.000 C 
ENDBRANCH  44  47
ENDBRANCH  35  43
ENDBRANCH   5  35
TORSDOF 9
ENDMDL
MODEL 10
REMARK VINA RESULT:      -9.1      2.012      6.168
REMARK  Name = 44259417
REMARK  9 active torsions:
REMARK  status: ('A' for Active; 'I' for Inactive)
REMARK    1  A    between atoms: O_3  and  C_23
REMARK    2  A    between atoms: O_3  and  C_30
REMARK    3  A    between atoms: O_7  and  C_27
REMARK    4  A    between atoms: O_7  and  C_31
REMARK    5  A    between atoms: O_17  and  C_43
REMARK    6  A    between atoms: O_18  and  C_45
REMARK    7  A    between atoms: C_22  and  C_29
REMARK    8  A    between atoms: C_28  and  C_32
REMARK    9  A    between atoms: C_39  and  C_40
REMARK                            x       y       z     vdW  Elec       q    Type
REMARK                         _______ _______ _______ _____ _____    ______ ____
ROOT
ATOM      1  O   UNL     1     111.440 128.880 136.380  0.00  0.00    +0.000 OA
ATOM      2  O   UNL     1     111.852 129.654 138.695  0.00  0.00    +0.000 OA
ATOM      3  O   UNL     1     110.655 130.346 137.795  0.00  0.00    +0.000 OA
ATOM      4  C   UNL     1     112.797 128.440 138.081  0.00  0.00    +0.000 A 
ATOM      5  C   UNL     1     113.137 127.542 136.949  0.00  0.00    +0.000 A 
ATOM      6  C   UNL     1     112.176 128.792 137.602  0.00  0.00    +0.000 A 
ATOM      7  C   UNL     1     113.280 127.811 137.752  0.00  0.00    +0.000 A 
ATOM      8  C   UNL     1     112.039 128.534 136.830  0.00  0.00    +0.000 A 
ATOM      9  C   UNL     1     112.512 127.906 136.485  0.00  0.00    +0.000 A 
ATOM     10  C   UNL     1     111.715 129.396 137.923  0.00  0.00    +0.000 A 
ATOM     11  C   UNL     1     111.116 129.742 137.473  0.00  0.00    +0.000 A 
ATOM     12  C   UNL     1     110.979 129.484 136.702  0.00  0.00    +0.000 A 
ENDROOT
BRANCH  12  13
ATOM     13  C   UNL     1     110.380 129.831 136.251  0.00  0.00    +0.000 A 
ATOM     14  C   UNL     1     109.667 129.433 136.137  0.00  0.00    +0.000 A 
ATOM     15  C   UNL     1     110.496 130.575 135.916  0.00  0.00    +0.000 A 
ATOM     16  C   UNL     1     109.069 129.780 135.687  0.00  0.00    +0.000 A 
ATOM     17  C   UNL     1     109.898 130.923 135.466  0.00  0.00    +0.000 A 
ATOM     18  C   UNL     1     109.184 130.524 135.351  0.00  0.00    +0.000 A 
BRANCH  16  19
ATOM     19  O   UNL     1     108.355 129.381 135.573  0.00  0.00    +0.000 OA
ATOM     20  C   UNL     1     108.310 128.569 135.710  0.00  0.00    +0.000 C 
ENDBRANCH  16  19
BRANCH  18  21
ATOM     21  O   UNL     1     108.586 130.871 134.902  0.00  0.00    +0.000 OA
ATOM     22  C   UNL     1     108.679 131.638 134.612  0.00  0.00    +0.000 C 
ENDBRANCH  18  21
ENDBRANCH  12  13
BRANCH   4  23
ATOM     23  O   UNL     1     112.927 128.704 138.852  0.00  0.00    +0.000 OA
BRANCH  23  32
ATOM     24  O   UNL     1     112.457 127.580 139.598  0.00  0.00    +0.000 OA
ATOM     25  O   UNL     1     114.474 127.685 141.028  0.00  0.00    +0.000 OA
ATOM     26  O   UNL     1     113.331 126.526 141.297  0.00  0.00    +0.000 OA
ATOM     27  O   UNL     1     114.272 128.774 139.806  0.00  0.00    +0.000 OA
ATOM     28  C   UNL     1     113.801 127.650 140.551  0.00  0.00    +0.000 C 
ATOM     29  C   UNL     1     113.230 127.071 140.685  0.00  0.00    +0.000 C 
ATOM     30  C   UNL     1     113.700 128.195 139.940  0.00  0.00    +0.000 C 
ATOM     31  C   UNL     1     112.557 127.035 140.209  0.00  0.00    +0.000 C 
ATOM     32  C   UNL     1     113.028 128.160 139.463  0.00  0.00    +0.000 C 
BRANCH  31  34
ATOM     33  O   UNL     1     111.188 126.628 140.229  0.00  0.00    +0.000 OA
ATOM     34  C   UNL     1     111.987 126.456 140.343  0.00  0.00    +0.000 C 
ENDBRANCH  31  34
ENDBRANCH  23  32
ENDBRANCH   4  23
BRANCH   5  35
ATOM     35  O   UNL     1     113.596 126.938 136.624  0.00  0.00    +0.000 OA
BRANCH  35  43
ATOM     36  O   UNL     1     112.620 125.897 136.671  0.00  0.00    +0.000 OA
ATOM     37  O   UNL     1     114.368 124.288 137.363  0.00  0.00    +0.000 OA
ATOM     38  O   UNL     1     114.762 125.866 137.085  0.00  0.00    +0.000 OA
ATOM     39  O   UNL     1     112.808 123.783 137.179  0.00  0.00    +0.000 OA
ATOM     40  C   UNL     1     113.785 124.824 137.132  0.00  0.00    +0.000 C 
ATOM     41  C   UNL     1     113.983 125.613 136.994  0.00  0.00    +0.000 C 
ATOM     42  C   UNL     1     113.005 124.572 137.040  0.00  0.00    +0.000 C 
ATOM     43  C   UNL     1     113.400 126.150 136.763  0.00  0.00    +0.000 C 
ATOM     44  C   UNL     1     112.422 125.108 136.810  0.00  0.00    +0.000 C 
BRANCH  44  47
ATOM     45  O   UNL     1     111.378 124.595 135.981  0.00  0.00    +0.000 OA
ATOM     46  O   UNL     1     111.127 124.864 137.361  0.00  0.00    +0.000 OA
ATOM     47  C   UNL     1     111.642 124.856 136.718  0.00  0.00    +0.000 C 
ENDBRANCH  44  47
ENDBRANCH  35  43
ENDBRANCH   5  35
TORSDOF 9
ENDMDL
