MODEL 1
REMARK VINA RESULT:     -10.8      0.000      0.000
REMARK  Name = 5481981
REMARK  8 active torsions:
REMARK  status: ('A' for Active; 'I' for Inactive)
REMARK    1  A    between atoms: O_1  and  C_16
REMARK    2  A    between atoms: O_1  and  C_18
REMARK    3  A    between atoms: O_4  and  C_21
REMARK    4  A    between atoms: O_4  and  C_28
REMARK    5  A    between atoms: C_25  and  C_27
REMARK    6  A    between atoms: C_29  and  C_33
REMARK    7  A    between atoms: C_34  and  C_37
REMARK    8  A    between atoms: C_37  and  C_43
REMARK                            x       y       z     vdW  Elec       q    Type
REMARK                         _______ _______ _______ _____ _____    ______ ____
ROOT
ATOM      1  O   UNL     1     112.284 127.218 136.827  0.00  0.00    +0.000 OA
ATOM      2  O   UNL     1     109.819 127.426 136.889  0.00  0.00    +0.000 OA
ATOM      3  O   UNL     1     109.664 126.057 136.464  0.00  0.00    +0.000 OA
ATOM      4  O   UNL     1     112.048 124.446 135.966  0.00  0.00    +0.000 OA
ATOM      5  C   UNL     1     111.115 128.002 137.069  0.00  0.00    +0.000 A 
ATOM      6  C   UNL     1     111.936 127.933 137.049  0.00  0.00    +0.000 A 
ATOM      7  C   UNL     1     110.641 127.357 136.868  0.00  0.00    +0.000 A 
ATOM      8  C   UNL     1     110.989 126.643 136.647  0.00  0.00    +0.000 A 
ATOM      9  C   UNL     1     111.811 126.573 136.626  0.00  0.00    +0.000 A 
ATOM     10  C   UNL     1     112.186 125.835 136.397  0.00  0.00    +0.000 A 
ATOM     11  C   UNL     1     110.485 125.979 136.440  0.00  0.00    +0.000 A 
ATOM     12  C   UNL     1     111.697 125.159 136.187  0.00  0.00    +0.000 A 
ATOM     13  C   UNL     1     110.842 125.231 136.208  0.00  0.00    +0.000 A 
ENDROOT
BRANCH   6  15
ATOM     14  O   UNL     1     113.833 130.510 137.854  0.00  0.00    +0.000 OA
ATOM     15  C   UNL     1     112.410 128.577 137.249  0.00  0.00    +0.000 A 
ATOM     16  C   UNL     1     112.568 128.742 138.042  0.00  0.00    +0.000 A 
ATOM     17  C   UNL     1     112.727 129.057 136.658  0.00  0.00    +0.000 A 
ATOM     18  C   UNL     1     113.042 129.386 138.244  0.00  0.00    +0.000 A 
ATOM     19  C   UNL     1     113.201 129.702 136.859  0.00  0.00    +0.000 A 
ATOM     20  C   UNL     1     113.359 129.866 137.652  0.00  0.00    +0.000 A 
ENDBRANCH   6  15
BRANCH   5  21
ATOM     21  O   UNL     1     110.767 128.716 137.291  0.00  0.00    +0.000 OA
BRANCH  21  28
ATOM     22  O   UNL     1     110.357 129.108 135.979  0.00  0.00    +0.000 OA
ATOM     23  O   UNL     1     108.305 130.120 136.922  0.00  0.00    +0.000 OA
ATOM     24  O   UNL     1     108.580 130.175 135.296  0.00  0.00    +0.000 OA
ATOM     25  C   UNL     1     109.535 129.418 137.106  0.00  0.00    +0.000 C 
ATOM     26  C   UNL     1     108.989 129.783 136.607  0.00  0.00    +0.000 C 
ATOM     27  C   UNL     1     109.126 129.810 135.795  0.00  0.00    +0.000 C 
ATOM     28  C   UNL     1     110.219 129.081 136.792  0.00  0.00    +0.000 C 
ATOM     29  C   UNL     1     109.811 129.473 135.481  0.00  0.00    +0.000 C 
ATOM     30  C   UNL     1     109.948 129.500 134.667  0.00  0.00    +0.000 C 
BRANCH  25  31
ATOM     31  O   UNL     1     109.398 129.391 137.919  0.00  0.00    +0.000 OA
BRANCH  31  36
ATOM     32  O   UNL     1     109.838 130.746 138.039  0.00  0.00    +0.000 OA
ATOM     33  O   UNL     1     109.072 129.354 139.536  0.00  0.00    +0.000 OA
ATOM     34  O   UNL     1     109.348 130.690 140.464  0.00  0.00    +0.000 OA
ATOM     35  O   UNL     1     109.951 132.063 139.775  0.00  0.00    +0.000 OA
ATOM     36  C   UNL     1     109.537 130.059 138.383  0.00  0.00    +0.000 C 
ATOM     37  C   UNL     1     109.374 130.041 139.192  0.00  0.00    +0.000 C 
ATOM     38  C   UNL     1     109.512 130.709 139.656  0.00  0.00    +0.000 C 
ATOM     39  C   UNL     1     109.813 131.395 139.311  0.00  0.00    +0.000 C 
ATOM     40  C   UNL     1     109.977 131.414 138.502  0.00  0.00    +0.000 C 
BRANCH  40  42
ATOM     41  O   UNL     1     111.069 132.133 137.929  0.00  0.00    +0.000 OA
ATOM     42  C   UNL     1     110.278 132.100 138.158  0.00  0.00    +0.000 C 
ENDBRANCH  40  42
ENDBRANCH  31  36
ENDBRANCH  25  31
ENDBRANCH  21  28
ENDBRANCH   5  21
BRANCH  10  43
ATOM     43  C   UNL     1     113.008 125.774 136.379  0.00  0.00    +0.000 C 
BRANCH  43  44
ATOM     44  C   UNL     1     113.400 125.304 136.932  0.00  0.00    +0.000 C 
ATOM     45  C   UNL     1     114.223 125.256 136.924  0.00  0.00    +0.000 C 
ATOM     46  C   UNL     1     114.615 124.785 137.477  0.00  0.00    +0.000 C 
ATOM     47  C   UNL     1     114.655 125.679 136.362  0.00  0.00    +0.000 C 
ENDBRANCH  43  44
ENDBRANCH  10  43
TORSDOF 8
ENDMDL
MODEL 2
REMARK VINA RESULT:     -10.3      0.934      2.061
REMARK  Name = 5481981
REMARK  8 active torsions:
REMARK  status: ('A' for Active; 'I' for Inactive)
REMARK    1  A    between atoms: O_1  and  C_16
REMARK    2  A    between atoms: O_1  and  C_18
REMARK    3  A    between atoms: O_4  and  C_21
REMARK    4  A    between atoms: O_4  and  C_28
REMARK    5  A    between atoms: C_25  and  C_27
REMARK    6  A    between atoms: C_29  and  C_33
REMARK    7  A    between atoms: C_34  and  C_37
REMARK    8  A    between atoms: C_37  and  C_43
REMARK                            x       y       z     vdW  Elec       q    Type
REMARK                         _______ _______ _______ _____ _____    ______ ____
ROOT
ATOM      1  O   UNL     1     112.365 127.364 136.560  0.00  0.00    +0.000 OA
ATOM      2  O   UNL     1     109.915 127.701 136.633  0.00  0.00    +0.000 OA
ATOM      3  O   UNL     1     109.686 126.291 136.435  0.00  0.00    +0.000 OA
ATOM      4  O   UNL     1     111.980 124.505 136.158  0.00  0.00    +0.000 OA
ATOM      5  C   UNL     1     111.240 128.233 136.695  0.00  0.00    +0.000 A 
ATOM      6  C   UNL     1     112.056 128.121 136.670  0.00  0.00    +0.000 A 
ATOM      7  C   UNL     1     110.731 127.589 136.608  0.00  0.00    +0.000 A 
ATOM      8  C   UNL     1     111.040 126.832 136.498  0.00  0.00    +0.000 A 
ATOM      9  C   UNL     1     111.858 126.719 136.473  0.00  0.00    +0.000 A 
ATOM     10  C   UNL     1     112.192 125.936 136.359  0.00  0.00    +0.000 A 
ATOM     11  C   UNL     1     110.502 126.169 136.409  0.00  0.00    +0.000 A 
ATOM     12  C   UNL     1     111.668 125.261 136.269  0.00  0.00    +0.000 A 
ATOM     13  C   UNL     1     110.818 125.377 136.294  0.00  0.00    +0.000 A 
ENDROOT
BRANCH   6  15
ATOM     14  O   UNL     1     114.089 130.698 137.012  0.00  0.00    +0.000 OA
ATOM     15  C   UNL     1     112.564 128.765 136.757  0.00  0.00    +0.000 A 
ATOM     16  C   UNL     1     112.754 129.230 136.102  0.00  0.00    +0.000 A 
ATOM     17  C   UNL     1     112.883 128.944 137.496  0.00  0.00    +0.000 A 
ATOM     18  C   UNL     1     113.262 129.875 136.187  0.00  0.00    +0.000 A 
ATOM     19  C   UNL     1     113.391 129.588 137.582  0.00  0.00    +0.000 A 
ATOM     20  C   UNL     1     113.581 130.054 136.928  0.00  0.00    +0.000 A 
ENDBRANCH   6  15
BRANCH   5  21
ATOM     21  O   UNL     1     110.930 128.990 136.805  0.00  0.00    +0.000 OA
BRANCH  21  28
ATOM     22  O   UNL     1     110.546 128.799 138.168  0.00  0.00    +0.000 OA
ATOM     23  O   UNL     1     108.568 130.244 137.812  0.00  0.00    +0.000 OA
ATOM     24  O   UNL     1     108.843 129.572 139.294  0.00  0.00    +0.000 OA
ATOM     25  C   UNL     1     109.749 129.617 137.309  0.00  0.00    +0.000 C 
ATOM     26  C   UNL     1     109.227 129.762 137.931  0.00  0.00    +0.000 C 
ATOM     27  C   UNL     1     109.364 129.427 138.671  0.00  0.00    +0.000 C 
ATOM     28  C   UNL     1     110.408 129.136 137.428  0.00  0.00    +0.000 C 
ATOM     29  C   UNL     1     110.024 128.945 138.790  0.00  0.00    +0.000 C 
ATOM     30  C   UNL     1     110.162 128.609 139.531  0.00  0.00    +0.000 C 
BRANCH  25  31
ATOM     31  O   UNL     1     109.612 129.953 136.568  0.00  0.00    +0.000 OA
BRANCH  31  36
ATOM     32  O   UNL     1     110.245 131.178 136.942  0.00  0.00    +0.000 OA
ATOM     33  O   UNL     1     108.796 130.740 135.369  0.00  0.00    +0.000 OA
ATOM     34  O   UNL     1     109.021 132.359 135.143  0.00  0.00    +0.000 OA
ATOM     35  O   UNL     1     110.062 133.190 136.116  0.00  0.00    +0.000 OA
ATOM     36  C   UNL     1     109.724 130.762 136.455  0.00  0.00    +0.000 C 
ATOM     37  C   UNL     1     109.317 131.156 135.856  0.00  0.00    +0.000 C 
ATOM     38  C   UNL     1     109.429 131.966 135.743  0.00  0.00    +0.000 C 
ATOM     39  C   UNL     1     109.949 132.381 136.229  0.00  0.00    +0.000 C 
ATOM     40  C   UNL     1     110.357 131.988 136.829  0.00  0.00    +0.000 C 
BRANCH  40  42
ATOM     41  O   UNL     1     110.708 132.496 138.117  0.00  0.00    +0.000 OA
ATOM     42  C   UNL     1     110.877 132.403 137.316  0.00  0.00    +0.000 C 
ENDBRANCH  40  42
ENDBRANCH  31  36
ENDBRANCH  25  31
ENDBRANCH  21  28
ENDBRANCH   5  21
BRANCH  10  43
ATOM     43  C   UNL     1     113.010 125.833 136.336  0.00  0.00    +0.000 C 
BRANCH  43  44
ATOM     44  C   UNL     1     113.392 125.429 136.945  0.00  0.00    +0.000 C 
ATOM     45  C   UNL     1     114.212 125.341 136.930  0.00  0.00    +0.000 C 
ATOM     46  C   UNL     1     114.595 124.936 137.539  0.00  0.00    +0.000 C 
ATOM     47  C   UNL     1     114.651 125.657 136.307  0.00  0.00    +0.000 C 
ENDBRANCH  43  44
ENDBRANCH  10  43
TORSDOF 8
ENDMDL
MODEL 3
REMARK VINA RESULT:      -9.9      2.001      3.420
REMARK  Name = 5481981
REMARK  8 active torsions:
REMARK  status: ('A' for Active; 'I' for Inactive)
REMARK    1  A    between atoms: O_1  and  C_16
REMARK    2  A    between atoms: O_1  and  C_18
REMARK    3  A    between atoms: O_4  and  C_21
REMARK    4  A    between atoms: O_4  and  C_28
REMARK    5  A    between atoms: C_25  and  C_27
REMARK    6  A    between atoms: C_29  and  C_33
REMARK    7  A    between atoms: C_34  and  C_37
REMARK    8  A    between atoms: C_37  and  C_43
REMARK                            x       y       z     vdW  Elec       q    Type
REMARK                         _______ _______ _______ _____ _____    ______ ____
ROOT
ATOM      1  O   UNL     1     111.961 126.651 137.734  0.00  0.00    +0.000 OA
ATOM      2  O   UNL     1     111.719 129.006 137.016  0.00  0.00    +0.000 OA
ATOM      3  O   UNL     1     111.254 128.593 135.715  0.00  0.00    +0.000 OA
ATOM      4  O   UNL     1     111.029 125.741 135.129  0.00  0.00    +0.000 OA
ATOM      5  C   UNL     1     112.070 128.047 138.016  0.00  0.00    +0.000 A 
ATOM      6  C   UNL     1     112.150 127.262 138.255  0.00  0.00    +0.000 A 
ATOM      7  C   UNL     1     111.800 128.222 137.255  0.00  0.00    +0.000 A 
ATOM      8  C   UNL     1     111.611 127.610 136.735  0.00  0.00    +0.000 A 
ATOM      9  C   UNL     1     111.692 126.824 136.974  0.00  0.00    +0.000 A 
ATOM     10  C   UNL     1     111.498 126.179 136.441  0.00  0.00    +0.000 A 
ATOM     11  C   UNL     1     111.332 127.804 135.946  0.00  0.00    +0.000 A 
ATOM     12  C   UNL     1     111.217 126.354 135.648  0.00  0.00    +0.000 A 
ATOM     13  C   UNL     1     111.133 127.171 135.399  0.00  0.00    +0.000 A 
ENDROOT
BRANCH   6  15
ATOM     14  O   UNL     1     113.231 126.564 141.294  0.00  0.00    +0.000 OA
ATOM     15  C   UNL     1     112.420 127.087 139.015  0.00  0.00    +0.000 A 
ATOM     16  C   UNL     1     113.229 127.079 139.173  0.00  0.00    +0.000 A 
ATOM     17  C   UNL     1     111.881 126.922 139.616  0.00  0.00    +0.000 A 
ATOM     18  C   UNL     1     113.500 126.904 139.932  0.00  0.00    +0.000 A 
ATOM     19  C   UNL     1     112.150 126.747 140.376  0.00  0.00    +0.000 A 
ATOM     20  C   UNL     1     112.960 126.738 140.534  0.00  0.00    +0.000 A 
ENDBRANCH   6  15
BRANCH   5  21
ATOM     21  O   UNL     1     112.258 128.658 138.536  0.00  0.00    +0.000 OA
BRANCH  21  28
ATOM     22  O   UNL     1     110.905 129.026 138.810  0.00  0.00    +0.000 OA
ATOM     23  O   UNL     1     111.598 131.389 139.062  0.00  0.00    +0.000 OA
ATOM     24  O   UNL     1     110.013 130.969 139.252  0.00  0.00    +0.000 OA
ATOM     25  C   UNL     1     111.928 130.024 138.799  0.00  0.00    +0.000 C 
ATOM     26  C   UNL     1     111.367 130.601 138.978  0.00  0.00    +0.000 C 
ATOM     27  C   UNL     1     110.575 130.391 139.073  0.00  0.00    +0.000 C 
ATOM     28  C   UNL     1     111.697 129.236 138.715  0.00  0.00    +0.000 C 
ATOM     29  C   UNL     1     110.344 129.604 138.989  0.00  0.00    +0.000 C 
ATOM     30  C   UNL     1     109.551 129.394 139.084  0.00  0.00    +0.000 C 
BRANCH  25  31
ATOM     31  O   UNL     1     112.720 130.233 138.704  0.00  0.00    +0.000 OA
BRANCH  31  36
ATOM     32  O   UNL     1     112.866 130.331 140.123  0.00  0.00    +0.000 OA
ATOM     33  O   UNL     1     114.336 130.512 138.518  0.00  0.00    +0.000 OA
ATOM     34  O   UNL     1     115.290 130.750 139.844  0.00  0.00    +0.000 OA
ATOM     35  O   UNL     1     114.628 130.708 141.355  0.00  0.00    +0.000 OA
ATOM     36  C   UNL     1     113.197 130.352 139.367  0.00  0.00    +0.000 C 
ATOM     37  C   UNL     1     114.005 130.492 139.275  0.00  0.00    +0.000 C 
ATOM     38  C   UNL     1     114.482 130.610 139.937  0.00  0.00    +0.000 C 
ATOM     39  C   UNL     1     114.151 130.590 140.692  0.00  0.00    +0.000 C 
ATOM     40  C   UNL     1     113.343 130.450 140.786  0.00  0.00    +0.000 C 
BRANCH  40  42
ATOM     41  O   UNL     1     112.744 129.716 141.854  0.00  0.00    +0.000 OA
ATOM     42  C   UNL     1     113.013 130.429 141.540  0.00  0.00    +0.000 C 
ENDBRANCH  40  42
ENDBRANCH  31  36
ENDBRANCH  25  31
ENDBRANCH  21  28
ENDBRANCH   5  21
BRANCH  10  43
ATOM     43  C   UNL     1     111.582 125.397 136.689  0.00  0.00    +0.000 C 
BRANCH  43  44
ATOM     44  C   UNL     1     112.233 124.953 136.442  0.00  0.00    +0.000 C 
ATOM     45  C   UNL     1     112.336 124.183 136.720  0.00  0.00    +0.000 C 
ATOM     46  C   UNL     1     112.987 123.740 136.474  0.00  0.00    +0.000 C 
ATOM     47  C   UNL     1     111.790 123.857 137.246  0.00  0.00    +0.000 C 
ENDBRANCH  43  44
ENDBRANCH  10  43
TORSDOF 8
ENDMDL
MODEL 4
REMARK VINA RESULT:      -9.9      2.008      2.942
REMARK  Name = 5481981
REMARK  8 active torsions:
REMARK  status: ('A' for Active; 'I' for Inactive)
REMARK    1  A    between atoms: O_1  and  C_16
REMARK    2  A    between atoms: O_1  and  C_18
REMARK    3  A    between atoms: O_4  and  C_21
REMARK    4  A    between atoms: O_4  and  C_28
REMARK    5  A    between atoms: C_25  and  C_27
REMARK    6  A    between atoms: C_29  and  C_33
REMARK    7  A    between atoms: C_34  and  C_37
REMARK    8  A    between atoms: C_37  and  C_43
REMARK                            x       y       z     vdW  Elec       q    Type
REMARK                         _______ _______ _______ _____ _____    ______ ____
ROOT
ATOM      1  O   UNL     1     112.497 126.313 138.267  0.00  0.00    +0.000 OA
ATOM      2  O   UNL     1     110.148 127.071 138.095  0.00  0.00    +0.000 OA
ATOM      3  O   UNL     1     109.892 126.133 137.030  0.00  0.00    +0.000 OA
ATOM      4  O   UNL     1     112.056 124.395 136.120  0.00  0.00    +0.000 OA
ATOM      5  C   UNL     1     111.436 127.160 138.708  0.00  0.00    +0.000 A 
ATOM      6  C   UNL     1     112.218 126.908 138.766  0.00  0.00    +0.000 A 
ATOM      7  C   UNL     1     110.930 126.818 138.153  0.00  0.00    +0.000 A 
ATOM      8  C   UNL     1     111.209 126.223 137.654  0.00  0.00    +0.000 A 
ATOM      9  C   UNL     1     111.993 125.970 137.711  0.00  0.00    +0.000 A 
ATOM     10  C   UNL     1     112.295 125.351 137.198  0.00  0.00    +0.000 A 
ATOM     11  C   UNL     1     110.675 125.874 137.080  0.00  0.00    +0.000 A 
ATOM     12  C   UNL     1     111.774 124.990 136.617  0.00  0.00    +0.000 A 
ATOM     13  C   UNL     1     110.959 125.253 136.557  0.00  0.00    +0.000 A 
ENDROOT
BRANCH   6  15
ATOM     14  O   UNL     1     114.239 128.279 140.986  0.00  0.00    +0.000 OA
ATOM     15  C   UNL     1     112.723 127.250 139.321  0.00  0.00    +0.000 A 
ATOM     16  C   UNL     1     113.075 127.980 139.164  0.00  0.00    +0.000 A 
ATOM     17  C   UNL     1     112.877 126.864 140.033  0.00  0.00    +0.000 A 
ATOM     18  C   UNL     1     113.580 128.323 139.718  0.00  0.00    +0.000 A 
ATOM     19  C   UNL     1     113.382 127.206 140.588  0.00  0.00    +0.000 A 
ATOM     20  C   UNL     1     113.734 127.935 140.431  0.00  0.00    +0.000 A 
ENDBRANCH   6  15
BRANCH   5  21
ATOM     21  O   UNL     1     111.157 127.756 139.207  0.00  0.00    +0.000 OA
BRANCH  21  28
ATOM     22  O   UNL     1     110.408 126.899 140.072  0.00  0.00    +0.000 OA
ATOM     23  O   UNL     1     108.686 128.658 140.323  0.00  0.00    +0.000 OA
ATOM     24  O   UNL     1     108.511 127.215 141.104  0.00  0.00    +0.000 OA
ATOM     25  C   UNL     1     109.921 128.207 139.765  0.00  0.00    +0.000 C 
ATOM     26  C   UNL     1     109.260 128.072 140.239  0.00  0.00    +0.000 C 
ATOM     27  C   UNL     1     109.173 127.351 140.629  0.00  0.00    +0.000 C 
ATOM     28  C   UNL     1     110.495 127.621 139.681  0.00  0.00    +0.000 C 
ATOM     29  C   UNL     1     109.747 126.765 140.546  0.00  0.00    +0.000 C 
ATOM     30  C   UNL     1     109.660 126.042 140.936  0.00  0.00    +0.000 C 
BRANCH  25  31
ATOM     31  O   UNL     1     110.009 128.929 139.374  0.00  0.00    +0.000 OA
BRANCH  31  36
ATOM     32  O   UNL     1     110.428 129.542 140.596  0.00  0.00    +0.000 OA
ATOM     33  O   UNL     1     110.030 130.400 138.628  0.00  0.00    +0.000 OA
ATOM     34  O   UNL     1     110.460 131.749 139.475  0.00  0.00    +0.000 OA
ATOM     35  O   UNL     1     110.868 131.626 141.069  0.00  0.00    +0.000 OA
ATOM     36  C   UNL     1     110.223 129.603 139.798  0.00  0.00    +0.000 C 
ATOM     37  C   UNL     1     110.235 130.339 139.425  0.00  0.00    +0.000 C 
ATOM     38  C   UNL     1     110.450 131.013 139.849  0.00  0.00    +0.000 C 
ATOM     39  C   UNL     1     110.653 130.952 140.646  0.00  0.00    +0.000 C 
ATOM     40  C   UNL     1     110.642 130.216 141.020  0.00  0.00    +0.000 C 
BRANCH  40  42
ATOM     41  O   UNL     1     111.555 129.796 142.034  0.00  0.00    +0.000 OA
ATOM     42  C   UNL     1     110.846 130.155 141.816  0.00  0.00    +0.000 C 
ENDBRANCH  40  42
ENDBRANCH  31  36
ENDBRANCH  25  31
ENDBRANCH  21  28
ENDBRANCH   5  21
BRANCH  10  43
ATOM     43  C   UNL     1     113.079 125.104 137.262  0.00  0.00    +0.000 C 
BRANCH  43  44
ATOM     44  C   UNL     1     113.624 125.305 136.676  0.00  0.00    +0.000 C 
ATOM     45  C   UNL     1     114.416 125.089 136.757  0.00  0.00    +0.000 C 
ATOM     46  C   UNL     1     114.961 125.290 136.171  0.00  0.00    +0.000 C 
ATOM     47  C   UNL     1     114.664 124.673 137.426  0.00  0.00    +0.000 C 
ENDBRANCH  43  44
ENDBRANCH  10  43
TORSDOF 8
ENDMDL
MODEL 5
REMARK VINA RESULT:      -9.8      2.293      3.065
REMARK  Name = 5481981
REMARK  8 active torsions:
REMARK  status: ('A' for Active; 'I' for Inactive)
REMARK    1  A    between atoms: O_1  and  C_16
REMARK    2  A    between atoms: O_1  and  C_18
REMARK    3  A    between atoms: O_4  and  C_21
REMARK    4  A    between atoms: O_4  and  C_28
REMARK    5  A    between atoms: C_25  and  C_27
REMARK    6  A    between atoms: C_29  and  C_33
REMARK    7  A    between atoms: C_34  and  C_37
REMARK    8  A    between atoms: C_37  and  C_43
REMARK                            x       y       z     vdW  Elec       q    Type
REMARK                         _______ _______ _______ _____ _____    ______ ____
ROOT
ATOM      1  O   UNL     1     111.784 126.468 138.021  0.00  0.00    +0.000 OA
ATOM      2  O   UNL     1     109.962 128.100 138.392  0.00  0.00    +0.000 OA
ATOM      3  O   UNL     1     109.225 127.577 137.269  0.00  0.00    +0.000 OA
ATOM      4  O   UNL     1     110.353 125.360 135.740  0.00  0.00    +0.000 OA
ATOM      5  C   UNL     1     111.228 127.552 138.766  0.00  0.00    +0.000 A 
ATOM      6  C   UNL     1     111.835 127.009 138.642  0.00  0.00    +0.000 A 
ATOM      7  C   UNL     1     110.569 127.556 138.269  0.00  0.00    +0.000 A 
ATOM      8  C   UNL     1     110.518 127.016 137.648  0.00  0.00    +0.000 A 
ATOM      9  C   UNL     1     111.126 126.471 137.524  0.00  0.00    +0.000 A 
ATOM     10  C   UNL     1     111.084 125.903 136.881  0.00  0.00    +0.000 A 
ATOM     11  C   UNL     1     109.828 127.029 137.137  0.00  0.00    +0.000 A 
ATOM     12  C   UNL     1     110.401 125.901 136.360  0.00  0.00    +0.000 A 
ATOM     13  C   UNL     1     109.769 126.468 136.488  0.00  0.00    +0.000 A 
ENDROOT
BRANCH   6  15
ATOM     14  O   UNL     1     114.468 126.992 140.631  0.00  0.00    +0.000 OA
ATOM     15  C   UNL     1     112.493 127.005 139.139  0.00  0.00    +0.000 A 
ATOM     16  C   UNL     1     112.458 126.617 139.867  0.00  0.00    +0.000 A 
ATOM     17  C   UNL     1     113.186 127.387 138.909  0.00  0.00    +0.000 A 
ATOM     18  C   UNL     1     113.116 126.613 140.364  0.00  0.00    +0.000 A 
ATOM     19  C   UNL     1     113.845 127.384 139.406  0.00  0.00    +0.000 A 
ATOM     20  C   UNL     1     113.810 126.996 140.134  0.00  0.00    +0.000 A 
ENDBRANCH   6  15
BRANCH   5  21
ATOM     21  O   UNL     1     111.278 128.093 139.387  0.00  0.00    +0.000 OA
BRANCH  21  28
ATOM     22  O   UNL     1     111.590 129.216 138.560  0.00  0.00    +0.000 OA
ATOM     23  O   UNL     1     110.376 130.704 140.122  0.00  0.00    +0.000 OA
ATOM     24  O   UNL     1     111.093 131.331 138.774  0.00  0.00    +0.000 OA
ATOM     25  C   UNL     1     110.827 129.399 139.754  0.00  0.00    +0.000 C 
ATOM     26  C   UNL     1     110.781 130.208 139.601  0.00  0.00    +0.000 C 
ATOM     27  C   UNL     1     111.139 130.521 138.928  0.00  0.00    +0.000 C 
ATOM     28  C   UNL     1     111.232 128.903 139.234  0.00  0.00    +0.000 C 
ATOM     29  C   UNL     1     111.543 130.026 138.407  0.00  0.00    +0.000 C 
ATOM     30  C   UNL     1     111.902 130.339 137.733  0.00  0.00    +0.000 C 
BRANCH  25  31
ATOM     31  O   UNL     1     110.469 129.085 140.428  0.00  0.00    +0.000 OA
BRANCH  31  36
ATOM     32  O   UNL     1     111.532 129.597 141.236  0.00  0.00    +0.000 OA
ATOM     33  O   UNL     1     109.843 128.309 141.743  0.00  0.00    +0.000 OA
ATOM     34  O   UNL     1     110.593 128.433 143.208  0.00  0.00    +0.000 OA
ATOM     35  O   UNL     1     111.968 129.332 143.358  0.00  0.00    +0.000 OA
ATOM     36  C   UNL     1     110.844 129.147 141.161  0.00  0.00    +0.000 C 
ATOM     37  C   UNL     1     110.531 128.759 141.818  0.00  0.00    +0.000 C 
ATOM     38  C   UNL     1     110.906 128.821 142.551  0.00  0.00    +0.000 C 
ATOM     39  C   UNL     1     111.593 129.270 142.625  0.00  0.00    +0.000 C 
ATOM     40  C   UNL     1     111.907 129.658 141.968  0.00  0.00    +0.000 C 
BRANCH  40  42
ATOM     41  O   UNL     1     113.292 129.857 141.683  0.00  0.00    +0.000 OA
ATOM     42  C   UNL     1     112.594 130.108 142.043  0.00  0.00    +0.000 C 
ENDBRANCH  40  42
ENDBRANCH  31  36
ENDBRANCH  25  31
ENDBRANCH  21  28
ENDBRANCH   5  21
BRANCH  10  43
ATOM     43  C   UNL     1     111.697 125.362 136.765  0.00  0.00    +0.000 C 
BRANCH  43  44
ATOM     44  C   UNL     1     111.584 124.565 136.946  0.00  0.00    +0.000 C 
ATOM     45  C   UNL     1     112.208 124.032 136.868  0.00  0.00    +0.000 C 
ATOM     46  C   UNL     1     112.095 123.235 137.050  0.00  0.00    +0.000 C 
ATOM     47  C   UNL     1     112.946 124.295 136.608  0.00  0.00    +0.000 C 
ENDBRANCH  43  44
ENDBRANCH  10  43
TORSDOF 8
ENDMDL
MODEL 6
REMARK VINA RESULT:      -9.7      1.772      5.612
REMARK  Name = 5481981
REMARK  8 active torsions:
REMARK  status: ('A' for Active; 'I' for Inactive)
REMARK    1  A    between atoms: O_1  and  C_16
REMARK    2  A    between atoms: O_1  and  C_18
REMARK    3  A    between atoms: O_4  and  C_21
REMARK    4  A    between atoms: O_4  and  C_28
REMARK    5  A    between atoms: C_25  and  C_27
REMARK    6  A    between atoms: C_29  and  C_33
REMARK    7  A    between atoms: C_34  and  C_37
REMARK    8  A    between atoms: C_37  and  C_43
REMARK                            x       y       z     vdW  Elec       q    Type
REMARK                         _______ _______ _______ _____ _____    ______ ____
ROOT
ATOM      1  O   UNL     1     109.902 130.195 136.536  0.00  0.00    +0.000 OA
ATOM      2  O   UNL     1     112.153 129.915 137.524  0.00  0.00    +0.000 OA
ATOM      3  O   UNL     1     112.249 131.332 137.779  0.00  0.00    +0.000 OA
ATOM      4  O   UNL     1     110.025 133.065 137.019  0.00  0.00    +0.000 OA
ATOM      5  C   UNL     1     110.993 129.352 136.910  0.00  0.00    +0.000 A 
ATOM      6  C   UNL     1     110.243 129.445 136.580  0.00  0.00    +0.000 A 
ATOM      7  C   UNL     1     111.403 130.009 137.195  0.00  0.00    +0.000 A 
ATOM      8  C   UNL     1     111.063 130.759 137.151  0.00  0.00    +0.000 A 
ATOM      9  C   UNL     1     110.311 130.852 136.821  0.00  0.00    +0.000 A 
ATOM     10  C   UNL     1     109.946 131.628 136.769  0.00  0.00    +0.000 A 
ATOM     11  C   UNL     1     111.499 131.434 137.451  0.00  0.00    +0.000 A 
ATOM     12  C   UNL     1     110.368 132.316 137.064  0.00  0.00    +0.000 A 
ATOM     13  C   UNL     1     111.150 132.219 137.407  0.00  0.00    +0.000 A 
ENDROOT
BRANCH   6  15
ATOM     14  O   UNL     1     108.600 126.819 135.442  0.00  0.00    +0.000 OA
ATOM     15  C   UNL     1     109.832 128.789 136.295  0.00  0.00    +0.000 A 
ATOM     16  C   UNL     1     109.382 128.328 136.811  0.00  0.00    +0.000 A 
ATOM     17  C   UNL     1     109.871 128.593 135.495  0.00  0.00    +0.000 A 
ATOM     18  C   UNL     1     108.971 127.672 136.527  0.00  0.00    +0.000 A 
ATOM     19  C   UNL     1     109.460 127.936 135.210  0.00  0.00    +0.000 A 
ATOM     20  C   UNL     1     109.011 127.476 135.726  0.00  0.00    +0.000 A 
ENDBRANCH   6  15
BRANCH   5  21
ATOM     21  O   UNL     1     111.333 128.602 136.954  0.00  0.00    +0.000 OA
BRANCH  21  28
ATOM     22  O   UNL     1     112.287 128.829 135.914  0.00  0.00    +0.000 OA
ATOM     23  O   UNL     1     113.894 127.338 137.063  0.00  0.00    +0.000 OA
ATOM     24  O   UNL     1     114.312 128.062 135.641  0.00  0.00    +0.000 OA
ATOM     25  C   UNL     1     112.614 127.970 137.008  0.00  0.00    +0.000 C 
ATOM     26  C   UNL     1     113.358 127.835 136.680  0.00  0.00    +0.000 C 
ATOM     27  C   UNL     1     113.567 128.197 135.970  0.00  0.00    +0.000 C 
ATOM     28  C   UNL     1     112.079 128.467 136.625  0.00  0.00    +0.000 C 
ATOM     29  C   UNL     1     113.032 128.694 135.587  0.00  0.00    +0.000 C 
ATOM     30  C   UNL     1     113.241 129.056 134.875  0.00  0.00    +0.000 C 
BRANCH  25  31
ATOM     31  O   UNL     1     112.404 127.608 137.720  0.00  0.00    +0.000 OA
BRANCH  31  36
ATOM     32  O   UNL     1     112.195 126.371 137.034  0.00  0.00    +0.000 OA
ATOM     33  O   UNL     1     111.811 126.939 139.106  0.00  0.00    +0.000 OA
ATOM     34  O   UNL     1     111.304 125.369 139.114  0.00  0.00    +0.000 OA
ATOM     35  O   UNL     1     111.392 124.467 137.735  0.00  0.00    +0.000 OA
ATOM     36  C   UNL     1     112.151 126.823 137.724  0.00  0.00    +0.000 C 
ATOM     37  C   UNL     1     111.854 126.488 138.416  0.00  0.00    +0.000 C 
ATOM     38  C   UNL     1     111.601 125.703 138.420  0.00  0.00    +0.000 C 
ATOM     39  C   UNL     1     111.645 125.252 137.731  0.00  0.00    +0.000 C 
ATOM     40  C   UNL     1     111.942 125.586 137.037  0.00  0.00    +0.000 C 
BRANCH  40  42
ATOM     41  O   UNL     1     111.408 125.216 135.766  0.00  0.00    +0.000 OA
ATOM     42  C   UNL     1     111.986 125.136 136.348  0.00  0.00    +0.000 C 
ENDBRANCH  40  42
ENDBRANCH  31  36
ENDBRANCH  25  31
ENDBRANCH  21  28
ENDBRANCH   5  21
BRANCH  10  43
ATOM     43  C   UNL     1     109.195 131.712 136.438  0.00  0.00    +0.000 C 
BRANCH  43  44
ATOM     44  C   UNL     1     109.105 132.089 135.709  0.00  0.00    +0.000 C 
ATOM     45  C   UNL     1     108.368 132.102 135.341  0.00  0.00    +0.000 C 
ATOM     46  C   UNL     1     108.277 132.479 134.612  0.00  0.00    +0.000 C 
ATOM     47  C   UNL     1     107.719 131.739 135.700  0.00  0.00    +0.000 C 
ENDBRANCH  43  44
ENDBRANCH  10  43
TORSDOF 8
ENDMDL
MODEL 7
REMARK VINA RESULT:      -9.6      1.768      5.836
REMARK  Name = 5481981
REMARK  8 active torsions:
REMARK  status: ('A' for Active; 'I' for Inactive)
REMARK    1  A    between atoms: O_1  and  C_16
REMARK    2  A    between atoms: O_1  and  C_18
REMARK    3  A    between atoms: O_4  and  C_21
REMARK    4  A    between atoms: O_4  and  C_28
REMARK    5  A    between atoms: C_25  and  C_27
REMARK    6  A    between atoms: C_29  and  C_33
REMARK    7  A    between atoms: C_34  and  C_37
REMARK    8  A    between atoms: C_37  and  C_43
REMARK                            x       y       z     vdW  Elec       q    Type
REMARK                         _______ _______ _______ _____ _____    ______ ____
ROOT
ATOM      1  O   UNL     1     110.685 129.326 136.227  0.00  0.00    +0.000 OA
ATOM      2  O   UNL     1     112.363 128.901 137.995  0.00  0.00    +0.000 OA
ATOM      3  O   UNL     1     112.431 130.307 138.310  0.00  0.00    +0.000 OA
ATOM      4  O   UNL     1     110.767 132.179 136.807  0.00  0.00    +0.000 OA
ATOM      5  C   UNL     1     111.500 128.415 136.966  0.00  0.00    +0.000 A 
ATOM      6  C   UNL     1     110.941 128.556 136.377  0.00  0.00    +0.000 A 
ATOM      7  C   UNL     1     111.804 129.043 137.406  0.00  0.00    +0.000 A 
ATOM      8  C   UNL     1     111.548 129.812 137.257  0.00  0.00    +0.000 A 
ATOM      9  C   UNL     1     110.988 129.954 136.667  0.00  0.00    +0.000 A 
ATOM     10  C   UNL     1     110.713 130.751 136.503  0.00  0.00    +0.000 A 
ATOM     11  C   UNL     1     111.871 130.458 137.722  0.00  0.00    +0.000 A 
ATOM     12  C   UNL     1     111.025 131.410 136.958  0.00  0.00    +0.000 A 
ATOM     13  C   UNL     1     111.608 131.263 137.572  0.00  0.00    +0.000 A 
ENDROOT
BRANCH   6  15
ATOM     14  O   UNL     1     109.729 126.044 134.612  0.00  0.00    +0.000 OA
ATOM     15  C   UNL     1     110.637 127.928 135.936  0.00  0.00    +0.000 A 
ATOM     16  C   UNL     1     111.056 127.641 135.285  0.00  0.00    +0.000 A 
ATOM     17  C   UNL     1     109.916 127.587 136.145  0.00  0.00    +0.000 A 
ATOM     18  C   UNL     1     110.753 127.013 134.844  0.00  0.00    +0.000 A 
ATOM     19  C   UNL     1     109.613 126.959 135.704  0.00  0.00    +0.000 A 
ATOM     20  C   UNL     1     110.031 126.672 135.054  0.00  0.00    +0.000 A 
ENDBRANCH   6  15
BRANCH   5  21
ATOM     21  O   UNL     1     111.757 127.645 137.115  0.00  0.00    +0.000 OA
BRANCH  21  28
ATOM     22  O   UNL     1     111.022 127.470 138.328  0.00  0.00    +0.000 OA
ATOM     23  O   UNL     1     112.871 126.107 139.251  0.00  0.00    +0.000 OA
ATOM     24  O   UNL     1     111.519 126.386 140.156  0.00  0.00    +0.000 OA
ATOM     25  C   UNL     1     112.314 126.876 138.183  0.00  0.00    +0.000 C 
ATOM     26  C   UNL     1     112.254 126.561 138.943  0.00  0.00    +0.000 C 
ATOM     27  C   UNL     1     111.579 126.701 139.396  0.00  0.00    +0.000 C 
ATOM     28  C   UNL     1     111.698 127.330 137.876  0.00  0.00    +0.000 C 
ATOM     29  C   UNL     1     110.963 127.155 139.088  0.00  0.00    +0.000 C 
ATOM     30  C   UNL     1     110.287 127.295 139.541  0.00  0.00    +0.000 C 
BRANCH  25  31
ATOM     31  O   UNL     1     112.989 126.737 137.730  0.00  0.00    +0.000 OA
BRANCH  31  36
ATOM     32  O   UNL     1     112.514 125.422 137.428  0.00  0.00    +0.000 OA
ATOM     33  O   UNL     1     114.354 126.446 136.849  0.00  0.00    +0.000 OA
ATOM     34  O   UNL     1     114.561 124.988 136.106  0.00  0.00    +0.000 OA
ATOM     35  O   UNL     1     113.404 123.819 136.245  0.00  0.00    +0.000 OA
ATOM     36  C   UNL     1     113.093 126.007 137.359  0.00  0.00    +0.000 C 
ATOM     37  C   UNL     1     113.775 125.861 136.918  0.00  0.00    +0.000 C 
ATOM     38  C   UNL     1     113.879 125.132 136.547  0.00  0.00    +0.000 C 
ATOM     39  C   UNL     1     113.301 124.548 136.616  0.00  0.00    +0.000 C 
ATOM     40  C   UNL     1     112.618 124.693 137.057  0.00  0.00    +0.000 C 
BRANCH  40  42
ATOM     41  O   UNL     1     111.331 124.179 136.711  0.00  0.00    +0.000 OA
ATOM     42  C   UNL     1     112.040 124.109 137.126  0.00  0.00    +0.000 C 
ENDBRANCH  40  42
ENDBRANCH  31  36
ENDBRANCH  25  31
ENDBRANCH  21  28
ENDBRANCH   5  21
BRANCH  10  43
ATOM     43  C   UNL     1     110.153 130.884 135.912  0.00  0.00    +0.000 C 
BRANCH  43  44
ATOM     44  C   UNL     1     109.392 131.130 136.112  0.00  0.00    +0.000 C 
ATOM     45  C   UNL     1     108.825 131.240 135.522  0.00  0.00    +0.000 C 
ATOM     46  C   UNL     1     108.064 131.487 135.722  0.00  0.00    +0.000 C 
ATOM     47  C   UNL     1     109.020 131.102 134.732  0.00  0.00    +0.000 C 
ENDBRANCH  43  44
ENDBRANCH  10  43
TORSDOF 8
ENDMDL
MODEL 8
REMARK VINA RESULT:      -9.6      1.650      5.492
REMARK  Name = 5481981
REMARK  8 active torsions:
REMARK  status: ('A' for Active; 'I' for Inactive)
REMARK    1  A    between atoms: O_1  and  C_16
REMARK    2  A    between atoms: O_1  and  C_18
REMARK    3  A    between atoms: O_4  and  C_21
REMARK    4  A    between atoms: O_4  and  C_28
REMARK    5  A    between atoms: C_25  and  C_27
REMARK    6  A    between atoms: C_29  and  C_33
REMARK    7  A    between atoms: C_34  and  C_37
REMARK    8  A    between atoms: C_37  and  C_43
REMARK                            x       y       z     vdW  Elec       q    Type
REMARK                         _______ _______ _______ _____ _____    ______ ____
ROOT
ATOM      1  O   UNL     1     111.006 130.141 137.755  0.00  0.00    +0.000 OA
ATOM      2  O   UNL     1     109.963 128.283 139.013  0.00  0.00    +0.000 OA
ATOM      3  O   UNL     1     108.953 129.168 139.539  0.00  0.00    +0.000 OA
ATOM      4  O   UNL     1     108.999 131.987 138.780  0.00  0.00    +0.000 OA
ATOM      5  C   UNL     1     110.979 128.764 138.130  0.00  0.00    +0.000 A 
ATOM      6  C   UNL     1     111.326 129.383 137.711  0.00  0.00    +0.000 A 
ATOM      7  C   UNL     1     110.310 128.902 138.594  0.00  0.00    +0.000 A 
ATOM      8  C   UNL     1     109.990 129.661 138.638  0.00  0.00    +0.000 A 
ATOM      9  C   UNL     1     110.338 130.281 138.218  0.00  0.00    +0.000 A 
ATOM     10  C   UNL     1     110.014 131.076 138.256  0.00  0.00    +0.000 A 
ATOM     11  C   UNL     1     109.294 129.794 139.123  0.00  0.00    +0.000 A 
ATOM     12  C   UNL     1     109.318 131.227 138.737  0.00  0.00    +0.000 A 
ATOM     13  C   UNL     1     108.955 130.582 139.174  0.00  0.00    +0.000 A 
ENDROOT
BRANCH   6  15
ATOM     14  O   UNL     1     113.998 128.827 135.855  0.00  0.00    +0.000 OA
ATOM     15  C   UNL     1     111.995 129.244 137.248  0.00  0.00    +0.000 A 
ATOM     16  C   UNL     1     111.911 128.945 136.483  0.00  0.00    +0.000 A 
ATOM     17  C   UNL     1     112.746 129.403 137.548  0.00  0.00    +0.000 A 
ATOM     18  C   UNL     1     112.578 128.806 136.019  0.00  0.00    +0.000 A 
ATOM     19  C   UNL     1     113.414 129.265 137.084  0.00  0.00    +0.000 A 
ATOM     20  C   UNL     1     113.331 128.966 136.320  0.00  0.00    +0.000 A 
ENDBRANCH   6  15
BRANCH   5  21
ATOM     21  O   UNL     1     111.299 128.005 138.086  0.00  0.00    +0.000 OA
BRANCH  21  28
ATOM     22  O   UNL     1     111.870 128.010 139.396  0.00  0.00    +0.000 OA
ATOM     23  O   UNL     1     111.405 125.589 139.609  0.00  0.00    +0.000 OA
ATOM     24  O   UNL     1     112.130 126.401 140.848  0.00  0.00    +0.000 OA
ATOM     25  C   UNL     1     111.352 126.796 138.848  0.00  0.00    +0.000 C 
ATOM     26  C   UNL     1     111.560 126.396 139.538  0.00  0.00    +0.000 C 
ATOM     27  C   UNL     1     111.922 126.801 140.157  0.00  0.00    +0.000 C 
ATOM     28  C   UNL     1     111.507 127.603 138.777  0.00  0.00    +0.000 C 
ATOM     29  C   UNL     1     112.077 127.609 140.086  0.00  0.00    +0.000 C 
ATOM     30  C   UNL     1     112.441 128.015 140.706  0.00  0.00    +0.000 C 
BRANCH  25  31
ATOM     31  O   UNL     1     110.989 126.390 138.228  0.00  0.00    +0.000 OA
BRANCH  31  36
ATOM     32  O   UNL     1     112.251 125.829 137.857  0.00  0.00    +0.000 OA
ATOM     33  O   UNL     1     110.274 125.625 136.953  0.00  0.00    +0.000 OA
ATOM     34  O   UNL     1     111.178 124.682 135.945  0.00  0.00    +0.000 OA
ATOM     35  O   UNL     1     112.796 124.504 136.212  0.00  0.00    +0.000 OA
ATOM     36  C   UNL     1     111.441 125.919 137.724  0.00  0.00    +0.000 C 
ATOM     37  C   UNL     1     111.084 125.536 137.086  0.00  0.00    +0.000 C 
ATOM     38  C   UNL     1     111.536 125.064 136.582  0.00  0.00    +0.000 C 
ATOM     39  C   UNL     1     112.344 124.975 136.716  0.00  0.00    +0.000 C 
ATOM     40  C   UNL     1     112.702 125.358 137.353  0.00  0.00    +0.000 C 
BRANCH  40  42
ATOM     41  O   UNL     1     114.026 125.894 137.334  0.00  0.00    +0.000 OA
ATOM     42  C   UNL     1     113.511 125.269 137.487  0.00  0.00    +0.000 C 
ENDBRANCH  40  42
ENDBRANCH  31  36
ENDBRANCH  25  31
ENDBRANCH  21  28
ENDBRANCH   5  21
BRANCH  10  43
ATOM     43  C   UNL     1     110.368 131.689 137.834  0.00  0.00    +0.000 C 
BRANCH  43  44
ATOM     44  C   UNL     1     109.975 132.031 137.194  0.00  0.00    +0.000 C 
ATOM     45  C   UNL     1     110.344 132.620 136.750  0.00  0.00    +0.000 C 
ATOM     46  C   UNL     1     109.951 132.961 136.110  0.00  0.00    +0.000 C 
ATOM     47  C   UNL     1     111.107 132.867 136.945  0.00  0.00    +0.000 C 
ENDBRANCH  43  44
ENDBRANCH  10  43
TORSDOF 8
ENDMDL
