MODEL 1
REMARK VINA RESULT:     -11.4      0.000      0.000
REMARK  Name = 131838618
REMARK  12 active torsions:
REMARK  status: ('A' for Active; 'I' for Inactive)
REMARK    1  A    between atoms: S_1  and  O_5
REMARK    2  A    between atoms: O_2  and  C_22
REMARK    3  A    between atoms: O_2  and  C_23
REMARK    4  A    between atoms: O_5  and  C_21
REMARK    5  A    between atoms: O_8  and  C_27
REMARK    6  A    between atoms: O_8  and  C_31
REMARK    7  A    between atoms: O_10  and  C_29
REMARK    8  A    between atoms: O_10  and  C_32
REMARK    9  A    between atoms: C_20  and  C_29
REMARK   10  A    between atoms: C_28  and  C_30
REMARK   11  A    between atoms: C_32  and  C_35
REMARK   12  A    between atoms: C_36  and  C_37
REMARK                            x       y       z     vdW  Elec       q    Type
REMARK                         _______ _______ _______ _____ _____    ______ ____
ROOT
ATOM      1  O   UNL     1     106.846 126.471 142.600  0.00  0.00    +0.000 OA
ATOM      2  O   UNL     1     107.443 125.409 140.446  0.00  0.00    +0.000 OA
ATOM      3  O   UNL     1     108.383 126.617 141.058  0.00  0.00    +0.000 OA
ATOM      4  C   UNL     1     106.574 125.512 141.575  0.00  0.00    +0.000 C 
ATOM      5  C   UNL     1     107.244 125.763 141.164  0.00  0.00    +0.000 C 
ATOM      6  C   UNL     1     107.714 126.367 141.470  0.00  0.00    +0.000 C 
ATOM      7  C   UNL     1     106.375 125.866 142.293  0.00  0.00    +0.000 C 
ATOM      8  C   UNL     1     107.515 126.721 142.188  0.00  0.00    +0.000 C 
ENDROOT
BRANCH   8  10
ATOM      9  O   UNL     1     107.670 128.082 142.594  0.00  0.00    +0.000 OA
ATOM     10  C   UNL     1     107.985 127.326 142.494  0.00  0.00    +0.000 C 
ENDBRANCH   8  10
BRANCH   4  11
ATOM     11  O   UNL     1     106.104 124.908 141.269  0.00  0.00    +0.000 OA
BRANCH  11  16
ATOM     12  O   UNL     1     105.258 125.806 140.470  0.00  0.00    +0.000 OA
ATOM     13  O   UNL     1     104.226 125.073 139.002  0.00  0.00    +0.000 OA
ATOM     14  C   UNL     1     104.757 124.914 139.613  0.00  0.00    +0.000 C 
ATOM     15  C   UNL     1     105.263 124.516 140.129  0.00  0.00    +0.000 C 
ATOM     16  C   UNL     1     105.573 125.067 140.658  0.00  0.00    +0.000 C 
ATOM     17  C   UNL     1     104.754 125.711 139.824  0.00  0.00    +0.000 C 
BRANCH  15  18
ATOM     18  O   UNL     1     105.430 123.708 140.117  0.00  0.00    +0.000 OA
BRANCH  18  19
ATOM     19  S   UNL     1     105.209 123.232 140.753  0.00  0.00    +0.000 S 
ATOM     20  O   UNL     1     104.496 123.641 140.811  0.00  0.00    +0.000 OA
ATOM     21  O   UNL     1     104.988 122.755 141.389  0.00  0.00    +0.000 OA
ATOM     22  O   UNL     1     105.923 122.822 140.694  0.00  0.00    +0.000 OA
ENDBRANCH  18  19
ENDBRANCH  15  18
BRANCH  14  23
ATOM     23  C   UNL     1     104.596 124.204 139.223  0.00  0.00    +0.000 C 
BRANCH  23  24
ATOM     24  O   UNL     1     104.132 124.205 138.541  0.00  0.00    +0.000 OA
BRANCH  24  26
ATOM     25  O   UNL     1     104.745 123.006 138.061  0.00  0.00    +0.000 OA
ATOM     26  C   UNL     1     104.115 123.539 138.054  0.00  0.00    +0.000 C 
BRANCH  26  28
ATOM     27  N   UNL     1     102.225 123.248 137.122  0.00  0.00    +0.000 NA
ATOM     28  C   UNL     1     103.469 123.407 137.559  0.00  0.00    +0.000 A 
ATOM     29  C   UNL     1     103.502 123.260 136.752  0.00  0.00    +0.000 A 
ATOM     30  C   UNL     1     102.681 123.400 137.786  0.00  0.00    +0.000 A 
ATOM     31  C   UNL     1     102.729 123.161 136.481  0.00  0.00    +0.000 A 
ATOM     32  C   UNL     1     104.134 123.203 136.225  0.00  0.00    +0.000 A 
ATOM     33  C   UNL     1     102.588 123.005 135.683  0.00  0.00    +0.000 A 
ATOM     34  C   UNL     1     103.994 123.046 135.427  0.00  0.00    +0.000 A 
ATOM     35  C   UNL     1     103.222 122.947 135.157  0.00  0.00    +0.000 A 
ENDBRANCH  26  28
ENDBRANCH  24  26
ENDBRANCH  23  24
ENDBRANCH  14  23
ENDBRANCH  11  16
ENDBRANCH   4  11
BRANCH   7  36
ATOM     36  O   UNL     1     105.706 125.616 142.705  0.00  0.00    +0.000 OA
BRANCH  36  37
ATOM     37  C   UNL     1     105.745 125.490 143.520  0.00  0.00    +0.000 A 
ATOM     38  C   UNL     1     105.987 124.757 143.812  0.00  0.00    +0.000 A 
ATOM     39  C   UNL     1     105.543 126.096 144.041  0.00  0.00    +0.000 A 
ATOM     40  C   UNL     1     105.824 125.239 145.149  0.00  0.00    +0.000 A 
ATOM     41  C   UNL     1     106.026 124.632 144.627  0.00  0.00    +0.000 A 
ATOM     42  C   UNL     1     105.583 125.971 144.855  0.00  0.00    +0.000 A 
BRANCH  40  46
ATOM     43  O   UNL     1     106.596 125.099 146.343  0.00  0.00    +0.000 OA
ATOM     44  O   UNL     1     104.518 124.764 147.646  0.00  0.00    +0.000 OA
ATOM     45  O   UNL     1     108.185 124.815 148.767  0.00  0.00    +0.000 OA
ATOM     46  C   UNL     1     105.864 125.113 145.963  0.00  0.00    +0.000 C 
ATOM     47  C   UNL     1     105.171 125.002 146.397  0.00  0.00    +0.000 C 
ATOM     48  C   UNL     1     105.211 124.876 147.211  0.00  0.00    +0.000 C 
ATOM     49  C   UNL     1     106.635 124.973 147.157  0.00  0.00    +0.000 A 
ATOM     50  C   UNL     1     105.942 124.861 147.592  0.00  0.00    +0.000 A 
ATOM     51  C   UNL     1     107.404 124.960 147.541  0.00  0.00    +0.000 A 
ATOM     52  C   UNL     1     105.970 124.729 148.440  0.00  0.00    +0.000 A 
ATOM     53  C   UNL     1     107.451 124.829 148.390  0.00  0.00    +0.000 A 
ATOM     54  C   UNL     1     106.730 124.713 148.842  0.00  0.00    +0.000 A 
ENDBRANCH  40  46
ENDBRANCH  36  37
ENDBRANCH   7  36
TORSDOF 12
ENDMDL
MODEL 2
REMARK VINA RESULT:     -11.1      6.211     10.982
REMARK  Name = 131838618
REMARK  12 active torsions:
REMARK  status: ('A' for Active; 'I' for Inactive)
REMARK    1  A    between atoms: S_1  and  O_5
REMARK    2  A    between atoms: O_2  and  C_22
REMARK    3  A    between atoms: O_2  and  C_23
REMARK    4  A    between atoms: O_5  and  C_21
REMARK    5  A    between atoms: O_8  and  C_27
REMARK    6  A    between atoms: O_8  and  C_31
REMARK    7  A    between atoms: O_10  and  C_29
REMARK    8  A    between atoms: O_10  and  C_32
REMARK    9  A    between atoms: C_20  and  C_29
REMARK   10  A    between atoms: C_28  and  C_30
REMARK   11  A    between atoms: C_32  and  C_35
REMARK   12  A    between atoms: C_36  and  C_37
REMARK                            x       y       z     vdW  Elec       q    Type
REMARK                         _______ _______ _______ _____ _____    ______ ____
ROOT
ATOM      1  O   UNL     1     110.168 127.548 141.537  0.00  0.00    +0.000 OA
ATOM      2  O   UNL     1     109.160 129.497 142.682  0.00  0.00    +0.000 OA
ATOM      3  O   UNL     1     108.217 128.213 142.253  0.00  0.00    +0.000 OA
ATOM      4  C   UNL     1     110.304 128.840 142.133  0.00  0.00    +0.000 C 
ATOM      5  C   UNL     1     109.496 128.847 142.300  0.00  0.00    +0.000 C 
ATOM      6  C   UNL     1     109.024 128.206 142.086  0.00  0.00    +0.000 C 
ATOM      7  C   UNL     1     110.640 128.190 141.752  0.00  0.00    +0.000 C 
ATOM      8  C   UNL     1     109.360 127.556 141.704  0.00  0.00    +0.000 C 
ENDROOT
BRANCH   8  10
ATOM      9  O   UNL     1     109.045 126.166 141.802  0.00  0.00    +0.000 OA
ATOM     10  C   UNL     1     108.889 126.914 141.489  0.00  0.00    +0.000 C 
ENDBRANCH   8  10
BRANCH   4  11
ATOM     11  O   UNL     1     110.775 129.481 142.347  0.00  0.00    +0.000 OA
BRANCH  11  16
ATOM     12  O   UNL     1     111.127 128.932 143.665  0.00  0.00    +0.000 OA
ATOM     13  O   UNL     1     111.822 130.122 145.029  0.00  0.00    +0.000 OA
ATOM     14  C   UNL     1     111.543 130.055 144.256  0.00  0.00    +0.000 C 
ATOM     15  C   UNL     1     111.312 130.242 143.486  0.00  0.00    +0.000 C 
ATOM     16  C   UNL     1     111.055 129.548 143.121  0.00  0.00    +0.000 C 
ATOM     17  C   UNL     1     111.429 129.246 144.366  0.00  0.00    +0.000 C 
BRANCH  15  18
ATOM     18  O   UNL     1     111.334 130.991 143.142  0.00  0.00    +0.000 OA
BRANCH  18  19
ATOM     19  S   UNL     1     111.771 131.116 142.453  0.00  0.00    +0.000 S 
ATOM     20  O   UNL     1     111.148 131.554 142.137  0.00  0.00    +0.000 OA
ATOM     21  O   UNL     1     112.209 131.241 141.765  0.00  0.00    +0.000 OA
ATOM     22  O   UNL     1     112.395 130.678 142.770  0.00  0.00    +0.000 OA
ENDBRANCH  18  19
ENDBRANCH  15  18
BRANCH  14  23
ATOM     23  C   UNL     1     111.738 130.846 144.389  0.00  0.00    +0.000 C 
BRANCH  23  24
ATOM     24  O   UNL     1     111.672 131.164 145.147  0.00  0.00    +0.000 OA
BRANCH  24  26
ATOM     25  O   UNL     1     112.685 132.140 144.895  0.00  0.00    +0.000 OA
ATOM     26  C   UNL     1     112.025 131.889 145.322  0.00  0.00    +0.000 C 
BRANCH  26  28
ATOM     27  N   UNL     1     110.935 133.196 146.599  0.00  0.00    +0.000 NA
ATOM     28  C   UNL     1     111.718 132.363 145.924  0.00  0.00    +0.000 A 
ATOM     29  C   UNL     1     112.044 132.465 146.670  0.00  0.00    +0.000 A 
ATOM     30  C   UNL     1     111.034 132.814 145.881  0.00  0.00    +0.000 A 
ATOM     31  C   UNL     1     111.558 132.983 147.090  0.00  0.00    +0.000 A 
ATOM     32  C   UNL     1     112.721 132.155 147.026  0.00  0.00    +0.000 A 
ATOM     33  C   UNL     1     111.748 133.191 147.865  0.00  0.00    +0.000 A 
ATOM     34  C   UNL     1     112.912 132.363 147.801  0.00  0.00    +0.000 A 
ATOM     35  C   UNL     1     112.425 132.880 148.220  0.00  0.00    +0.000 A 
ENDBRANCH  26  28
ENDBRANCH  24  26
ENDBRANCH  23  24
ENDBRANCH  14  23
ENDBRANCH  11  16
ENDBRANCH   4  11
BRANCH   7  36
ATOM     36  O   UNL     1     111.448 128.182 141.584  0.00  0.00    +0.000 OA
BRANCH  36  37
ATOM     37  C   UNL     1     111.735 127.728 140.959  0.00  0.00    +0.000 A 
ATOM     38  C   UNL     1     111.674 128.007 140.185  0.00  0.00    +0.000 A 
ATOM     39  C   UNL     1     112.083 126.995 141.107  0.00  0.00    +0.000 A 
ATOM     40  C   UNL     1     112.310 126.819 139.707  0.00  0.00    +0.000 A 
ATOM     41  C   UNL     1     111.962 127.552 139.559  0.00  0.00    +0.000 A 
ATOM     42  C   UNL     1     112.371 126.541 140.482  0.00  0.00    +0.000 A 
BRANCH  40  46
ATOM     43  O   UNL     1     112.073 125.945 138.602  0.00  0.00    +0.000 OA
ATOM     44  O   UNL     1     114.508 125.839 138.166  0.00  0.00    +0.000 OA
ATOM     45  O   UNL     1     111.573 124.167 136.351  0.00  0.00    +0.000 OA
ATOM     46  C   UNL     1     112.598 126.364 139.082  0.00  0.00    +0.000 C 
ATOM     47  C   UNL     1     113.409 126.329 138.937  0.00  0.00    +0.000 C 
ATOM     48  C   UNL     1     113.696 125.875 138.311  0.00  0.00    +0.000 C 
ATOM     49  C   UNL     1     112.361 125.491 137.976  0.00  0.00    +0.000 A 
ATOM     50  C   UNL     1     113.173 125.455 137.830  0.00  0.00    +0.000 A 
ATOM     51  C   UNL     1     111.805 125.059 137.483  0.00  0.00    +0.000 A 
ATOM     52  C   UNL     1     113.485 124.986 137.182  0.00  0.00    +0.000 A 
ATOM     53  C   UNL     1     112.099 124.584 136.829  0.00  0.00    +0.000 A 
ATOM     54  C   UNL     1     112.944 124.547 136.678  0.00  0.00    +0.000 A 
ENDBRANCH  40  46
ENDBRANCH  36  37
ENDBRANCH   7  36
TORSDOF 12
ENDMDL
MODEL 3
REMARK VINA RESULT:     -11.1      4.101      7.077
REMARK  Name = 131838618
REMARK  12 active torsions:
REMARK  status: ('A' for Active; 'I' for Inactive)
REMARK    1  A    between atoms: S_1  and  O_5
REMARK    2  A    between atoms: O_2  and  C_22
REMARK    3  A    between atoms: O_2  and  C_23
REMARK    4  A    between atoms: O_5  and  C_21
REMARK    5  A    between atoms: O_8  and  C_27
REMARK    6  A    between atoms: O_8  and  C_31
REMARK    7  A    between atoms: O_10  and  C_29
REMARK    8  A    between atoms: O_10  and  C_32
REMARK    9  A    between atoms: C_20  and  C_29
REMARK   10  A    between atoms: C_28  and  C_30
REMARK   11  A    between atoms: C_32  and  C_35
REMARK   12  A    between atoms: C_36  and  C_37
REMARK                            x       y       z     vdW  Elec       q    Type
REMARK                         _______ _______ _______ _____ _____    ______ ____
ROOT
ATOM      1  O   UNL     1     106.416 128.576 142.316  0.00  0.00    +0.000 OA
ATOM      2  O   UNL     1     107.982 126.705 142.732  0.00  0.00    +0.000 OA
ATOM      3  O   UNL     1     108.540 128.122 142.101  0.00  0.00    +0.000 OA
ATOM      4  C   UNL     1     106.658 127.242 142.770  0.00  0.00    +0.000 C 
ATOM      5  C   UNL     1     107.460 127.328 142.593  0.00  0.00    +0.000 C 
ATOM      6  C   UNL     1     107.739 128.037 142.278  0.00  0.00    +0.000 C 
ATOM      7  C   UNL     1     106.137 127.866 142.632  0.00  0.00    +0.000 C 
ATOM      8  C   UNL     1     107.217 128.660 142.139  0.00  0.00    +0.000 C 
ENDROOT
BRANCH   8  10
ATOM      9  O   UNL     1     107.331 129.564 141.038  0.00  0.00    +0.000 OA
ATOM     10  C   UNL     1     107.496 129.370 141.823  0.00  0.00    +0.000 C 
ENDBRANCH   8  10
BRANCH   4  11
ATOM     11  O   UNL     1     106.379 126.534 143.086  0.00  0.00    +0.000 OA
BRANCH  11  16
ATOM     12  O   UNL     1     106.792 126.868 144.457  0.00  0.00    +0.000 OA
ATOM     13  O   UNL     1     106.126 125.799 145.931  0.00  0.00    +0.000 OA
ATOM     14  C   UNL     1     106.126 125.916 145.115  0.00  0.00    +0.000 C 
ATOM     15  C   UNL     1     105.968 125.829 144.309  0.00  0.00    +0.000 C 
ATOM     16  C   UNL     1     106.379 126.417 143.903  0.00  0.00    +0.000 C 
ATOM     17  C   UNL     1     106.635 126.559 145.205  0.00  0.00    +0.000 C 
BRANCH  15  18
ATOM     18  O   UNL     1     105.484 125.253 143.970  0.00  0.00    +0.000 OA
BRANCH  18  19
ATOM     19  S   UNL     1     105.791 124.737 143.405  0.00  0.00    +0.000 S 
ATOM     20  O   UNL     1     105.149 124.895 142.911  0.00  0.00    +0.000 OA
ATOM     21  O   UNL     1     106.098 124.220 142.840  0.00  0.00    +0.000 OA
ATOM     22  O   UNL     1     106.433 124.579 143.898  0.00  0.00    +0.000 OA
ENDBRANCH  18  19
ENDBRANCH  15  18
BRANCH  14  23
ATOM     23  C   UNL     1     105.642 125.269 145.280  0.00  0.00    +0.000 C 
BRANCH  23  24
ATOM     24  O   UNL     1     105.087 125.314 145.889  0.00  0.00    +0.000 OA
BRANCH  24  26
ATOM     25  O   UNL     1     105.356 123.984 146.339  0.00  0.00    +0.000 OA
ATOM     26  C   UNL     1     104.843 124.627 146.275  0.00  0.00    +0.000 C 
BRANCH  26  28
ATOM     27  N   UNL     1     103.001 124.851 147.316  0.00  0.00    +0.000 NA
ATOM     28  C   UNL     1     104.084 124.583 146.597  0.00  0.00    +0.000 A 
ATOM     29  C   UNL     1     103.519 124.015 146.421  0.00  0.00    +0.000 A 
ATOM     30  C   UNL     1     103.765 125.098 147.149  0.00  0.00    +0.000 A 
ATOM     31  C   UNL     1     102.845 124.182 146.868  0.00  0.00    +0.000 A 
ATOM     32  C   UNL     1     103.525 123.366 145.913  0.00  0.00    +0.000 A 
ATOM     33  C   UNL     1     102.179 123.700 146.806  0.00  0.00    +0.000 A 
ATOM     34  C   UNL     1     102.859 122.883 145.850  0.00  0.00    +0.000 A 
ATOM     35  C   UNL     1     102.187 123.050 146.296  0.00  0.00    +0.000 A 
ENDBRANCH  26  28
ENDBRANCH  24  26
ENDBRANCH  23  24
ENDBRANCH  14  23
ENDBRANCH  11  16
ENDBRANCH   4  11
BRANCH   7  36
ATOM     36  O   UNL     1     105.335 127.781 142.809  0.00  0.00    +0.000 OA
BRANCH  36  37
ATOM     37  C   UNL     1     104.806 128.389 142.631  0.00  0.00    +0.000 A 
ATOM     38  C   UNL     1     104.407 128.389 141.908  0.00  0.00    +0.000 A 
ATOM     39  C   UNL     1     104.677 128.995 143.174  0.00  0.00    +0.000 A 
ATOM     40  C   UNL     1     103.749 129.604 142.275  0.00  0.00    +0.000 A 
ATOM     41  C   UNL     1     103.879 128.997 141.730  0.00  0.00    +0.000 A 
ATOM     42  C   UNL     1     104.148 129.602 142.996  0.00  0.00    +0.000 A 
BRANCH  40  46
ATOM     43  O   UNL     1     102.767 130.553 142.696  0.00  0.00    +0.000 OA
ATOM     44  O   UNL     1     102.539 131.352 140.364  0.00  0.00    +0.000 OA
ATOM     45  O   UNL     1     100.768 132.480 143.573  0.00  0.00    +0.000 OA
ATOM     46  C   UNL     1     103.220 130.212 142.097  0.00  0.00    +0.000 C 
ATOM     47  C   UNL     1     103.144 130.478 141.320  0.00  0.00    +0.000 C 
ATOM     48  C   UNL     1     102.615 131.085 141.142  0.00  0.00    +0.000 C 
ATOM     49  C   UNL     1     102.238 131.160 142.518  0.00  0.00    +0.000 A 
ATOM     50  C   UNL     1     102.162 131.427 141.741  0.00  0.00    +0.000 A 
ATOM     51  C   UNL     1     101.772 131.508 143.151  0.00  0.00    +0.000 A 
ATOM     52  C   UNL     1     101.615 132.059 141.543  0.00  0.00    +0.000 A 
ATOM     53  C   UNL     1     101.219 132.141 142.972  0.00  0.00    +0.000 A 
ATOM     54  C   UNL     1     101.141 132.418 142.163  0.00  0.00    +0.000 A 
ENDBRANCH  40  46
ENDBRANCH  36  37
ENDBRANCH   7  36
TORSDOF 12
ENDMDL
MODEL 4
REMARK VINA RESULT:     -10.9      4.413      7.910
REMARK  Name = 131838618
REMARK  12 active torsions:
REMARK  status: ('A' for Active; 'I' for Inactive)
REMARK    1  A    between atoms: S_1  and  O_5
REMARK    2  A    between atoms: O_2  and  C_22
REMARK    3  A    between atoms: O_2  and  C_23
REMARK    4  A    between atoms: O_5  and  C_21
REMARK    5  A    between atoms: O_8  and  C_27
REMARK    6  A    between atoms: O_8  and  C_31
REMARK    7  A    between atoms: O_10  and  C_29
REMARK    8  A    between atoms: O_10  and  C_32
REMARK    9  A    between atoms: C_20  and  C_29
REMARK   10  A    between atoms: C_28  and  C_30
REMARK   11  A    between atoms: C_32  and  C_35
REMARK   12  A    between atoms: C_36  and  C_37
REMARK                            x       y       z     vdW  Elec       q    Type
REMARK                         _______ _______ _______ _____ _____    ______ ____
ROOT
ATOM      1  O   UNL     1     108.146 128.758 141.798  0.00  0.00    +0.000 OA
ATOM      2  O   UNL     1     105.741 128.379 142.242  0.00  0.00    +0.000 OA
ATOM      3  O   UNL     1     106.224 129.711 141.398  0.00  0.00    +0.000 OA
ATOM      4  C   UNL     1     107.102 127.965 142.369  0.00  0.00    +0.000 C 
ATOM      5  C   UNL     1     106.543 128.505 142.094  0.00  0.00    +0.000 C 
ATOM      6  C   UNL     1     106.784 129.171 141.672  0.00  0.00    +0.000 C 
ATOM      7  C   UNL     1     107.904 128.091 142.221  0.00  0.00    +0.000 C 
ATOM      8  C   UNL     1     107.586 129.297 141.524  0.00  0.00    +0.000 C 
ENDROOT
BRANCH   8  10
ATOM      9  O   UNL     1     108.036 129.893 140.306  0.00  0.00    +0.000 OA
ATOM     10  C   UNL     1     107.828 129.963 141.102  0.00  0.00    +0.000 C 
ENDBRANCH   8  10
BRANCH   4  11
ATOM     11  O   UNL     1     106.861 127.299 142.791  0.00  0.00    +0.000 OA
BRANCH  11  16
ATOM     12  O   UNL     1     106.735 128.036 144.057  0.00  0.00    +0.000 OA
ATOM     13  O   UNL     1     106.457 127.048 145.701  0.00  0.00    +0.000 OA
ATOM     14  C   UNL     1     106.564 127.003 144.885  0.00  0.00    +0.000 C 
ATOM     15  C   UNL     1     106.648 126.706 144.119  0.00  0.00    +0.000 C 
ATOM     16  C   UNL     1     106.754 127.344 143.608  0.00  0.00    +0.000 C 
ATOM     17  C   UNL     1     106.618 127.825 144.845  0.00  0.00    +0.000 C 
BRANCH  15  18
ATOM     18  O   UNL     1     106.630 125.909 143.904  0.00  0.00    +0.000 OA
BRANCH  18  19
ATOM     19  S   UNL     1     106.059 125.639 143.373  0.00  0.00    +0.000 S 
ATOM     20  O   UNL     1     106.640 125.222 142.961  0.00  0.00    +0.000 OA
ATOM     21  O   UNL     1     105.489 125.369 142.842  0.00  0.00    +0.000 OA
ATOM     22  O   UNL     1     105.479 126.056 143.784  0.00  0.00    +0.000 OA
ENDBRANCH  18  19
ENDBRANCH  15  18
BRANCH  14  23
ATOM     23  C   UNL     1     106.480 126.234 145.174  0.00  0.00    +0.000 C 
BRANCH  23  24
ATOM     24  O   UNL     1     106.447 126.102 145.987  0.00  0.00    +0.000 OA
BRANCH  24  26
ATOM     25  O   UNL     1     107.122 124.847 145.869  0.00  0.00    +0.000 OA
ATOM     26  C   UNL     1     106.627 125.356 146.290  0.00  0.00    +0.000 C 
BRANCH  26  28
ATOM     27  N   UNL     1     105.453 124.758 147.961  0.00  0.00    +0.000 NA
ATOM     28  C   UNL     1     106.313 125.118 147.015  0.00  0.00    +0.000 A 
ATOM     29  C   UNL     1     106.739 124.974 147.701  0.00  0.00    +0.000 A 
ATOM     30  C   UNL     1     105.520 124.985 147.176  0.00  0.00    +0.000 A 
ATOM     31  C   UNL     1     106.205 124.751 148.289  0.00  0.00    +0.000 A 
ATOM     32  C   UNL     1     107.545 125.017 147.871  0.00  0.00    +0.000 A 
ATOM     33  C   UNL     1     106.477 124.569 149.046  0.00  0.00    +0.000 A 
ATOM     34  C   UNL     1     107.818 124.835 148.629  0.00  0.00    +0.000 A 
ATOM     35  C   UNL     1     107.283 124.612 149.216  0.00  0.00    +0.000 A 
ENDBRANCH  26  28
ENDBRANCH  24  26
ENDBRANCH  23  24
ENDBRANCH  14  23
ENDBRANCH  11  16
ENDBRANCH   4  11
BRANCH   7  36
ATOM     36  O   UNL     1     108.464 127.551 142.495  0.00  0.00    +0.000 OA
BRANCH  36  37
ATOM     37  C   UNL     1     109.156 127.419 142.065  0.00  0.00    +0.000 A 
ATOM     38  C   UNL     1     109.162 126.859 141.458  0.00  0.00    +0.000 A 
ATOM     39  C   UNL     1     109.839 127.846 142.240  0.00  0.00    +0.000 A 
ATOM     40  C   UNL     1     110.538 127.154 141.203  0.00  0.00    +0.000 A 
ATOM     41  C   UNL     1     109.853 126.727 141.027  0.00  0.00    +0.000 A 
ATOM     42  C   UNL     1     110.530 127.713 141.810  0.00  0.00    +0.000 A 
BRANCH  40  46
ATOM     43  O   UNL     1     111.965 127.131 141.130  0.00  0.00    +0.000 OA
ATOM     44  O   UNL     1     111.831 126.406 138.767  0.00  0.00    +0.000 OA
ATOM     45  O   UNL     1     114.873 127.089 140.999  0.00  0.00    +0.000 OA
ATOM     46  C   UNL     1     111.229 127.022 140.773  0.00  0.00    +0.000 C 
ATOM     47  C   UNL     1     111.184 126.780 139.986  0.00  0.00    +0.000 C 
ATOM     48  C   UNL     1     111.875 126.648 139.555  0.00  0.00    +0.000 C 
ATOM     49  C   UNL     1     112.656 126.999 140.700  0.00  0.00    +0.000 A 
ATOM     50  C   UNL     1     112.611 126.757 139.911  0.00  0.00    +0.000 A 
ATOM     51  C   UNL     1     113.416 127.116 141.083  0.00  0.00    +0.000 A 
ATOM     52  C   UNL     1     113.324 126.616 139.453  0.00  0.00    +0.000 A 
ATOM     53  C   UNL     1     114.140 126.979 140.639  0.00  0.00    +0.000 A 
ATOM     54  C   UNL     1     114.093 126.728 139.819  0.00  0.00    +0.000 A 
ENDBRANCH  40  46
ENDBRANCH  36  37
ENDBRANCH   7  36
TORSDOF 12
ENDMDL
MODEL 5
REMARK VINA RESULT:     -10.8      6.872      8.026
REMARK  Name = 131838618
REMARK  12 active torsions:
REMARK  status: ('A' for Active; 'I' for Inactive)
REMARK    1  A    between atoms: S_1  and  O_5
REMARK    2  A    between atoms: O_2  and  C_22
REMARK    3  A    between atoms: O_2  and  C_23
REMARK    4  A    between atoms: O_5  and  C_21
REMARK    5  A    between atoms: O_8  and  C_27
REMARK    6  A    between atoms: O_8  and  C_31
REMARK    7  A    between atoms: O_10  and  C_29
REMARK    8  A    between atoms: O_10  and  C_32
REMARK    9  A    between atoms: C_20  and  C_29
REMARK   10  A    between atoms: C_28  and  C_30
REMARK   11  A    between atoms: C_32  and  C_35
REMARK   12  A    between atoms: C_36  and  C_37
REMARK                            x       y       z     vdW  Elec       q    Type
REMARK                         _______ _______ _______ _____ _____    ______ ____
ROOT
ATOM      1  O   UNL     1     113.333 130.502 141.547  0.00  0.00    +0.000 OA
ATOM      2  O   UNL     1     113.906 128.423 140.332  0.00  0.00    +0.000 OA
ATOM      3  O   UNL     1     115.047 129.595 140.545  0.00  0.00    +0.000 OA
ATOM      4  C   UNL     1     112.953 129.222 141.035  0.00  0.00    +0.000 C 
ATOM      5  C   UNL     1     113.715 129.116 140.737  0.00  0.00    +0.000 C 
ATOM      6  C   UNL     1     114.286 129.701 140.843  0.00  0.00    +0.000 C 
ATOM      7  C   UNL     1     112.762 129.915 141.440  0.00  0.00    +0.000 C 
ATOM      8  C   UNL     1     114.095 130.394 141.248  0.00  0.00    +0.000 C 
ENDROOT
BRANCH   8  10
ATOM      9  O   UNL     1     114.581 131.711 140.978  0.00  0.00    +0.000 OA
ATOM     10  C   UNL     1     114.665 130.981 141.355  0.00  0.00    +0.000 C 
ENDBRANCH   8  10
BRANCH   4  11
ATOM     11  O   UNL     1     112.383 128.636 140.929  0.00  0.00    +0.000 OA
BRANCH  11  16
ATOM     12  O   UNL     1     111.832 129.215 139.695  0.00  0.00    +0.000 OA
ATOM     13  O   UNL     1     110.827 128.080 138.487  0.00  0.00    +0.000 OA
ATOM     14  C   UNL     1     111.246 128.124 139.196  0.00  0.00    +0.000 C 
ATOM     15  C   UNL     1     111.601 127.919 139.912  0.00  0.00    +0.000 C 
ATOM     16  C   UNL     1     111.963 128.592 140.220  0.00  0.00    +0.000 C 
ATOM     17  C   UNL     1     111.389 128.925 139.062  0.00  0.00    +0.000 C 
BRANCH  15  18
ATOM     18  O   UNL     1     111.595 127.170 140.258  0.00  0.00    +0.000 OA
BRANCH  18  19
ATOM     19  S   UNL     1     111.266 127.065 141.008  0.00  0.00    +0.000 S 
ATOM     20  O   UNL     1     111.895 126.573 141.215  0.00  0.00    +0.000 OA
ATOM     21  O   UNL     1     110.937 126.960 141.757  0.00  0.00    +0.000 OA
ATOM     22  O   UNL     1     110.637 127.557 140.800  0.00  0.00    +0.000 OA
ENDBRANCH  18  19
ENDBRANCH  15  18
BRANCH  14  23
ATOM     23  C   UNL     1     110.981 127.348 139.104  0.00  0.00    +0.000 C 
BRANCH  23  24
ATOM     24  O   UNL     1     110.978 126.999 138.357  0.00  0.00    +0.000 OA
BRANCH  24  26
ATOM     25  O   UNL     1     109.823 126.195 138.606  0.00  0.00    +0.000 OA
ATOM     26  C   UNL     1     110.547 126.308 138.227  0.00  0.00    +0.000 C 
BRANCH  26  28
ATOM     27  N   UNL     1     111.484 124.666 137.251  0.00  0.00    +0.000 NA
ATOM     28  C   UNL     1     110.840 125.729 137.716  0.00  0.00    +0.000 A 
ATOM     29  C   UNL     1     110.694 125.679 136.911  0.00  0.00    +0.000 A 
ATOM     30  C   UNL     1     111.327 125.104 137.926  0.00  0.00    +0.000 A 
ATOM     31  C   UNL     1     111.094 125.018 136.622  0.00  0.00    +0.000 A 
ATOM     32  C   UNL     1     110.249 126.148 136.398  0.00  0.00    +0.000 A 
ATOM     33  C   UNL     1     111.049 124.826 135.821  0.00  0.00    +0.000 A 
ATOM     34  C   UNL     1     110.203 125.957 135.597  0.00  0.00    +0.000 A 
ATOM     35  C   UNL     1     110.604 125.296 135.309  0.00  0.00    +0.000 A 
ENDBRANCH  26  28
ENDBRANCH  24  26
ENDBRANCH  23  24
ENDBRANCH  14  23
ENDBRANCH  11  16
ENDBRANCH   4  11
BRANCH   7  36
ATOM     36  O   UNL     1     112.001 130.023 141.739  0.00  0.00    +0.000 OA
BRANCH  36  37
ATOM     37  C   UNL     1     111.890 130.419 142.454  0.00  0.00    +0.000 A 
ATOM     38  C   UNL     1     111.714 131.225 142.455  0.00  0.00    +0.000 A 
ATOM     39  C   UNL     1     111.955 130.010 143.166  0.00  0.00    +0.000 A 
ATOM     40  C   UNL     1     111.668 131.212 143.883  0.00  0.00    +0.000 A 
ATOM     41  C   UNL     1     111.603 131.622 143.169  0.00  0.00    +0.000 A 
ATOM     42  C   UNL     1     111.843 130.406 143.881  0.00  0.00    +0.000 A 
BRANCH  40  46
ATOM     43  O   UNL     1     112.159 131.620 145.161  0.00  0.00    +0.000 OA
ATOM     44  O   UNL     1     110.018 132.776 145.616  0.00  0.00    +0.000 OA
ATOM     45  O   UNL     1     113.178 132.441 147.763  0.00  0.00    +0.000 OA
ATOM     46  C   UNL     1     111.556 131.609 144.598  0.00  0.00    +0.000 C 
ATOM     47  C   UNL     1     110.843 131.994 144.749  0.00  0.00    +0.000 C 
ATOM     48  C   UNL     1     110.732 132.390 145.464  0.00  0.00    +0.000 C 
ATOM     49  C   UNL     1     112.048 132.016 145.876  0.00  0.00    +0.000 A 
ATOM     50  C   UNL     1     111.334 132.402 146.028  0.00  0.00    +0.000 A 
ATOM     51  C   UNL     1     112.684 132.020 146.455  0.00  0.00    +0.000 A 
ATOM     52  C   UNL     1     111.206 132.818 146.768  0.00  0.00    +0.000 A 
ATOM     53  C   UNL     1     112.573 132.432 147.202  0.00  0.00    +0.000 A 
ATOM     54  C   UNL     1     111.830 132.833 147.359  0.00  0.00    +0.000 A 
ENDBRANCH  40  46
ENDBRANCH  36  37
ENDBRANCH   7  36
TORSDOF 12
ENDMDL
MODEL 6
REMARK VINA RESULT:     -10.8      5.114      8.020
REMARK  Name = 131838618
REMARK  12 active torsions:
REMARK  status: ('A' for Active; 'I' for Inactive)
REMARK    1  A    between atoms: S_1  and  O_5
REMARK    2  A    between atoms: O_2  and  C_22
REMARK    3  A    between atoms: O_2  and  C_23
REMARK    4  A    between atoms: O_5  and  C_21
REMARK    5  A    between atoms: O_8  and  C_27
REMARK    6  A    between atoms: O_8  and  C_31
REMARK    7  A    between atoms: O_10  and  C_29
REMARK    8  A    between atoms: O_10  and  C_32
REMARK    9  A    between atoms: C_20  and  C_29
REMARK   10  A    between atoms: C_28  and  C_30
REMARK   11  A    between atoms: C_32  and  C_35
REMARK   12  A    between atoms: C_36  and  C_37
REMARK                            x       y       z     vdW  Elec       q    Type
REMARK                         _______ _______ _______ _____ _____    ______ ____
ROOT
ATOM      1  O   UNL     1     111.259 128.223 141.011  0.00  0.00    +0.000 OA
ATOM      2  O   UNL     1     109.948 128.435 143.100  0.00  0.00    +0.000 OA
ATOM      3  O   UNL     1     111.530 128.903 143.067  0.00  0.00    +0.000 OA
ATOM      4  C   UNL     1     110.031 128.059 141.724  0.00  0.00    +0.000 C 
ATOM      5  C   UNL     1     110.385 128.364 142.404  0.00  0.00    +0.000 C 
ATOM      6  C   UNL     1     111.176 128.598 142.388  0.00  0.00    +0.000 C 
ATOM      7  C   UNL     1     110.468 127.989 141.028  0.00  0.00    +0.000 C 
ATOM      8  C   UNL     1     111.613 128.527 141.692  0.00  0.00    +0.000 C 
ENDROOT
BRANCH   8  10
ATOM      9  O   UNL     1     112.645 129.363 141.164  0.00  0.00    +0.000 OA
ATOM     10  C   UNL     1     112.404 128.761 141.675  0.00  0.00    +0.000 C 
ENDBRANCH   8  10
BRANCH   4  11
ATOM     11  O   UNL     1     109.240 127.826 141.740  0.00  0.00    +0.000 OA
BRANCH  11  16
ATOM     12  O   UNL     1     108.743 129.114 141.235  0.00  0.00    +0.000 OA
ATOM     13  O   UNL     1     106.852 129.517 141.379  0.00  0.00    +0.000 OA
ATOM     14  C   UNL     1     107.448 128.967 141.528  0.00  0.00    +0.000 C 
ATOM     15  C   UNL     1     107.844 128.285 141.772  0.00  0.00    +0.000 C 
ATOM     16  C   UNL     1     108.643 128.376 141.591  0.00  0.00    +0.000 C 
ATOM     17  C   UNL     1     108.004 129.479 141.196  0.00  0.00    +0.000 C 
BRANCH  15  18
ATOM     18  O   UNL     1     107.500 127.628 142.133  0.00  0.00    +0.000 OA
BRANCH  18  19
ATOM     19  S   UNL     1     107.585 126.881 141.796  0.00  0.00    +0.000 S 
ATOM     20  O   UNL     1     107.793 126.572 142.532  0.00  0.00    +0.000 OA
ATOM     21  O   UNL     1     107.669 126.133 141.458  0.00  0.00    +0.000 OA
ATOM     22  O   UNL     1     107.376 127.189 141.060  0.00  0.00    +0.000 OA
ENDBRANCH  18  19
ENDBRANCH  15  18
BRANCH  14  23
ATOM     23  C   UNL     1     106.736 128.650 141.797  0.00  0.00    +0.000 C 
BRANCH  23  24
ATOM     24  O   UNL     1     106.030 129.057 141.671  0.00  0.00    +0.000 OA
BRANCH  24  26
ATOM     25  O   UNL     1     105.440 128.609 142.893  0.00  0.00    +0.000 OA
ATOM     26  C   UNL     1     105.360 128.868 142.114  0.00  0.00    +0.000 C 
BRANCH  26  28
ATOM     27  N   UNL     1     103.531 128.708 141.038  0.00  0.00    +0.000 NA
ATOM     28  C   UNL     1     104.610 128.939 141.778  0.00  0.00    +0.000 A 
ATOM     29  C   UNL     1     104.060 129.524 141.946  0.00  0.00    +0.000 A 
ATOM     30  C   UNL     1     104.283 128.436 141.218  0.00  0.00    +0.000 A 
ATOM     31  C   UNL     1     103.390 129.381 141.487  0.00  0.00    +0.000 A 
ATOM     32  C   UNL     1     104.078 130.170 142.458  0.00  0.00    +0.000 A 
ATOM     33  C   UNL     1     102.739 129.884 141.538  0.00  0.00    +0.000 A 
ATOM     34  C   UNL     1     103.427 130.675 142.510  0.00  0.00    +0.000 A 
ATOM     35  C   UNL     1     102.758 130.531 142.051  0.00  0.00    +0.000 A 
ENDBRANCH  26  28
ENDBRANCH  24  26
ENDBRANCH  23  24
ENDBRANCH  14  23
ENDBRANCH  11  16
ENDBRANCH   4  11
BRANCH   7  36
ATOM     36  O   UNL     1     110.114 127.684 140.347  0.00  0.00    +0.000 OA
BRANCH  36  37
ATOM     37  C   UNL     1     110.551 127.211 139.831  0.00  0.00    +0.000 A 
ATOM     38  C   UNL     1     110.785 127.509 139.098  0.00  0.00    +0.000 A 
ATOM     39  C   UNL     1     110.753 126.442 140.048  0.00  0.00    +0.000 A 
ATOM     40  C   UNL     1     111.424 126.266 138.799  0.00  0.00    +0.000 A 
ATOM     41  C   UNL     1     111.222 127.036 138.582  0.00  0.00    +0.000 A 
ATOM     42  C   UNL     1     111.189 125.969 139.532  0.00  0.00    +0.000 A 
BRANCH  40  46
ATOM     43  O   UNL     1     112.686 125.827 138.291  0.00  0.00    +0.000 OA
ATOM     44  O   UNL     1     111.523 124.306 136.722  0.00  0.00    +0.000 OA
ATOM     45  O   UNL     1     115.264 124.945 137.265  0.00  0.00    +0.000 OA
ATOM     46  C   UNL     1     111.861 125.793 138.283  0.00  0.00    +0.000 C 
ATOM     47  C   UNL     1     111.474 125.286 137.761  0.00  0.00    +0.000 C 
ATOM     48  C   UNL     1     111.910 124.813 137.245  0.00  0.00    +0.000 C 
ATOM     49  C   UNL     1     113.122 125.354 137.775  0.00  0.00    +0.000 A 
ATOM     50  C   UNL     1     112.734 124.847 137.251  0.00  0.00    +0.000 A 
ATOM     51  C   UNL     1     113.980 125.399 137.792  0.00  0.00    +0.000 A 
ATOM     52  C   UNL     1     113.178 124.350 136.709  0.00  0.00    +0.000 A 
ATOM     53  C   UNL     1     114.441 124.909 137.256  0.00  0.00    +0.000 A 
ATOM     54  C   UNL     1     114.037 124.381 136.712  0.00  0.00    +0.000 A 
ENDBRANCH  40  46
ENDBRANCH  36  37
ENDBRANCH   7  36
TORSDOF 12
ENDMDL
MODEL 7
REMARK VINA RESULT:     -10.7      8.232     11.368
REMARK  Name = 131838618
REMARK  12 active torsions:
REMARK  status: ('A' for Active; 'I' for Inactive)
REMARK    1  A    between atoms: S_1  and  O_5
REMARK    2  A    between atoms: O_2  and  C_22
REMARK    3  A    between atoms: O_2  and  C_23
REMARK    4  A    between atoms: O_5  and  C_21
REMARK    5  A    between atoms: O_8  and  C_27
REMARK    6  A    between atoms: O_8  and  C_31
REMARK    7  A    between atoms: O_10  and  C_29
REMARK    8  A    between atoms: O_10  and  C_32
REMARK    9  A    between atoms: C_20  and  C_29
REMARK   10  A    between atoms: C_28  and  C_30
REMARK   11  A    between atoms: C_32  and  C_35
REMARK   12  A    between atoms: C_36  and  C_37
REMARK                            x       y       z     vdW  Elec       q    Type
REMARK                         _______ _______ _______ _____ _____    ______ ____
ROOT
ATOM      1  O   UNL     1     111.375 130.445 139.362  0.00  0.00    +0.000 OA
ATOM      2  O   UNL     1     109.951 131.340 141.178  0.00  0.00    +0.000 OA
ATOM      3  O   UNL     1     109.714 131.836 139.623  0.00  0.00    +0.000 OA
ATOM      4  C   UNL     1     111.019 130.495 140.746  0.00  0.00    +0.000 C 
ATOM      5  C   UNL     1     110.426 131.041 140.573  0.00  0.00    +0.000 C 
ATOM      6  C   UNL     1     110.307 131.290 139.796  0.00  0.00    +0.000 C 
ATOM      7  C   UNL     1     111.494 130.197 140.140  0.00  0.00    +0.000 C 
ATOM      8  C   UNL     1     110.781 130.992 139.190  0.00  0.00    +0.000 C 
ENDROOT
BRANCH   8  10
ATOM      9  O   UNL     1     111.264 131.639 138.011  0.00  0.00    +0.000 OA
ATOM     10  C   UNL     1     110.663 131.239 138.412  0.00  0.00    +0.000 C 
ENDBRANCH   8  10
BRANCH   4  11
ATOM     11  O   UNL     1     111.138 130.247 141.523  0.00  0.00    +0.000 OA
BRANCH  11  16
ATOM     12  O   UNL     1     112.138 131.281 141.825  0.00  0.00    +0.000 OA
ATOM     13  O   UNL     1     112.530 131.702 143.677  0.00  0.00    +0.000 OA
ATOM     14  C   UNL     1     112.086 131.239 143.159  0.00  0.00    +0.000 C 
ATOM     15  C   UNL     1     111.550 130.684 142.864  0.00  0.00    +0.000 C 
ATOM     16  C   UNL     1     111.583 130.710 142.041  0.00  0.00    +0.000 C 
ATOM     17  C   UNL     1     112.449 131.608 142.517  0.00  0.00    +0.000 C 
BRANCH  15  18
ATOM     18  O   UNL     1     111.068 130.190 143.315  0.00  0.00    +0.000 OA
BRANCH  18  19
ATOM     19  S   UNL     1     111.115 129.372 143.223  0.00  0.00    +0.000 S 
ATOM     20  O   UNL     1     111.937 129.413 143.274  0.00  0.00    +0.000 OA
ATOM     21  O   UNL     1     111.162 128.553 143.131  0.00  0.00    +0.000 OA
ATOM     22  O   UNL     1     110.293 129.330 143.172  0.00  0.00    +0.000 OA
ENDBRANCH  18  19
ENDBRANCH  15  18
BRANCH  14  23
ATOM     23  C   UNL     1     111.878 131.032 143.930  0.00  0.00    +0.000 C 
BRANCH  23  24
ATOM     24  O   UNL     1     111.943 131.585 144.538  0.00  0.00    +0.000 OA
BRANCH  24  26
ATOM     25  O   UNL     1     111.932 130.569 145.543  0.00  0.00    +0.000 OA
ATOM     26  C   UNL     1     111.817 131.355 145.320  0.00  0.00    +0.000 C 
BRANCH  26  28
ATOM     27  N   UNL     1     110.853 132.815 146.531  0.00  0.00    +0.000 NA
ATOM     28  C   UNL     1     111.576 131.911 145.880  0.00  0.00    +0.000 A 
ATOM     29  C   UNL     1     112.005 132.150 146.536  0.00  0.00    +0.000 A 
ATOM     30  C   UNL     1     110.866 132.321 145.876  0.00  0.00    +0.000 A 
ATOM     31  C   UNL     1     111.556 132.712 146.941  0.00  0.00    +0.000 A 
ATOM     32  C   UNL     1     112.747 131.932 146.823  0.00  0.00    +0.000 A 
ATOM     33  C   UNL     1     111.849 133.055 147.632  0.00  0.00    +0.000 A 
ATOM     34  C   UNL     1     113.041 132.275 147.513  0.00  0.00    +0.000 A 
ATOM     35  C   UNL     1     112.592 132.836 147.917  0.00  0.00    +0.000 A 
ENDBRANCH  26  28
ENDBRANCH  24  26
ENDBRANCH  23  24
ENDBRANCH  14  23
ENDBRANCH  11  16
ENDBRANCH   4  11
BRANCH   7  36
ATOM     36  O   UNL     1     112.087 129.650 140.312  0.00  0.00    +0.000 OA
BRANCH  36  37
ATOM     37  C   UNL     1     112.279 129.063 139.765  0.00  0.00    +0.000 A 
ATOM     38  C   UNL     1     111.787 128.407 139.675  0.00  0.00    +0.000 A 
ATOM     39  C   UNL     1     112.962 129.133 139.308  0.00  0.00    +0.000 A 
ATOM     40  C   UNL     1     112.662 127.889 138.671  0.00  0.00    +0.000 A 
ATOM     41  C   UNL     1     111.979 127.820 139.128  0.00  0.00    +0.000 A 
ATOM     42  C   UNL     1     113.154 128.545 138.761  0.00  0.00    +0.000 A 
BRANCH  40  46
ATOM     43  O   UNL     1     113.421 126.733 138.312  0.00  0.00    +0.000 OA
ATOM     44  O   UNL     1     112.295 126.679 136.108  0.00  0.00    +0.000 OA
ATOM     45  O   UNL     1     114.976 124.377 137.597  0.00  0.00    +0.000 OA
ATOM     46  C   UNL     1     112.854 127.302 138.124  0.00  0.00    +0.000 C 
ATOM     47  C   UNL     1     112.479 127.284 137.390  0.00  0.00    +0.000 C 
ATOM     48  C   UNL     1     112.670 126.697 136.843  0.00  0.00    +0.000 C 
ATOM     49  C   UNL     1     113.613 126.146 137.765  0.00  0.00    +0.000 A 
ATOM     50  C   UNL     1     113.237 126.128 137.030  0.00  0.00    +0.000 A 
ATOM     51  C   UNL     1     114.205 125.559 137.972  0.00  0.00    +0.000 A 
ATOM     52  C   UNL     1     113.428 125.521 136.452  0.00  0.00    +0.000 A 
ATOM     53  C   UNL     1     114.409 124.944 137.406  0.00  0.00    +0.000 A 
ATOM     54  C   UNL     1     114.018 124.926 136.642  0.00  0.00    +0.000 A 
ENDBRANCH  40  46
ENDBRANCH  36  37
ENDBRANCH   7  36
TORSDOF 12
ENDMDL
MODEL 8
REMARK VINA RESULT:     -10.7      7.635     10.779
REMARK  Name = 131838618
REMARK  12 active torsions:
REMARK  status: ('A' for Active; 'I' for Inactive)
REMARK    1  A    between atoms: S_1  and  O_5
REMARK    2  A    between atoms: O_2  and  C_22
REMARK    3  A    between atoms: O_2  and  C_23
REMARK    4  A    between atoms: O_5  and  C_21
REMARK    5  A    between atoms: O_8  and  C_27
REMARK    6  A    between atoms: O_8  and  C_31
REMARK    7  A    between atoms: O_10  and  C_29
REMARK    8  A    between atoms: O_10  and  C_32
REMARK    9  A    between atoms: C_20  and  C_29
REMARK   10  A    between atoms: C_28  and  C_30
REMARK   11  A    between atoms: C_32  and  C_35
REMARK   12  A    between atoms: C_36  and  C_37
REMARK                            x       y       z     vdW  Elec       q    Type
REMARK                         _______ _______ _______ _____ _____    ______ ____
ROOT
ATOM      1  O   UNL     1     113.538 129.727 139.919  0.00  0.00    +0.000 OA
ATOM      2  O   UNL     1     113.589 130.920 142.087  0.00  0.00    +0.000 OA
ATOM      3  O   UNL     1     114.708 131.269 140.927  0.00  0.00    +0.000 OA
ATOM      4  C   UNL     1     112.995 129.950 141.222  0.00  0.00    +0.000 C 
ATOM      5  C   UNL     1     113.572 130.522 141.364  0.00  0.00    +0.000 C 
ATOM      6  C   UNL     1     114.132 130.697 140.784  0.00  0.00    +0.000 C 
ATOM      7  C   UNL     1     112.978 129.552 140.499  0.00  0.00    +0.000 C 
ATOM      8  C   UNL     1     114.115 130.299 140.062  0.00  0.00    +0.000 C 
ENDROOT
BRANCH   8  10
ATOM      9  O   UNL     1     114.429 130.741 138.739  0.00  0.00    +0.000 OA
ATOM     10  C   UNL     1     114.674 130.474 139.481  0.00  0.00    +0.000 C 
ENDBRANCH   8  10
BRANCH   4  11
ATOM     11  O   UNL     1     112.435 129.775 141.802  0.00  0.00    +0.000 OA
BRANCH  11  16
ATOM     12  O   UNL     1     111.498 130.825 141.377  0.00  0.00    +0.000 OA
ATOM     13  O   UNL     1     110.109 131.401 142.599  0.00  0.00    +0.000 OA
ATOM     14  C   UNL     1     110.751 130.899 142.481  0.00  0.00    +0.000 C 
ATOM     15  C   UNL     1     111.331 130.324 142.602  0.00  0.00    +0.000 C 
ATOM     16  C   UNL     1     111.792 130.278 141.921  0.00  0.00    +0.000 C 
ATOM     17  C   UNL     1     110.855 131.208 141.724  0.00  0.00    +0.000 C 
BRANCH  15  18
ATOM     18  O   UNL     1     111.431 129.873 143.286  0.00  0.00    +0.000 OA
BRANCH  18  19
ATOM     19  S   UNL     1     111.373 129.051 143.251  0.00  0.00    +0.000 S 
ATOM     20  O   UNL     1     112.039 128.984 143.732  0.00  0.00    +0.000 OA
ATOM     21  O   UNL     1     111.315 128.229 143.215  0.00  0.00    +0.000 OA
ATOM     22  O   UNL     1     110.707 129.119 142.769  0.00  0.00    +0.000 OA
ENDBRANCH  18  19
ENDBRANCH  15  18
BRANCH  14  23
ATOM     23  C   UNL     1     110.454 130.759 143.238  0.00  0.00    +0.000 C 
BRANCH  23  24
ATOM     24  O   UNL     1     110.157 131.385 143.685  0.00  0.00    +0.000 OA
BRANCH  24  26
ATOM     25  O   UNL     1     109.235 130.574 144.417  0.00  0.00    +0.000 OA
ATOM     26  C   UNL     1     109.730 131.232 144.375  0.00  0.00    +0.000 C 
BRANCH  26  28
ATOM     27  N   UNL     1     110.297 132.405 146.058  0.00  0.00    +0.000 NA
ATOM     28  C   UNL     1     109.798 131.739 145.023  0.00  0.00    +0.000 A 
ATOM     29  C   UNL     1     109.201 132.210 145.330  0.00  0.00    +0.000 A 
ATOM     30  C   UNL     1     110.474 131.859 145.472  0.00  0.00    +0.000 A 
ATOM     31  C   UNL     1     109.511 132.624 145.973  0.00  0.00    +0.000 A 
ATOM     32  C   UNL     1     108.413 132.319 145.111  0.00  0.00    +0.000 A 
ATOM     33  C   UNL     1     109.033 133.146 146.396  0.00  0.00    +0.000 A 
ATOM     34  C   UNL     1     107.935 132.842 145.534  0.00  0.00    +0.000 A 
ATOM     35  C   UNL     1     108.245 133.255 146.176  0.00  0.00    +0.000 A 
ENDBRANCH  26  28
ENDBRANCH  24  26
ENDBRANCH  23  24
ENDBRANCH  14  23
ENDBRANCH  11  16
ENDBRANCH   4  11
BRANCH   7  36
ATOM     36  O   UNL     1     112.401 128.980 140.356  0.00  0.00    +0.000 OA
BRANCH  36  37
ATOM     37  C   UNL     1     112.577 128.325 139.887  0.00  0.00    +0.000 A 
ATOM     38  C   UNL     1     112.344 128.310 139.096  0.00  0.00    +0.000 A 
ATOM     39  C   UNL     1     112.986 127.685 140.210  0.00  0.00    +0.000 A 
ATOM     40  C   UNL     1     112.929 127.014 138.949  0.00  0.00    +0.000 A 
ATOM     41  C   UNL     1     112.520 127.654 138.627  0.00  0.00    +0.000 A 
ATOM     42  C   UNL     1     113.162 127.030 139.740  0.00  0.00    +0.000 A 
BRANCH  40  46
ATOM     43  O   UNL     1     112.495 125.922 138.136  0.00  0.00    +0.000 OA
ATOM     44  O   UNL     1     114.853 125.264 137.762  0.00  0.00    +0.000 OA
ATOM     45  O   UNL     1     111.593 123.703 136.480  0.00  0.00    +0.000 OA
ATOM     46  C   UNL     1     113.105 126.358 138.480  0.00  0.00    +0.000 C 
ATOM     47  C   UNL     1     113.890 126.139 138.356  0.00  0.00    +0.000 C 
ATOM     48  C   UNL     1     114.066 125.484 137.887  0.00  0.00    +0.000 C 
ATOM     49  C   UNL     1     112.671 125.267 137.666  0.00  0.00    +0.000 A 
ATOM     50  C   UNL     1     113.457 125.047 137.542  0.00  0.00    +0.000 A 
ATOM     51  C   UNL     1     112.027 124.821 137.313  0.00  0.00    +0.000 A 
ATOM     52  C   UNL     1     113.653 124.367 137.056  0.00  0.00    +0.000 A 
ATOM     53  C   UNL     1     112.205 124.137 136.823  0.00  0.00    +0.000 A 
ATOM     54  C   UNL     1     113.023 123.909 136.694  0.00  0.00    +0.000 A 
ENDBRANCH  40  46
ENDBRANCH  36  37
ENDBRANCH   7  36
TORSDOF 12
ENDMDL
MODEL 9
REMARK VINA RESULT:     -10.6      5.052      7.437
REMARK  Name = 131838618
REMARK  12 active torsions:
REMARK  status: ('A' for Active; 'I' for Inactive)
REMARK    1  A    between atoms: S_1  and  O_5
REMARK    2  A    between atoms: O_2  and  C_22
REMARK    3  A    between atoms: O_2  and  C_23
REMARK    4  A    between atoms: O_5  and  C_21
REMARK    5  A    between atoms: O_8  and  C_27
REMARK    6  A    between atoms: O_8  and  C_31
REMARK    7  A    between atoms: O_10  and  C_29
REMARK    8  A    between atoms: O_10  and  C_32
REMARK    9  A    between atoms: C_20  and  C_29
REMARK   10  A    between atoms: C_28  and  C_30
REMARK   11  A    between atoms: C_32  and  C_35
REMARK   12  A    between atoms: C_36  and  C_37
REMARK                            x       y       z     vdW  Elec       q    Type
REMARK                         _______ _______ _______ _____ _____    ______ ____
ROOT
ATOM      1  O   UNL     1     106.282 128.905 145.428  0.00  0.00    +0.000 OA
ATOM      2  O   UNL     1     107.528 126.884 146.128  0.00  0.00    +0.000 OA
ATOM      3  O   UNL     1     108.235 128.370 146.241  0.00  0.00    +0.000 OA
ATOM      4  C   UNL     1     106.343 127.488 145.605  0.00  0.00    +0.000 C 
ATOM      5  C   UNL     1     107.113 127.558 145.895  0.00  0.00    +0.000 C 
ATOM      6  C   UNL     1     107.466 128.300 145.951  0.00  0.00    +0.000 C 
ATOM      7  C   UNL     1     105.928 128.161 145.372  0.00  0.00    +0.000 C 
ATOM      8  C   UNL     1     107.051 128.974 145.718  0.00  0.00    +0.000 C 
ENDROOT
BRANCH   8  10
ATOM      9  O   UNL     1     107.032 130.319 146.200  0.00  0.00    +0.000 OA
ATOM     10  C   UNL     1     107.404 129.717 145.774  0.00  0.00    +0.000 C 
ENDBRANCH   8  10
BRANCH   4  11
ATOM     11  O   UNL     1     105.990 126.745 145.548  0.00  0.00    +0.000 OA
BRANCH  11  16
ATOM     12  O   UNL     1     105.545 126.751 146.949  0.00  0.00    +0.000 OA
ATOM     13  O   UNL     1     104.319 125.377 147.556  0.00  0.00    +0.000 OA
ATOM     14  C   UNL     1     104.749 125.679 146.921  0.00  0.00    +0.000 C 
ATOM     15  C   UNL     1     105.068 125.781 146.166  0.00  0.00    +0.000 C 
ATOM     16  C   UNL     1     105.559 126.443 146.184  0.00  0.00    +0.000 C 
ATOM     17  C   UNL     1     105.044 126.278 147.404  0.00  0.00    +0.000 C 
BRANCH  15  18
ATOM     18  O   UNL     1     104.920 125.304 145.509  0.00  0.00    +0.000 OA
BRANCH  18  19
ATOM     19  S   UNL     1     105.541 124.905 145.142  0.00  0.00    +0.000 S 
ATOM     20  O   UNL     1     105.264 125.151 144.405  0.00  0.00    +0.000 OA
ATOM     21  O   UNL     1     106.162 124.505 144.774  0.00  0.00    +0.000 OA
ATOM     22  O   UNL     1     105.819 124.659 145.879  0.00  0.00    +0.000 OA
ENDBRANCH  18  19
ENDBRANCH  15  18
BRANCH  14  23
ATOM     23  C   UNL     1     104.336 125.016 146.657  0.00  0.00    +0.000 C 
BRANCH  23  24
ATOM     24  O   UNL     1     103.548 124.907 146.875  0.00  0.00    +0.000 OA
BRANCH  24  26
ATOM     25  O   UNL     1     103.701 123.492 146.994  0.00  0.00    +0.000 OA
ATOM     26  C   UNL     1     103.220 124.151 146.873  0.00  0.00    +0.000 C 
BRANCH  26  28
ATOM     27  N   UNL     1     101.092 124.147 146.886  0.00  0.00    +0.000 NA
ATOM     28  C   UNL     1     102.409 124.052 146.751  0.00  0.00    +0.000 A 
ATOM     29  C   UNL     1     102.063 123.600 146.161  0.00  0.00    +0.000 A 
ATOM     30  C   UNL     1     101.811 124.390 147.198  0.00  0.00    +0.000 A 
ATOM     31  C   UNL     1     101.244 123.659 146.245  0.00  0.00    +0.000 A 
ATOM     32  C   UNL     1     102.383 123.140 145.555  0.00  0.00    +0.000 A 
ATOM     33  C   UNL     1     100.746 123.258 145.724  0.00  0.00    +0.000 A 
ATOM     34  C   UNL     1     101.885 122.739 145.034  0.00  0.00    +0.000 A 
ATOM     35  C   UNL     1     101.067 122.798 145.118  0.00  0.00    +0.000 A 
ENDBRANCH  26  28
ENDBRANCH  24  26
ENDBRANCH  23  24
ENDBRANCH  14  23
ENDBRANCH  11  16
ENDBRANCH   4  11
BRANCH   7  36
ATOM     36  O   UNL     1     105.159 128.092 145.082  0.00  0.00    +0.000 OA
BRANCH  36  37
ATOM     37  C   UNL     1     104.878 128.630 144.522  0.00  0.00    +0.000 A 
ATOM     38  C   UNL     1     104.449 129.291 144.766  0.00  0.00    +0.000 A 
ATOM     39  C   UNL     1     105.027 128.506 143.721  0.00  0.00    +0.000 A 
ATOM     40  C   UNL     1     104.317 129.705 143.404  0.00  0.00    +0.000 A 
ATOM     41  C   UNL     1     104.169 129.829 144.206  0.00  0.00    +0.000 A 
ATOM     42  C   UNL     1     104.747 129.044 143.162  0.00  0.00    +0.000 A 
BRANCH  40  46
ATOM     43  O   UNL     1     103.244 130.470 142.853  0.00  0.00    +0.000 OA
ATOM     44  O   UNL     1     104.781 131.400 141.150  0.00  0.00    +0.000 OA
ATOM     45  O   UNL     1     101.044 132.023 141.744  0.00  0.00    +0.000 OA
ATOM     46  C   UNL     1     104.037 130.243 142.844  0.00  0.00    +0.000 C 
ATOM     47  C   UNL     1     104.549 130.552 142.277  0.00  0.00    +0.000 C 
ATOM     48  C   UNL     1     104.269 131.090 141.718  0.00  0.00    +0.000 C 
ATOM     49  C   UNL     1     102.963 131.008 142.294  0.00  0.00    +0.000 A 
ATOM     50  C   UNL     1     103.476 131.318 141.726  0.00  0.00    +0.000 A 
ATOM     51  C   UNL     1     102.135 131.238 142.313  0.00  0.00    +0.000 A 
ATOM     52  C   UNL     1     103.196 131.879 141.138  0.00  0.00    +0.000 A 
ATOM     53  C   UNL     1     101.838 131.798 141.733  0.00  0.00    +0.000 A 
ATOM     54  C   UNL     1     102.371 132.120 141.142  0.00  0.00    +0.000 A 
ENDBRANCH  40  46
ENDBRANCH  36  37
ENDBRANCH   7  36
TORSDOF 12
ENDMDL
MODEL 10
REMARK VINA RESULT:     -10.6      3.206      4.560
REMARK  Name = 131838618
REMARK  12 active torsions:
REMARK  status: ('A' for Active; 'I' for Inactive)
REMARK    1  A    between atoms: S_1  and  O_5
REMARK    2  A    between atoms: O_2  and  C_22
REMARK    3  A    between atoms: O_2  and  C_23
REMARK    4  A    between atoms: O_5  and  C_21
REMARK    5  A    between atoms: O_8  and  C_27
REMARK    6  A    between atoms: O_8  and  C_31
REMARK    7  A    between atoms: O_10  and  C_29
REMARK    8  A    between atoms: O_10  and  C_32
REMARK    9  A    between atoms: C_20  and  C_29
REMARK   10  A    between atoms: C_28  and  C_30
REMARK   11  A    between atoms: C_32  and  C_35
REMARK   12  A    between atoms: C_36  and  C_37
REMARK                            x       y       z     vdW  Elec       q    Type
REMARK                         _______ _______ _______ _____ _____    ______ ____
ROOT
ATOM      1  O   UNL     1     106.840 128.522 142.118  0.00  0.00    +0.000 OA
ATOM      2  O   UNL     1     108.267 126.524 142.435  0.00  0.00    +0.000 OA
ATOM      3  O   UNL     1     108.922 128.033 142.554  0.00  0.00    +0.000 OA
ATOM      4  C   UNL     1     106.988 127.101 142.164  0.00  0.00    +0.000 C 
ATOM      5  C   UNL     1     107.791 127.190 142.329  0.00  0.00    +0.000 C 
ATOM      6  C   UNL     1     108.119 127.944 142.389  0.00  0.00    +0.000 C 
ATOM      7  C   UNL     1     106.512 127.767 142.058  0.00  0.00    +0.000 C 
ATOM      8  C   UNL     1     107.644 128.610 142.284  0.00  0.00    +0.000 C 
ENDROOT
BRANCH   8  10
ATOM      9  O   UNL     1     108.042 129.838 141.670  0.00  0.00    +0.000 OA
ATOM     10  C   UNL     1     107.971 129.365 142.343  0.00  0.00    +0.000 C 
ENDBRANCH   8  10
BRANCH   4  11
ATOM     11  O   UNL     1     106.660 126.347 142.104  0.00  0.00    +0.000 OA
BRANCH  11  16
ATOM     12  O   UNL     1     107.152 126.129 140.735  0.00  0.00    +0.000 OA
ATOM     13  O   UNL     1     106.414 124.675 139.687  0.00  0.00    +0.000 OA
ATOM     14  C   UNL     1     106.401 125.074 140.408  0.00  0.00    +0.000 C 
ATOM     15  C   UNL     1     106.209 125.296 141.180  0.00  0.00    +0.000 C 
ATOM     16  C   UNL     1     106.672 125.947 141.382  0.00  0.00    +0.000 C 
ATOM     17  C   UNL     1     106.984 125.590 140.134  0.00  0.00    +0.000 C 
BRANCH  15  18
ATOM     18  O   UNL     1     105.650 124.929 141.664  0.00  0.00    +0.000 OA
BRANCH  18  19
ATOM     19  S   UNL     1     105.880 124.609 142.389  0.00  0.00    +0.000 S 
ATOM     20  O   UNL     1     105.200 124.916 142.740  0.00  0.00    +0.000 OA
ATOM     21  O   UNL     1     106.109 124.288 143.113  0.00  0.00    +0.000 OA
ATOM     22  O   UNL     1     106.560 124.302 142.037  0.00  0.00    +0.000 OA
ENDBRANCH  18  19
ENDBRANCH  15  18
BRANCH  14  23
ATOM     23  C   UNL     1     105.851 124.461 140.446  0.00  0.00    +0.000 C 
BRANCH  23  24
ATOM     24  O   UNL     1     105.334 124.331 139.817  0.00  0.00    +0.000 OA
BRANCH  24  26
ATOM     25  O   UNL     1     105.401 122.907 139.906  0.00  0.00    +0.000 OA
ATOM     26  C   UNL     1     104.982 123.592 139.719  0.00  0.00    +0.000 C 
BRANCH  26  28
ATOM     27  N   UNL     1     102.885 123.465 139.382  0.00  0.00    +0.000 NA
ATOM     28  C   UNL     1     104.209 123.538 139.433  0.00  0.00    +0.000 A 
ATOM     29  C   UNL     1     103.991 123.489 138.644  0.00  0.00    +0.000 A 
ATOM     30  C   UNL     1     103.527 123.523 139.888  0.00  0.00    +0.000 A 
ATOM     31  C   UNL     1     103.167 123.444 138.612  0.00  0.00    +0.000 A 
ATOM     32  C   UNL     1     104.431 123.479 137.947  0.00  0.00    +0.000 A 
ATOM     33  C   UNL     1     102.785 123.390 137.884  0.00  0.00    +0.000 A 
ATOM     34  C   UNL     1     104.049 123.425 137.217  0.00  0.00    +0.000 A 
ATOM     35  C   UNL     1     103.226 123.380 137.186  0.00  0.00    +0.000 A 
ENDBRANCH  26  28
ENDBRANCH  24  26
ENDBRANCH  23  24
ENDBRANCH  14  23
ENDBRANCH  11  16
ENDBRANCH   4  11
BRANCH   7  36
ATOM     36  O   UNL     1     105.709 127.679 141.893  0.00  0.00    +0.000 OA
BRANCH  36  37
ATOM     37  C   UNL     1     105.176 128.270 142.108  0.00  0.00    +0.000 A 
ATOM     38  C   UNL     1     104.934 128.341 142.894  0.00  0.00    +0.000 A 
ATOM     39  C   UNL     1     104.885 128.790 141.538  0.00  0.00    +0.000 A 
ATOM     40  C   UNL     1     104.109 129.453 142.538  0.00  0.00    +0.000 A 
ATOM     41  C   UNL     1     104.401 128.933 143.109  0.00  0.00    +0.000 A 
ATOM     42  C   UNL     1     104.352 129.382 141.753  0.00  0.00    +0.000 A 
BRANCH  40  46
ATOM     43  O   UNL     1     103.636 130.405 143.494  0.00  0.00    +0.000 OA
ATOM     44  O   UNL     1     101.856 131.099 141.920  0.00  0.00    +0.000 OA
ATOM     45  O   UNL     1     102.686 132.338 145.453  0.00  0.00    +0.000 OA
ATOM     46  C   UNL     1     103.576 130.045 142.754  0.00  0.00    +0.000 C 
ATOM     47  C   UNL     1     102.983 130.276 142.229  0.00  0.00    +0.000 C 
ATOM     48  C   UNL     1     102.450 130.868 142.445  0.00  0.00    +0.000 C 
ATOM     49  C   UNL     1     103.103 130.996 143.709  0.00  0.00    +0.000 A 
ATOM     50  C   UNL     1     102.509 131.228 143.184  0.00  0.00    +0.000 A 
ATOM     51  C   UNL     1     103.176 131.363 144.483  0.00  0.00    +0.000 A 
ATOM     52  C   UNL     1     101.948 131.843 143.397  0.00  0.00    +0.000 A 
ATOM     53  C   UNL     1     102.623 131.981 144.713  0.00  0.00    +0.000 A 
ATOM     54  C   UNL     1     102.006 132.221 144.166  0.00  0.00    +0.000 A 
ENDBRANCH  40  46
ENDBRANCH  36  37
ENDBRANCH   7  36
TORSDOF 12
ENDMDL
