MODEL 1
REMARK VINA RESULT:      -9.2      0.000      0.000
REMARK  Name = 44258872
REMARK  13 active torsions:
REMARK  status: ('A' for Active; 'I' for Inactive)
REMARK    1  A    between atoms: O_2  and  C_22
REMARK    2  A    between atoms: O_2  and  C_27
REMARK    3  A    between atoms: O_4  and  C_19
REMARK    4  A    between atoms: O_4  and  C_30
REMARK    5  A    between atoms: O_5  and  C_20
REMARK    6  A    between atoms: O_5  and  C_31
REMARK    7  A    between atoms: O_8  and  C_28
REMARK    8  A    between atoms: O_8  and  C_32
REMARK    9  A    between atoms: O_10  and  C_29
REMARK   10  A    between atoms: O_10  and  C_35
REMARK   11  A    between atoms: C_21  and  C_27
REMARK   12  A    between atoms: C_23  and  C_29
REMARK   13  A    between atoms: C_33  and  C_39
REMARK                            x       y       z     vdW  Elec       q    Type
REMARK                         _______ _______ _______ _____ _____    ______ ____
ROOT
ATOM      1  O   UNL     1     111.596 126.466 136.905  0.00  0.00    +0.000 OA
ATOM      2  O   UNL     1     109.978 126.684 135.456  0.00  0.00    +0.000 OA
ATOM      3  O   UNL     1     110.250 125.058 135.378  0.00  0.00    +0.000 OA
ATOM      4  O   UNL     1     111.418 124.371 136.318  0.00  0.00    +0.000 OA
ATOM      5  C   UNL     1     111.012 126.809 136.435  0.00  0.00    +0.000 C 
ATOM      6  C   UNL     1     110.563 126.340 135.926  0.00  0.00    +0.000 C 
ATOM      7  C   UNL     1     110.698 125.527 135.887  0.00  0.00    +0.000 C 
ATOM      8  C   UNL     1     111.283 125.184 136.357  0.00  0.00    +0.000 C 
ATOM      9  C   UNL     1     111.732 125.654 136.866  0.00  0.00    +0.000 C 
ENDROOT
BRANCH   9  10
ATOM     10  O   UNL     1     112.316 125.309 137.336  0.00  0.00    +0.000 OA
BRANCH  10  15
ATOM     11  O   UNL     1     113.650 126.308 138.746  0.00  0.00    +0.000 OA
ATOM     12  O   UNL     1     111.269 125.661 138.561  0.00  0.00    +0.000 OA
ATOM     13  O   UNL     1     110.985 126.227 139.858  0.00  0.00    +0.000 OA
ATOM     14  O   UNL     1     113.153 127.470 141.370  0.00  0.00    +0.000 OA
ATOM     15  C   UNL     1     112.586 125.701 138.010  0.00  0.00    +0.000 A 
ATOM     16  C   UNL     1     113.380 125.917 138.072  0.00  0.00    +0.000 A 
ATOM     17  C   UNL     1     112.062 125.877 138.623  0.00  0.00    +0.000 A 
ATOM     18  C   UNL     1     112.332 126.269 139.297  0.00  0.00    +0.000 A 
ATOM     19  C   UNL     1     113.127 126.484 139.358  0.00  0.00    +0.000 A 
ATOM     20  C   UNL     1     111.778 126.446 139.928  0.00  0.00    +0.000 A 
ATOM     21  C   UNL     1     113.420 126.892 140.055  0.00  0.00    +0.000 A 
ATOM     22  C   UNL     1     112.053 126.854 140.633  0.00  0.00    +0.000 A 
ATOM     23  C   UNL     1     112.880 127.078 140.697  0.00  0.00    +0.000 A 
BRANCH  16  25
ATOM     24  O   UNL     1     115.474 125.213 135.621  0.00  0.00    +0.000 OA
ATOM     25  C   UNL     1     113.904 125.740 137.459  0.00  0.00    +0.000 A 
ATOM     26  C   UNL     1     114.201 124.975 137.377  0.00  0.00    +0.000 A 
ATOM     27  C   UNL     1     114.130 126.330 136.928  0.00  0.00    +0.000 A 
ATOM     28  C   UNL     1     114.724 124.799 136.764  0.00  0.00    +0.000 A 
ATOM     29  C   UNL     1     114.655 126.154 136.315  0.00  0.00    +0.000 A 
ATOM     30  C   UNL     1     114.951 125.389 136.233  0.00  0.00    +0.000 A 
ENDBRANCH  16  25
ENDBRANCH  10  15
ENDBRANCH   9  10
BRANCH   5  31
ATOM     31  C   UNL     1     110.876 127.622 136.473  0.00  0.00    +0.000 C 
BRANCH  31  32
ATOM     32  O   UNL     1     111.490 128.151 136.323  0.00  0.00    +0.000 OA
BRANCH  32  36
ATOM     33  O   UNL     1     111.289 129.040 137.478  0.00  0.00    +0.000 OA
ATOM     34  C   UNL     1     111.728 129.602 136.350  0.00  0.00    +0.000 C 
ATOM     35  C   UNL     1     111.655 130.195 136.919  0.00  0.00    +0.000 C 
ATOM     36  C   UNL     1     111.502 128.888 136.696  0.00  0.00    +0.000 C 
ATOM     37  C   UNL     1     111.384 129.847 137.616  0.00  0.00    +0.000 C 
BRANCH  34  38
ATOM     38  O   UNL     1     111.982 129.705 135.572  0.00  0.00    +0.000 OA
BRANCH  38  40
ATOM     39  O   UNL     1     113.375 129.617 135.878  0.00  0.00    +0.000 OA
ATOM     40  C   UNL     1     112.749 129.490 135.357  0.00  0.00    +0.000 C 
ATOM     41  C   UNL     1     112.889 129.147 134.619  0.00  0.00    +0.000 C 
ENDBRANCH  38  40
ENDBRANCH  34  38
BRANCH  35  42
ATOM     42  O   UNL     1     111.824 130.995 136.810  0.00  0.00    +0.000 OA
BRANCH  42  44
ATOM     43  O   UNL     1     110.499 131.272 136.353  0.00  0.00    +0.000 OA
ATOM     44  C   UNL     1     111.212 131.531 136.677  0.00  0.00    +0.000 C 
ATOM     45  C   UNL     1     111.313 132.328 136.866  0.00  0.00    +0.000 C 
ENDBRANCH  42  44
ENDBRANCH  35  42
BRANCH  37  46
ATOM     46  C   UNL     1     111.234 130.239 138.327  0.00  0.00    +0.000 C 
BRANCH  46  47
ATOM     47  O   UNL     1     111.283 129.830 139.042  0.00  0.00    +0.000 OA
BRANCH  47  49
ATOM     48  O   UNL     1     111.795 130.614 140.120  0.00  0.00    +0.000 OA
ATOM     49  C   UNL     1     111.165 130.228 139.754  0.00  0.00    +0.000 C 
ATOM     50  C   UNL     1     110.416 130.241 140.100  0.00  0.00    +0.000 C 
ENDBRANCH  47  49
ENDBRANCH  46  47
ENDBRANCH  37  46
ENDBRANCH  32  36
ENDBRANCH  31  32
ENDBRANCH   5  31
TORSDOF 13
ENDMDL
MODEL 2
REMARK VINA RESULT:      -9.0      1.312      5.164
REMARK  Name = 44258872
REMARK  13 active torsions:
REMARK  status: ('A' for Active; 'I' for Inactive)
REMARK    1  A    between atoms: O_2  and  C_22
REMARK    2  A    between atoms: O_2  and  C_27
REMARK    3  A    between atoms: O_4  and  C_19
REMARK    4  A    between atoms: O_4  and  C_30
REMARK    5  A    between atoms: O_5  and  C_20
REMARK    6  A    between atoms: O_5  and  C_31
REMARK    7  A    between atoms: O_8  and  C_28
REMARK    8  A    between atoms: O_8  and  C_32
REMARK    9  A    between atoms: O_10  and  C_29
REMARK   10  A    between atoms: O_10  and  C_35
REMARK   11  A    between atoms: C_21  and  C_27
REMARK   12  A    between atoms: C_23  and  C_29
REMARK   13  A    between atoms: C_33  and  C_39
REMARK                            x       y       z     vdW  Elec       q    Type
REMARK                         _______ _______ _______ _____ _____    ______ ____
ROOT
ATOM      1  O   UNL     1     110.229 128.993 136.799  0.00  0.00    +0.000 OA
ATOM      2  O   UNL     1     108.593 127.550 136.702  0.00  0.00    +0.000 OA
ATOM      3  O   UNL     1     108.017 128.742 135.717  0.00  0.00    +0.000 OA
ATOM      4  O   UNL     1     108.915 130.101 135.453  0.00  0.00    +0.000 OA
ATOM      5  C   UNL     1     109.780 128.314 136.931  0.00  0.00    +0.000 C 
ATOM      6  C   UNL     1     109.043 128.230 136.570  0.00  0.00    +0.000 C 
ATOM      7  C   UNL     1     108.754 128.826 136.077  0.00  0.00    +0.000 C 
ATOM      8  C   UNL     1     109.204 129.505 135.946  0.00  0.00    +0.000 C 
ATOM      9  C   UNL     1     109.941 129.588 136.307  0.00  0.00    +0.000 C 
ENDROOT
BRANCH   9  10
ATOM     10  O   UNL     1     110.390 130.268 136.174  0.00  0.00    +0.000 OA
BRANCH  10  15
ATOM     11  O   UNL     1     112.462 130.648 136.748  0.00  0.00    +0.000 OA
ATOM     12  O   UNL     1     111.190 129.266 135.136  0.00  0.00    +0.000 OA
ATOM     13  O   UNL     1     112.411 128.703 134.612  0.00  0.00    +0.000 OA
ATOM     14  O   UNL     1     114.966 129.556 135.741  0.00  0.00    +0.000 OA
ATOM     15  C   UNL     1     111.214 130.228 136.193  0.00  0.00    +0.000 A 
ATOM     16  C   UNL     1     111.638 130.688 136.730  0.00  0.00    +0.000 A 
ATOM     17  C   UNL     1     111.614 129.726 135.673  0.00  0.00    +0.000 A 
ATOM     18  C   UNL     1     112.438 129.686 135.692  0.00  0.00    +0.000 A 
ATOM     19  C   UNL     1     112.861 130.147 136.229  0.00  0.00    +0.000 A 
ATOM     20  C   UNL     1     112.843 129.161 135.147  0.00  0.00    +0.000 A 
ATOM     21  C   UNL     1     113.719 130.114 136.258  0.00  0.00    +0.000 A 
ATOM     22  C   UNL     1     113.701 129.114 135.161  0.00  0.00    +0.000 A 
ATOM     23  C   UNL     1     114.143 129.594 135.720  0.00  0.00    +0.000 A 
BRANCH  16  25
ATOM     24  O   UNL     1     110.036 132.693 138.805  0.00  0.00    +0.000 OA
ATOM     25  C   UNL     1     111.237 131.190 137.249  0.00  0.00    +0.000 A 
ATOM     26  C   UNL     1     111.150 130.979 138.042  0.00  0.00    +0.000 A 
ATOM     27  C   UNL     1     110.924 131.902 136.975  0.00  0.00    +0.000 A 
ATOM     28  C   UNL     1     110.750 131.480 138.560  0.00  0.00    +0.000 A 
ATOM     29  C   UNL     1     110.523 132.403 137.494  0.00  0.00    +0.000 A 
ATOM     30  C   UNL     1     110.436 132.192 138.287  0.00  0.00    +0.000 A 
ENDBRANCH  16  25
ENDBRANCH  10  15
ENDBRANCH   9  10
BRANCH   5  31
ATOM     31  C   UNL     1     110.068 127.718 137.423  0.00  0.00    +0.000 C 
BRANCH  31  32
ATOM     32  O   UNL     1     110.590 127.153 137.127  0.00  0.00    +0.000 OA
BRANCH  32  36
ATOM     33  O   UNL     1     111.248 126.957 138.428  0.00  0.00    +0.000 OA
ATOM     34  C   UNL     1     111.764 126.306 137.383  0.00  0.00    +0.000 C 
ATOM     35  C   UNL     1     112.213 126.118 138.049  0.00  0.00    +0.000 C 
ATOM     36  C   UNL     1     111.167 126.825 137.618  0.00  0.00    +0.000 C 
ATOM     37  C   UNL     1     111.894 126.521 138.694  0.00  0.00    +0.000 C 
BRANCH  34  38
ATOM     38  O   UNL     1     111.890 126.024 136.618  0.00  0.00    +0.000 OA
BRANCH  38  40
ATOM     39  O   UNL     1     111.114 124.838 136.802  0.00  0.00    +0.000 OA
ATOM     40  C   UNL     1     111.401 125.434 136.311  0.00  0.00    +0.000 C 
ATOM     41  C   UNL     1     111.200 125.442 135.510  0.00  0.00    +0.000 C 
ENDBRANCH  38  40
ENDBRANCH  34  38
BRANCH  35  42
ATOM     42  O   UNL     1     112.868 125.615 138.067  0.00  0.00    +0.000 OA
BRANCH  42  44
ATOM     43  O   UNL     1     113.732 126.732 137.849  0.00  0.00    +0.000 OA
ATOM     44  C   UNL     1     113.626 125.922 137.964  0.00  0.00    +0.000 C 
ATOM     45  C   UNL     1     114.280 125.419 137.974  0.00  0.00    +0.000 C 
ENDBRANCH  42  44
ENDBRANCH  35  42
BRANCH  37  46
ATOM     46  C   UNL     1     112.173 126.491 139.470  0.00  0.00    +0.000 C 
BRANCH  46  47
ATOM     47  O   UNL     1     111.686 126.729 140.093  0.00  0.00    +0.000 OA
BRANCH  47  49
ATOM     48  O   UNL     1     111.628 126.049 141.348  0.00  0.00    +0.000 OA
ATOM     49  C   UNL     1     111.943 126.645 140.872  0.00  0.00    +0.000 C 
ATOM     50  C   UNL     1     112.515 127.156 141.176  0.00  0.00    +0.000 C 
ENDBRANCH  47  49
ENDBRANCH  46  47
ENDBRANCH  37  46
ENDBRANCH  32  36
ENDBRANCH  31  32
ENDBRANCH   5  31
TORSDOF 13
ENDMDL
MODEL 3
REMARK VINA RESULT:      -8.9      0.781      1.836
REMARK  Name = 44258872
REMARK  13 active torsions:
REMARK  status: ('A' for Active; 'I' for Inactive)
REMARK    1  A    between atoms: O_2  and  C_22
REMARK    2  A    between atoms: O_2  and  C_27
REMARK    3  A    between atoms: O_4  and  C_19
REMARK    4  A    between atoms: O_4  and  C_30
REMARK    5  A    between atoms: O_5  and  C_20
REMARK    6  A    between atoms: O_5  and  C_31
REMARK    7  A    between atoms: O_8  and  C_28
REMARK    8  A    between atoms: O_8  and  C_32
REMARK    9  A    between atoms: O_10  and  C_29
REMARK   10  A    between atoms: O_10  and  C_35
REMARK   11  A    between atoms: C_21  and  C_27
REMARK   12  A    between atoms: C_23  and  C_29
REMARK   13  A    between atoms: C_33  and  C_39
REMARK                            x       y       z     vdW  Elec       q    Type
REMARK                         _______ _______ _______ _____ _____    ______ ____
ROOT
ATOM      1  O   UNL     1     111.842 126.504 136.560  0.00  0.00    +0.000 OA
ATOM      2  O   UNL     1     110.205 126.844 135.158  0.00  0.00    +0.000 OA
ATOM      3  O   UNL     1     110.174 125.199 135.279  0.00  0.00    +0.000 OA
ATOM      4  O   UNL     1     111.255 124.424 136.255  0.00  0.00    +0.000 OA
ATOM      5  C   UNL     1     111.302 126.891 136.073  0.00  0.00    +0.000 C 
ATOM      6  C   UNL     1     110.746 126.457 135.646  0.00  0.00    +0.000 C 
ATOM      7  C   UNL     1     110.730 125.634 135.706  0.00  0.00    +0.000 C 
ATOM      8  C   UNL     1     111.271 125.247 136.194  0.00  0.00    +0.000 C 
ATOM      9  C   UNL     1     111.827 125.682 136.621  0.00  0.00    +0.000 C 
ENDROOT
BRANCH   9  10
ATOM     10  O   UNL     1     112.367 125.293 137.109  0.00  0.00    +0.000 OA
BRANCH  10  15
ATOM     11  O   UNL     1     113.658 126.200 138.618  0.00  0.00    +0.000 OA
ATOM     12  O   UNL     1     111.277 125.602 138.309  0.00  0.00    +0.000 OA
ATOM     13  O   UNL     1     110.950 126.107 139.620  0.00  0.00    +0.000 OA
ATOM     14  O   UNL     1     113.073 127.239 141.275  0.00  0.00    +0.000 OA
ATOM     15  C   UNL     1     112.616 125.647 137.812  0.00  0.00    +0.000 A 
ATOM     16  C   UNL     1     113.410 125.846 137.915  0.00  0.00    +0.000 A 
ATOM     17  C   UNL     1     112.071 125.801 138.412  0.00  0.00    +0.000 A 
ATOM     18  C   UNL     1     112.319 126.155 139.115  0.00  0.00    +0.000 A 
ATOM     19  C   UNL     1     113.114 126.354 139.217  0.00  0.00    +0.000 A 
ATOM     20  C   UNL     1     111.743 126.310 139.732  0.00  0.00    +0.000 A 
ATOM     21  C   UNL     1     113.385 126.722 139.944  0.00  0.00    +0.000 A 
ATOM     22  C   UNL     1     111.995 126.678 140.466  0.00  0.00    +0.000 A 
ATOM     23  C   UNL     1     112.822 126.885 140.573  0.00  0.00    +0.000 A 
BRANCH  16  25
ATOM     24  O   UNL     1     115.590 125.230 135.516  0.00  0.00    +0.000 OA
ATOM     25  C   UNL     1     113.955 125.692 137.315  0.00  0.00    +0.000 A 
ATOM     26  C   UNL     1     114.227 124.923 137.192  0.00  0.00    +0.000 A 
ATOM     27  C   UNL     1     114.228 126.308 136.839  0.00  0.00    +0.000 A 
ATOM     28  C   UNL     1     114.771 124.769 136.593  0.00  0.00    +0.000 A 
ATOM     29  C   UNL     1     114.774 126.153 136.238  0.00  0.00    +0.000 A 
ATOM     30  C   UNL     1     115.045 125.384 136.115  0.00  0.00    +0.000 A 
ENDBRANCH  16  25
ENDBRANCH  10  15
ENDBRANCH   9  10
BRANCH   5  31
ATOM     31  C   UNL     1     111.317 127.714 136.012  0.00  0.00    +0.000 C 
BRANCH  31  32
ATOM     32  O   UNL     1     111.109 128.180 136.659  0.00  0.00    +0.000 OA
BRANCH  32  36
ATOM     33  O   UNL     1     112.192 129.164 136.506  0.00  0.00    +0.000 OA
ATOM     34  C   UNL     1     111.074 129.581 137.106  0.00  0.00    +0.000 C 
ATOM     35  C   UNL     1     111.602 130.214 137.079  0.00  0.00    +0.000 C 
ATOM     36  C   UNL     1     111.439 128.931 136.752  0.00  0.00    +0.000 C 
ATOM     37  C   UNL     1     112.292 129.956 136.709  0.00  0.00    +0.000 C 
BRANCH  34  38
ATOM     38  O   UNL     1     110.316 129.594 137.429  0.00  0.00    +0.000 OA
BRANCH  38  40
ATOM     39  O   UNL     1     110.765 129.363 138.766  0.00  0.00    +0.000 OA
ATOM     40  C   UNL     1     110.184 129.290 138.185  0.00  0.00    +0.000 C 
ATOM     41  C   UNL     1     109.471 128.913 138.359  0.00  0.00    +0.000 C 
ENDBRANCH  38  40
ENDBRANCH  34  38
BRANCH  35  42
ATOM     42  O   UNL     1     111.463 130.974 137.372  0.00  0.00    +0.000 OA
BRANCH  42  44
ATOM     43  O   UNL     1     110.794 131.379 136.176  0.00  0.00    +0.000 OA
ATOM     44  C   UNL     1     111.207 131.571 136.864  0.00  0.00    +0.000 C 
ATOM     45  C   UNL     1     111.364 132.361 137.044  0.00  0.00    +0.000 C 
ENDBRANCH  42  44
ENDBRANCH  35  42
BRANCH  37  46
ATOM     46  C   UNL     1     112.965 130.412 136.566  0.00  0.00    +0.000 C 
BRANCH  46  47
ATOM     47  O   UNL     1     113.686 130.044 136.407  0.00  0.00    +0.000 OA
BRANCH  47  49
ATOM     48  O   UNL     1     114.730 130.865 136.935  0.00  0.00    +0.000 OA
ATOM     49  C   UNL     1     114.365 130.499 136.292  0.00  0.00    +0.000 C 
ATOM     50  C   UNL     1     114.679 130.588 135.534  0.00  0.00    +0.000 C 
ENDBRANCH  47  49
ENDBRANCH  46  47
ENDBRANCH  37  46
ENDBRANCH  32  36
ENDBRANCH  31  32
ENDBRANCH   5  31
TORSDOF 13
ENDMDL
MODEL 4
REMARK VINA RESULT:      -8.9      1.811      3.728
REMARK  Name = 44258872
REMARK  13 active torsions:
REMARK  status: ('A' for Active; 'I' for Inactive)
REMARK    1  A    between atoms: O_2  and  C_22
REMARK    2  A    between atoms: O_2  and  C_27
REMARK    3  A    between atoms: O_4  and  C_19
REMARK    4  A    between atoms: O_4  and  C_30
REMARK    5  A    between atoms: O_5  and  C_20
REMARK    6  A    between atoms: O_5  and  C_31
REMARK    7  A    between atoms: O_8  and  C_28
REMARK    8  A    between atoms: O_8  and  C_32
REMARK    9  A    between atoms: O_10  and  C_29
REMARK   10  A    between atoms: O_10  and  C_35
REMARK   11  A    between atoms: C_21  and  C_27
REMARK   12  A    between atoms: C_23  and  C_29
REMARK   13  A    between atoms: C_33  and  C_39
REMARK                            x       y       z     vdW  Elec       q    Type
REMARK                         _______ _______ _______ _____ _____    ______ ____
ROOT
ATOM      1  O   UNL     1     110.872 127.408 139.617  0.00  0.00    +0.000 OA
ATOM      2  O   UNL     1     108.811 127.620 140.304  0.00  0.00    +0.000 OA
ATOM      3  O   UNL     1     109.417 126.596 141.447  0.00  0.00    +0.000 OA
ATOM      4  O   UNL     1     110.993 126.113 141.370  0.00  0.00    +0.000 OA
ATOM      5  C   UNL     1     110.085 127.649 139.655  0.00  0.00    +0.000 C 
ATOM      6  C   UNL     1     109.600 127.378 140.265  0.00  0.00    +0.000 C 
ATOM      7  C   UNL     1     109.902 126.866 140.837  0.00  0.00    +0.000 C 
ATOM      8  C   UNL     1     110.690 126.626 140.798  0.00  0.00    +0.000 C 
ATOM      9  C   UNL     1     111.175 126.896 140.188  0.00  0.00    +0.000 C 
ENDROOT
BRANCH   9  10
ATOM     10  O   UNL     1     111.963 126.655 140.150  0.00  0.00    +0.000 OA
BRANCH  10  15
ATOM     11  O   UNL     1     113.302 126.652 138.426  0.00  0.00    +0.000 OA
ATOM     12  O   UNL     1     111.294 125.454 139.237  0.00  0.00    +0.000 OA
ATOM     13  O   UNL     1     111.271 124.632 138.052  0.00  0.00    +0.000 OA
ATOM     14  O   UNL     1     113.318 125.029 136.008  0.00  0.00    +0.000 OA
ATOM     15  C   UNL     1     112.298 126.454 139.423  0.00  0.00    +0.000 A 
ATOM     16  C   UNL     1     112.967 126.853 139.153  0.00  0.00    +0.000 A 
ATOM     17  C   UNL     1     111.963 125.853 138.966  0.00  0.00    +0.000 A 
ATOM     18  C   UNL     1     112.298 125.652 138.240  0.00  0.00    +0.000 A 
ATOM     19  C   UNL     1     112.968 126.052 137.970  0.00  0.00    +0.000 A 
ATOM     20  C   UNL     1     111.941 125.026 137.774  0.00  0.00    +0.000 A 
ATOM     21  C   UNL     1     113.325 125.852 137.215  0.00  0.00    +0.000 A 
ATOM     22  C   UNL     1     112.284 124.812 137.016  0.00  0.00    +0.000 A 
ATOM     23  C   UNL     1     112.982 125.228 136.734  0.00  0.00    +0.000 A 
BRANCH  16  25
ATOM     24  O   UNL     1     114.305 129.255 140.978  0.00  0.00    +0.000 OA
ATOM     25  C   UNL     1     113.302 127.454 139.610  0.00  0.00    +0.000 A 
ATOM     26  C   UNL     1     113.739 127.265 140.284  0.00  0.00    +0.000 A 
ATOM     27  C   UNL     1     113.199 128.243 139.391  0.00  0.00    +0.000 A 
ATOM     28  C   UNL     1     114.073 127.865 140.740  0.00  0.00    +0.000 A 
ATOM     29  C   UNL     1     113.534 128.843 139.848  0.00  0.00    +0.000 A 
ATOM     30  C   UNL     1     113.971 128.655 140.522  0.00  0.00    +0.000 A 
ENDBRANCH  16  25
ENDBRANCH  10  15
ENDBRANCH   9  10
BRANCH   5  31
ATOM     31  C   UNL     1     109.781 128.161 139.084  0.00  0.00    +0.000 C 
BRANCH  31  32
ATOM     32  O   UNL     1     109.731 127.920 138.298  0.00  0.00    +0.000 OA
BRANCH  32  36
ATOM     33  O   UNL     1     109.320 129.250 137.822  0.00  0.00    +0.000 OA
ATOM     34  C   UNL     1     109.613 128.337 136.893  0.00  0.00    +0.000 C 
ATOM     35  C   UNL     1     109.398 129.034 136.508  0.00  0.00    +0.000 C 
ATOM     36  C   UNL     1     109.564 128.470 137.706  0.00  0.00    +0.000 C 
ATOM     37  C   UNL     1     109.217 129.597 137.082  0.00  0.00    +0.000 C 
BRANCH  34  38
ATOM     38  O   UNL     1     109.836 127.631 136.529  0.00  0.00    +0.000 OA
BRANCH  38  40
ATOM     39  O   UNL     1     108.540 127.065 136.728  0.00  0.00    +0.000 OA
ATOM     40  C   UNL     1     109.265 127.068 136.336  0.00  0.00    +0.000 C 
ATOM     41  C   UNL     1     109.421 126.507 135.751  0.00  0.00    +0.000 C 
ENDBRANCH  38  40
ENDBRANCH  34  38
BRANCH  35  42
ATOM     42  O   UNL     1     109.369 129.148 135.691  0.00  0.00    +0.000 OA
BRANCH  42  44
ATOM     43  O   UNL     1     110.732 129.573 135.628  0.00  0.00    +0.000 OA
ATOM     44  C   UNL     1     109.970 129.566 135.311  0.00  0.00    +0.000 C 
ATOM     45  C   UNL     1     109.810 129.977 134.613  0.00  0.00    +0.000 C 
ENDBRANCH  42  44
ENDBRANCH  35  42
BRANCH  37  46
ATOM     46  C   UNL     1     108.976 130.374 136.940  0.00  0.00    +0.000 C 
BRANCH  46  47
ATOM     47  O   UNL     1     108.602 130.805 137.537  0.00  0.00    +0.000 OA
BRANCH  47  49
ATOM     48  O   UNL     1     107.660 131.751 137.028  0.00  0.00    +0.000 OA
ATOM     49  C   UNL     1     108.377 131.587 137.401  0.00  0.00    +0.000 C 
ATOM     50  C   UNL     1     108.869 132.205 137.639  0.00  0.00    +0.000 C 
ENDBRANCH  47  49
ENDBRANCH  46  47
ENDBRANCH  37  46
ENDBRANCH  32  36
ENDBRANCH  31  32
ENDBRANCH   5  31
TORSDOF 13
ENDMDL
MODEL 5
REMARK VINA RESULT:      -8.8      1.782      4.246
REMARK  Name = 44258872
REMARK  13 active torsions:
REMARK  status: ('A' for Active; 'I' for Inactive)
REMARK    1  A    between atoms: O_2  and  C_22
REMARK    2  A    between atoms: O_2  and  C_27
REMARK    3  A    between atoms: O_4  and  C_19
REMARK    4  A    between atoms: O_4  and  C_30
REMARK    5  A    between atoms: O_5  and  C_20
REMARK    6  A    between atoms: O_5  and  C_31
REMARK    7  A    between atoms: O_8  and  C_28
REMARK    8  A    between atoms: O_8  and  C_32
REMARK    9  A    between atoms: O_10  and  C_29
REMARK   10  A    between atoms: O_10  and  C_35
REMARK   11  A    between atoms: C_21  and  C_27
REMARK   12  A    between atoms: C_23  and  C_29
REMARK   13  A    between atoms: C_33  and  C_39
REMARK                            x       y       z     vdW  Elec       q    Type
REMARK                         _______ _______ _______ _____ _____    ______ ____
ROOT
ATOM      1  O   UNL     1     112.043 129.564 136.863  0.00  0.00    +0.000 OA
ATOM      2  O   UNL     1     110.232 130.591 137.519  0.00  0.00    +0.000 OA
ATOM      3  O   UNL     1     109.923 130.413 135.908  0.00  0.00    +0.000 OA
ATOM      4  O   UNL     1     111.027 129.668 134.933  0.00  0.00    +0.000 OA
ATOM      5  C   UNL     1     111.491 129.936 137.350  0.00  0.00    +0.000 C 
ATOM      6  C   UNL     1     110.784 130.219 137.031  0.00  0.00    +0.000 C 
ATOM      7  C   UNL     1     110.630 130.130 136.226  0.00  0.00    +0.000 C 
ATOM      8  C   UNL     1     111.182 129.757 135.740  0.00  0.00    +0.000 C 
ATOM      9  C   UNL     1     111.888 129.474 136.058  0.00  0.00    +0.000 C 
ENDROOT
BRANCH   9  10
ATOM     10  O   UNL     1     112.440 129.102 135.570  0.00  0.00    +0.000 OA
BRANCH  10  15
ATOM     11  O   UNL     1     114.063 127.767 136.161  0.00  0.00    +0.000 OA
ATOM     12  O   UNL     1     111.594 127.750 135.992  0.00  0.00    +0.000 OA
ATOM     13  O   UNL     1     111.542 126.390 136.473  0.00  0.00    +0.000 OA
ATOM     14  O   UNL     1     114.035 125.023 137.137  0.00  0.00    +0.000 OA
ATOM     15  C   UNL     1     112.840 128.432 135.838  0.00  0.00    +0.000 A 
ATOM     16  C   UNL     1     113.663 128.437 135.894  0.00  0.00    +0.000 A 
ATOM     17  C   UNL     1     112.417 127.755 136.049  0.00  0.00    +0.000 A 
ATOM     18  C   UNL     1     112.817 127.085 136.316  0.00  0.00    +0.000 A 
ATOM     19  C   UNL     1     113.640 127.091 136.372  0.00  0.00    +0.000 A 
ATOM     20  C   UNL     1     112.365 126.387 136.532  0.00  0.00    +0.000 A 
ATOM     21  C   UNL     1     114.068 126.399 136.649  0.00  0.00    +0.000 A 
ATOM     22  C   UNL     1     112.775 125.686 136.811  0.00  0.00    +0.000 A 
ATOM     23  C   UNL     1     113.633 125.692 136.870  0.00  0.00    +0.000 A 
BRANCH  16  25
ATOM     24  O   UNL     1     115.355 131.141 135.049  0.00  0.00    +0.000 OA
ATOM     25  C   UNL     1     114.086 129.114 135.683  0.00  0.00    +0.000 A 
ATOM     26  C   UNL     1     114.408 129.599 136.268  0.00  0.00    +0.000 A 
ATOM     27  C   UNL     1     114.188 129.304 134.887  0.00  0.00    +0.000 A 
ATOM     28  C   UNL     1     114.830 130.274 136.057  0.00  0.00    +0.000 A 
ATOM     29  C   UNL     1     114.611 129.981 134.676  0.00  0.00    +0.000 A 
ATOM     30  C   UNL     1     114.932 130.466 135.261  0.00  0.00    +0.000 A 
ENDBRANCH  16  25
ENDBRANCH  10  15
ENDBRANCH   9  10
BRANCH   5  31
ATOM     31  C   UNL     1     111.645 130.025 138.155  0.00  0.00    +0.000 C 
BRANCH  31  32
ATOM     32  O   UNL     1     111.769 129.362 138.628  0.00  0.00    +0.000 OA
BRANCH  32  36
ATOM     33  O   UNL     1     112.724 129.956 139.576  0.00  0.00    +0.000 OA
ATOM     34  C   UNL     1     111.891 129.030 140.056  0.00  0.00    +0.000 C 
ATOM     35  C   UNL     1     112.372 129.285 140.675  0.00  0.00    +0.000 C 
ATOM     36  C   UNL     1     112.108 129.445 139.376  0.00  0.00    +0.000 C 
ATOM     37  C   UNL     1     112.886 129.857 140.378  0.00  0.00    +0.000 C 
BRANCH  34  38
ATOM     38  O   UNL     1     111.296 128.460 140.107  0.00  0.00    +0.000 OA
BRANCH  38  40
ATOM     39  O   UNL     1     112.225 127.419 139.798  0.00  0.00    +0.000 OA
ATOM     40  C   UNL     1     111.448 127.684 139.870  0.00  0.00    +0.000 C 
ATOM     41  C   UNL     1     110.820 127.173 139.706  0.00  0.00    +0.000 C 
ENDBRANCH  38  40
ENDBRANCH  34  38
BRANCH  35  42
ATOM     42  O   UNL     1     112.344 129.015 141.454  0.00  0.00    +0.000 OA
BRANCH  42  44
ATOM     43  O   UNL     1     111.376 130.010 141.792  0.00  0.00    +0.000 OA
ATOM     44  C   UNL     1     111.928 129.443 142.024  0.00  0.00    +0.000 C 
ATOM     45  C   UNL     1     112.064 129.303 142.826  0.00  0.00    +0.000 C 
ENDBRANCH  42  44
ENDBRANCH  35  42
BRANCH  37  46
ATOM     46  C   UNL     1     113.463 130.261 140.810  0.00  0.00    +0.000 C 
BRANCH  46  47
ATOM     47  O   UNL     1     114.070 130.659 140.416  0.00  0.00    +0.000 OA
BRANCH  47  49
ATOM     48  O   UNL     1     114.572 131.564 141.400  0.00  0.00    +0.000 OA
ATOM     49  C   UNL     1     114.703 130.971 140.842  0.00  0.00    +0.000 C 
ATOM     50  C   UNL     1     115.468 130.691 140.710  0.00  0.00    +0.000 C 
ENDBRANCH  47  49
ENDBRANCH  46  47
ENDBRANCH  37  46
ENDBRANCH  32  36
ENDBRANCH  31  32
ENDBRANCH   5  31
TORSDOF 13
ENDMDL
MODEL 6
REMARK VINA RESULT:      -8.8      1.595      4.012
REMARK  Name = 44258872
REMARK  13 active torsions:
REMARK  status: ('A' for Active; 'I' for Inactive)
REMARK    1  A    between atoms: O_2  and  C_22
REMARK    2  A    between atoms: O_2  and  C_27
REMARK    3  A    between atoms: O_4  and  C_19
REMARK    4  A    between atoms: O_4  and  C_30
REMARK    5  A    between atoms: O_5  and  C_20
REMARK    6  A    between atoms: O_5  and  C_31
REMARK    7  A    between atoms: O_8  and  C_28
REMARK    8  A    between atoms: O_8  and  C_32
REMARK    9  A    between atoms: O_10  and  C_29
REMARK   10  A    between atoms: O_10  and  C_35
REMARK   11  A    between atoms: C_21  and  C_27
REMARK   12  A    between atoms: C_23  and  C_29
REMARK   13  A    between atoms: C_33  and  C_39
REMARK                            x       y       z     vdW  Elec       q    Type
REMARK                         _______ _______ _______ _____ _____    ______ ____
ROOT
ATOM      1  O   UNL     1     112.723 128.492 137.194  0.00  0.00    +0.000 OA
ATOM      2  O   UNL     1     113.068 130.589 137.695  0.00  0.00    +0.000 OA
ATOM      3  O   UNL     1     114.145 130.382 136.462  0.00  0.00    +0.000 OA
ATOM      4  O   UNL     1     114.274 128.915 135.717  0.00  0.00    +0.000 OA
ATOM      5  C   UNL     1     112.659 129.225 137.566  0.00  0.00    +0.000 C 
ATOM      6  C   UNL     1     113.132 129.855 137.322  0.00  0.00    +0.000 C 
ATOM      7  C   UNL     1     113.671 129.752 136.706  0.00  0.00    +0.000 C 
ATOM      8  C   UNL     1     113.735 129.018 136.334  0.00  0.00    +0.000 C 
ATOM      9  C   UNL     1     113.261 128.389 136.578  0.00  0.00    +0.000 C 
ENDROOT
BRANCH   9  10
ATOM     10  O   UNL     1     113.327 127.655 136.205  0.00  0.00    +0.000 OA
BRANCH  10  15
ATOM     11  O   UNL     1     111.886 126.015 136.171  0.00  0.00    +0.000 OA
ATOM     12  O   UNL     1     112.135 128.305 135.266  0.00  0.00    +0.000 OA
ATOM     13  O   UNL     1     110.852 128.217 134.612  0.00  0.00    +0.000 OA
ATOM     14  O   UNL     1     109.288 125.765 134.879  0.00  0.00    +0.000 OA
ATOM     15  C   UNL     1     112.648 127.217 136.037  0.00  0.00    +0.000 A 
ATOM     16  C   UNL     1     112.565 126.454 136.338  0.00  0.00    +0.000 A 
ATOM     17  C   UNL     1     112.052 127.542 135.567  0.00  0.00    +0.000 A 
ATOM     18  C   UNL     1     111.374 127.103 135.399  0.00  0.00    +0.000 A 
ATOM     19  C   UNL     1     111.291 126.340 135.701  0.00  0.00    +0.000 A 
ATOM     20  C   UNL     1     110.761 127.452 134.910  0.00  0.00    +0.000 A 
ATOM     21  C   UNL     1     110.590 125.873 135.534  0.00  0.00    +0.000 A 
ATOM     22  C   UNL     1     110.052 127.001 134.731  0.00  0.00    +0.000 A 
ATOM     23  C   UNL     1     109.965 126.206 135.045  0.00  0.00    +0.000 A 
BRANCH  16  25
ATOM     24  O   UNL     1     114.948 125.154 138.215  0.00  0.00    +0.000 OA
ATOM     25  C   UNL     1     113.161 126.129 136.808  0.00  0.00    +0.000 A 
ATOM     26  C   UNL     1     113.059 126.074 137.625  0.00  0.00    +0.000 A 
ATOM     27  C   UNL     1     113.858 125.859 136.460  0.00  0.00    +0.000 A 
ATOM     28  C   UNL     1     113.654 125.749 138.094  0.00  0.00    +0.000 A 
ATOM     29  C   UNL     1     114.455 125.534 136.930  0.00  0.00    +0.000 A 
ATOM     30  C   UNL     1     114.353 125.479 137.747  0.00  0.00    +0.000 A 
ENDBRANCH  16  25
ENDBRANCH  10  15
ENDBRANCH   9  10
BRANCH   5  31
ATOM     31  C   UNL     1     112.120 129.329 138.183  0.00  0.00    +0.000 C 
BRANCH  31  32
ATOM     32  O   UNL     1     111.310 129.280 138.037  0.00  0.00    +0.000 OA
BRANCH  32  36
ATOM     33  O   UNL     1     110.920 128.651 139.308  0.00  0.00    +0.000 OA
ATOM     34  C   UNL     1     110.034 129.472 138.740  0.00  0.00    +0.000 C 
ATOM     35  C   UNL     1     109.704 129.185 139.439  0.00  0.00    +0.000 C 
ATOM     36  C   UNL     1     110.786 129.142 138.659  0.00  0.00    +0.000 C 
ATOM     37  C   UNL     1     110.252 128.678 139.790  0.00  0.00    +0.000 C 
BRANCH  34  38
ATOM     38  O   UNL     1     109.675 129.997 138.214  0.00  0.00    +0.000 OA
BRANCH  38  40
ATOM     39  O   UNL     1     109.077 128.927 137.479  0.00  0.00    +0.000 OA
ATOM     40  C   UNL     1     109.323 129.712 137.524  0.00  0.00    +0.000 C 
ATOM     41  C   UNL     1     109.217 130.216 136.878  0.00  0.00    +0.000 C 
ENDBRANCH  38  40
ENDBRANCH  34  38
BRANCH  35  42
ATOM     42  O   UNL     1     108.957 129.372 139.736  0.00  0.00    +0.000 OA
BRANCH  42  44
ATOM     43  O   UNL     1     109.456 130.529 140.409  0.00  0.00    +0.000 OA
ATOM     44  C   UNL     1     108.878 129.946 140.322  0.00  0.00    +0.000 C 
ATOM     45  C   UNL     1     108.221 129.939 140.822  0.00  0.00    +0.000 C 
ENDBRANCH  42  44
ENDBRANCH  35  42
BRANCH  37  46
ATOM     46  C   UNL     1     110.149 128.269 140.499  0.00  0.00    +0.000 C 
BRANCH  46  47
ATOM     47  O   UNL     1     110.600 127.596 140.657  0.00  0.00    +0.000 OA
BRANCH  47  49
ATOM     48  O   UNL     1     110.625 127.492 142.082  0.00  0.00    +0.000 OA
ATOM     49  C   UNL     1     110.465 127.160 141.344  0.00  0.00    +0.000 C 
ATOM     50  C   UNL     1     110.169 126.391 141.293  0.00  0.00    +0.000 C 
ENDBRANCH  47  49
ENDBRANCH  46  47
ENDBRANCH  37  46
ENDBRANCH  32  36
ENDBRANCH  31  32
ENDBRANCH   5  31
TORSDOF 13
ENDMDL
MODEL 7
REMARK VINA RESULT:      -8.8      0.968      1.436
REMARK  Name = 44258872
REMARK  13 active torsions:
REMARK  status: ('A' for Active; 'I' for Inactive)
REMARK    1  A    between atoms: O_2  and  C_22
REMARK    2  A    between atoms: O_2  and  C_27
REMARK    3  A    between atoms: O_4  and  C_19
REMARK    4  A    between atoms: O_4  and  C_30
REMARK    5  A    between atoms: O_5  and  C_20
REMARK    6  A    between atoms: O_5  and  C_31
REMARK    7  A    between atoms: O_8  and  C_28
REMARK    8  A    between atoms: O_8  and  C_32
REMARK    9  A    between atoms: O_10  and  C_29
REMARK   10  A    between atoms: O_10  and  C_35
REMARK   11  A    between atoms: C_21  and  C_27
REMARK   12  A    between atoms: C_23  and  C_29
REMARK   13  A    between atoms: C_33  and  C_39
REMARK                            x       y       z     vdW  Elec       q    Type
REMARK                         _______ _______ _______ _____ _____    ______ ____
ROOT
ATOM      1  O   UNL     1     111.400 126.375 136.720  0.00  0.00    +0.000 OA
ATOM      2  O   UNL     1     109.882 126.571 135.164  0.00  0.00    +0.000 OA
ATOM      3  O   UNL     1     110.212 124.957 135.075  0.00  0.00    +0.000 OA
ATOM      4  O   UNL     1     111.334 124.288 136.083  0.00  0.00    +0.000 OA
ATOM      5  C   UNL     1     110.840 126.709 136.216  0.00  0.00    +0.000 C 
ATOM      6  C   UNL     1     110.444 126.236 135.668  0.00  0.00    +0.000 C 
ATOM      7  C   UNL     1     110.608 125.429 135.624  0.00  0.00    +0.000 C 
ATOM      8  C   UNL     1     111.169 125.096 136.128  0.00  0.00    +0.000 C 
ATOM      9  C   UNL     1     111.565 125.568 136.676  0.00  0.00    +0.000 C 
ENDROOT
BRANCH   9  10
ATOM     10  O   UNL     1     112.126 125.233 137.180  0.00  0.00    +0.000 OA
BRANCH  10  15
ATOM     11  O   UNL     1     113.271 126.213 138.759  0.00  0.00    +0.000 OA
ATOM     12  O   UNL     1     110.948 125.489 138.306  0.00  0.00    +0.000 OA
ATOM     13  O   UNL     1     110.513 125.983 139.590  0.00  0.00    +0.000 OA
ATOM     14  O   UNL     1     112.467 127.233 141.366  0.00  0.00    +0.000 OA
ATOM     15  C   UNL     1     112.311 125.602 137.894  0.00  0.00    +0.000 A 
ATOM     16  C   UNL     1     113.085 125.844 138.045  0.00  0.00    +0.000 A 
ATOM     17  C   UNL     1     111.722 125.731 138.457  0.00  0.00    +0.000 A 
ATOM     18  C   UNL     1     111.907 126.100 139.171  0.00  0.00    +0.000 A 
ATOM     19  C   UNL     1     112.682 126.341 139.322  0.00  0.00    +0.000 A 
ATOM     20  C   UNL     1     111.286 126.228 139.750  0.00  0.00    +0.000 A 
ATOM     21  C   UNL     1     112.887 126.727 140.061  0.00  0.00    +0.000 A 
ATOM     22  C   UNL     1     111.472 126.612 140.495  0.00  0.00    +0.000 A 
ATOM     23  C   UNL     1     112.278 126.863 140.653  0.00  0.00    +0.000 A 
BRANCH  16  25
ATOM     24  O   UNL     1     115.441 125.330 135.792  0.00  0.00    +0.000 OA
ATOM     25  C   UNL     1     113.675 125.715 137.481  0.00  0.00    +0.000 A 
ATOM     26  C   UNL     1     113.935 126.338 137.007  0.00  0.00    +0.000 A 
ATOM     27  C   UNL     1     114.004 124.964 137.393  0.00  0.00    +0.000 A 
ATOM     28  C   UNL     1     114.523 126.209 136.444  0.00  0.00    +0.000 A 
ATOM     29  C   UNL     1     114.593 124.835 136.829  0.00  0.00    +0.000 A 
ATOM     30  C   UNL     1     114.853 125.458 136.355  0.00  0.00    +0.000 A 
ENDBRANCH  16  25
ENDBRANCH  10  15
ENDBRANCH   9  10
BRANCH   5  31
ATOM     31  C   UNL     1     110.674 127.516 136.260  0.00  0.00    +0.000 C 
BRANCH  31  32
ATOM     32  O   UNL     1     111.269 128.068 136.114  0.00  0.00    +0.000 OA
BRANCH  32  36
ATOM     33  O   UNL     1     110.388 129.215 136.383  0.00  0.00    +0.000 OA
ATOM     34  C   UNL     1     111.682 129.478 136.183  0.00  0.00    +0.000 C 
ATOM     35  C   UNL     1     111.295 130.192 136.323  0.00  0.00    +0.000 C 
ATOM     36  C   UNL     1     111.121 128.873 136.220  0.00  0.00    +0.000 C 
ATOM     37  C   UNL     1     110.496 130.030 136.446  0.00  0.00    +0.000 C 
BRANCH  34  38
ATOM     38  O   UNL     1     112.488 129.383 136.033  0.00  0.00    +0.000 OA
BRANCH  38  40
ATOM     39  O   UNL     1     112.228 129.353 134.629  0.00  0.00    +0.000 OA
ATOM     40  C   UNL     1     112.763 129.365 135.256  0.00  0.00    +0.000 C 
ATOM     41  C   UNL     1     113.575 129.360 135.106  0.00  0.00    +0.000 C 
ENDBRANCH  38  40
ENDBRANCH  34  38
BRANCH  35  42
ATOM     42  O   UNL     1     111.646 130.939 136.337  0.00  0.00    +0.000 OA
BRANCH  42  44
ATOM     43  O   UNL     1     111.965 130.858 137.727  0.00  0.00    +0.000 OA
ATOM     44  C   UNL     1     111.798 131.310 137.058  0.00  0.00    +0.000 C 
ATOM     45  C   UNL     1     111.785 132.134 137.110  0.00  0.00    +0.000 C 
ENDBRANCH  42  44
ENDBRANCH  35  42
BRANCH  37  46
ATOM     46  C   UNL     1     109.907 130.586 136.605  0.00  0.00    +0.000 C 
BRANCH  46  47
ATOM     47  O   UNL     1     109.114 130.395 136.480  0.00  0.00    +0.000 OA
BRANCH  47  49
ATOM     48  O   UNL     1     108.327 131.074 137.461  0.00  0.00    +0.000 OA
ATOM     49  C   UNL     1     108.524 130.938 136.671  0.00  0.00    +0.000 C 
ATOM     50  C   UNL     1     108.129 131.346 136.072  0.00  0.00    +0.000 C 
ENDBRANCH  47  49
ENDBRANCH  46  47
ENDBRANCH  37  46
ENDBRANCH  32  36
ENDBRANCH  31  32
ENDBRANCH   5  31
TORSDOF 13
ENDMDL
MODEL 8
REMARK VINA RESULT:      -8.8      1.739      4.234
REMARK  Name = 44258872
REMARK  13 active torsions:
REMARK  status: ('A' for Active; 'I' for Inactive)
REMARK    1  A    between atoms: O_2  and  C_22
REMARK    2  A    between atoms: O_2  and  C_27
REMARK    3  A    between atoms: O_4  and  C_19
REMARK    4  A    between atoms: O_4  and  C_30
REMARK    5  A    between atoms: O_5  and  C_20
REMARK    6  A    between atoms: O_5  and  C_31
REMARK    7  A    between atoms: O_8  and  C_28
REMARK    8  A    between atoms: O_8  and  C_32
REMARK    9  A    between atoms: O_10  and  C_29
REMARK   10  A    between atoms: O_10  and  C_35
REMARK   11  A    between atoms: C_21  and  C_27
REMARK   12  A    between atoms: C_23  and  C_29
REMARK   13  A    between atoms: C_33  and  C_39
REMARK                            x       y       z     vdW  Elec       q    Type
REMARK                         _______ _______ _______ _____ _____    ______ ____
ROOT
ATOM      1  O   UNL     1     113.007 127.859 137.342  0.00  0.00    +0.000 OA
ATOM      2  O   UNL     1     113.428 126.422 138.931  0.00  0.00    +0.000 OA
ATOM      3  O   UNL     1     114.190 125.707 137.654  0.00  0.00    +0.000 OA
ATOM      4  O   UNL     1     114.163 126.426 136.169  0.00  0.00    +0.000 OA
ATOM      5  C   UNL     1     113.020 127.499 138.084  0.00  0.00    +0.000 C 
ATOM      6  C   UNL     1     113.415 126.782 138.188  0.00  0.00    +0.000 C 
ATOM      7  C   UNL     1     113.796 126.424 137.550  0.00  0.00    +0.000 C 
ATOM      8  C   UNL     1     113.782 126.784 136.808  0.00  0.00    +0.000 C 
ATOM      9  C   UNL     1     113.388 127.501 136.704  0.00  0.00    +0.000 C 
ENDROOT
BRANCH   9  10
ATOM     10  O   UNL     1     113.375 127.860 135.961  0.00  0.00    +0.000 OA
BRANCH  10  15
ATOM     11  O   UNL     1     112.106 129.493 135.262  0.00  0.00    +0.000 OA
ATOM     12  O   UNL     1     111.907 127.110 135.899  0.00  0.00    +0.000 OA
ATOM     13  O   UNL     1     110.489 127.127 135.629  0.00  0.00    +0.000 OA
ATOM     14  O   UNL     1     109.250 129.602 134.698  0.00  0.00    +0.000 OA
ATOM     15  C   UNL     1     112.707 128.280 135.718  0.00  0.00    +0.000 A 
ATOM     16  C   UNL     1     112.773 129.074 135.505  0.00  0.00    +0.000 A 
ATOM     17  C   UNL     1     111.973 127.904 135.687  0.00  0.00    +0.000 A 
ATOM     18  C   UNL     1     111.305 128.323 135.443  0.00  0.00    +0.000 A 
ATOM     19  C   UNL     1     111.372 129.118 135.231  0.00  0.00    +0.000 A 
ATOM     20  C   UNL     1     110.547 127.922 135.415  0.00  0.00    +0.000 A 
ATOM     21  C   UNL     1     110.684 129.565 134.976  0.00  0.00    +0.000 A 
ATOM     22  C   UNL     1     109.847 128.353 135.163  0.00  0.00    +0.000 A 
ATOM     23  C   UNL     1     109.916 129.180 134.942  0.00  0.00    +0.000 A 
BRANCH  16  25
ATOM     24  O   UNL     1     115.710 130.575 135.630  0.00  0.00    +0.000 OA
ATOM     25  C   UNL     1     113.508 129.449 135.536  0.00  0.00    +0.000 A 
ATOM     26  C   UNL     1     114.082 129.279 134.969  0.00  0.00    +0.000 A 
ATOM     27  C   UNL     1     113.667 129.994 136.135  0.00  0.00    +0.000 A 
ATOM     28  C   UNL     1     114.816 129.654 135.001  0.00  0.00    +0.000 A 
ATOM     29  C   UNL     1     114.402 130.370 136.166  0.00  0.00    +0.000 A 
ATOM     30  C   UNL     1     114.976 130.200 135.599  0.00  0.00    +0.000 A 
ENDBRANCH  16  25
ENDBRANCH  10  15
ENDBRANCH   9  10
BRANCH   5  31
ATOM     31  C   UNL     1     112.640 127.857 138.723  0.00  0.00    +0.000 C 
BRANCH  31  32
ATOM     32  O   UNL     1     112.887 128.596 138.990  0.00  0.00    +0.000 OA
BRANCH  32  36
ATOM     33  O   UNL     1     111.577 129.264 138.967  0.00  0.00    +0.000 OA
ATOM     34  C   UNL     1     112.442 129.659 139.904  0.00  0.00    +0.000 C 
ATOM     35  C   UNL     1     111.752 130.101 139.991  0.00  0.00    +0.000 C 
ATOM     36  C   UNL     1     112.334 129.141 139.270  0.00  0.00    +0.000 C 
ATOM     37  C   UNL     1     111.218 129.857 139.412  0.00  0.00    +0.000 C 
BRANCH  34  38
ATOM     38  O   UNL     1     113.121 129.723 140.368  0.00  0.00    +0.000 OA
BRANCH  38  40
ATOM     39  O   UNL     1     113.667 130.756 139.546  0.00  0.00    +0.000 OA
ATOM     40  C   UNL     1     113.773 130.145 140.089  0.00  0.00    +0.000 C 
ATOM     41  C   UNL     1     114.531 129.957 140.356  0.00  0.00    +0.000 C 
ENDBRANCH  38  40
ENDBRANCH  34  38
BRANCH  35  42
ATOM     42  O   UNL     1     111.619 130.686 140.559  0.00  0.00    +0.000 OA
BRANCH  42  44
ATOM     43  O   UNL     1     111.153 129.727 141.510  0.00  0.00    +0.000 OA
ATOM     44  C   UNL     1     111.197 130.507 141.244  0.00  0.00    +0.000 C 
ATOM     45  C   UNL     1     110.819 131.108 141.665  0.00  0.00    +0.000 C 
ENDBRANCH  42  44
ENDBRANCH  35  42
BRANCH  37  46
ATOM     46  C   UNL     1     110.456 130.155 139.299  0.00  0.00    +0.000 C 
BRANCH  46  47
ATOM     47  O   UNL     1     110.082 130.064 138.569  0.00  0.00    +0.000 OA
BRANCH  47  49
ATOM     48  O   UNL     1     108.679 129.896 138.782  0.00  0.00    +0.000 OA
ATOM     49  C   UNL     1     109.307 130.327 138.467  0.00  0.00    +0.000 C 
ATOM     50  C   UNL     1     109.160 131.024 138.049  0.00  0.00    +0.000 C 
ENDBRANCH  47  49
ENDBRANCH  46  47
ENDBRANCH  37  46
ENDBRANCH  32  36
ENDBRANCH  31  32
ENDBRANCH   5  31
TORSDOF 13
ENDMDL
MODEL 9
REMARK VINA RESULT:      -8.7      1.575      5.099
REMARK  Name = 44258872
REMARK  13 active torsions:
REMARK  status: ('A' for Active; 'I' for Inactive)
REMARK    1  A    between atoms: O_2  and  C_22
REMARK    2  A    between atoms: O_2  and  C_27
REMARK    3  A    between atoms: O_4  and  C_19
REMARK    4  A    between atoms: O_4  and  C_30
REMARK    5  A    between atoms: O_5  and  C_20
REMARK    6  A    between atoms: O_5  and  C_31
REMARK    7  A    between atoms: O_8  and  C_28
REMARK    8  A    between atoms: O_8  and  C_32
REMARK    9  A    between atoms: O_10  and  C_29
REMARK   10  A    between atoms: O_10  and  C_35
REMARK   11  A    between atoms: C_21  and  C_27
REMARK   12  A    between atoms: C_23  and  C_29
REMARK   13  A    between atoms: C_33  and  C_39
REMARK                            x       y       z     vdW  Elec       q    Type
REMARK                         _______ _______ _______ _____ _____    ______ ____
ROOT
ATOM      1  O   UNL     1     113.273 129.110 136.866  0.00  0.00    +0.000 OA
ATOM      2  O   UNL     1     114.424 128.509 135.111  0.00  0.00    +0.000 OA
ATOM      3  O   UNL     1     115.060 130.003 135.405  0.00  0.00    +0.000 OA
ATOM      4  O   UNL     1     114.505 130.902 136.672  0.00  0.00    +0.000 OA
ATOM      5  C   UNL     1     113.550 128.661 136.233  0.00  0.00    +0.000 C 
ATOM      6  C   UNL     1     114.146 128.958 135.746  0.00  0.00    +0.000 C 
ATOM      7  C   UNL     1     114.464 129.705 135.892  0.00  0.00    +0.000 C 
ATOM      8  C   UNL     1     114.186 130.154 136.525  0.00  0.00    +0.000 C 
ATOM      9  C   UNL     1     113.590 129.856 137.012  0.00  0.00    +0.000 C 
ENDROOT
BRANCH   9  10
ATOM     10  O   UNL     1     113.313 130.306 137.646  0.00  0.00    +0.000 OA
BRANCH  10  15
ATOM     11  O   UNL     1     111.569 129.935 138.905  0.00  0.00    +0.000 OA
ATOM     12  O   UNL     1     112.089 130.623 136.585  0.00  0.00    +0.000 OA
ATOM     13  O   UNL     1     110.685 130.719 136.269  0.00  0.00    +0.000 OA
ATOM     14  O   UNL     1     108.717 130.108 138.338  0.00  0.00    +0.000 OA
ATOM     15  C   UNL     1     112.528 130.235 137.889  0.00  0.00    +0.000 A 
ATOM     16  C   UNL     1     112.354 130.006 138.662  0.00  0.00    +0.000 A 
ATOM     17  C   UNL     1     111.915 130.394 137.358  0.00  0.00    +0.000 A 
ATOM     18  C   UNL     1     111.130 130.323 137.601  0.00  0.00    +0.000 A 
ATOM     19  C   UNL     1     110.958 130.093 138.375  0.00  0.00    +0.000 A 
ATOM     20  C   UNL     1     110.502 130.490 137.040  0.00  0.00    +0.000 A 
ATOM     21  C   UNL     1     110.144 130.016 138.640  0.00  0.00    +0.000 A 
ATOM     22  C   UNL     1     109.683 130.418 137.287  0.00  0.00    +0.000 A 
ATOM     23  C   UNL     1     109.502 130.180 138.092  0.00  0.00    +0.000 A 
BRANCH  16  25
ATOM     24  O   UNL     1     114.802 129.372 140.783  0.00  0.00    +0.000 OA
ATOM     25  C   UNL     1     112.966 129.848 139.193  0.00  0.00    +0.000 A 
ATOM     26  C   UNL     1     113.429 130.465 139.486  0.00  0.00    +0.000 A 
ATOM     27  C   UNL     1     113.116 129.072 139.429  0.00  0.00    +0.000 A 
ATOM     28  C   UNL     1     114.040 130.307 140.015  0.00  0.00    +0.000 A 
ATOM     29  C   UNL     1     113.728 128.913 139.960  0.00  0.00    +0.000 A 
ATOM     30  C   UNL     1     114.190 129.531 140.253  0.00  0.00    +0.000 A 
ENDBRANCH  16  25
ENDBRANCH  10  15
ENDBRANCH   9  10
BRANCH   5  31
ATOM     31  C   UNL     1     113.233 127.913 136.085  0.00  0.00    +0.000 C 
BRANCH  31  32
ATOM     32  O   UNL     1     113.283 127.323 136.659  0.00  0.00    +0.000 OA
BRANCH  32  36
ATOM     33  O   UNL     1     111.858 126.961 136.695  0.00  0.00    +0.000 OA
ATOM     34  C   UNL     1     112.738 125.985 136.933  0.00  0.00    +0.000 C 
ATOM     35  C   UNL     1     111.980 125.663 136.980  0.00  0.00    +0.000 C 
ATOM     36  C   UNL     1     112.662 126.788 136.756  0.00  0.00    +0.000 C 
ATOM     37  C   UNL     1     111.437 126.265 136.833  0.00  0.00    +0.000 C 
BRANCH  34  38
ATOM     38  O   UNL     1     113.446 125.578 137.043  0.00  0.00    +0.000 OA
BRANCH  38  40
ATOM     39  O   UNL     1     113.439 125.862 138.443  0.00  0.00    +0.000 OA
ATOM     40  C   UNL     1     113.844 125.628 137.764  0.00  0.00    +0.000 C 
ATOM     41  C   UNL     1     114.648 125.444 137.805  0.00  0.00    +0.000 C 
ENDBRANCH  38  40
ENDBRANCH  34  38
BRANCH  35  42
ATOM     42  O   UNL     1     111.798 124.875 137.146  0.00  0.00    +0.000 OA
BRANCH  42  44
ATOM     43  O   UNL     1     111.624 124.596 135.756  0.00  0.00    +0.000 OA
ATOM     44  C   UNL     1     111.722 124.331 136.531  0.00  0.00    +0.000 C 
ATOM     45  C   UNL     1     111.743 123.522 136.690  0.00  0.00    +0.000 C 
ENDBRANCH  42  44
ENDBRANCH  35  42
BRANCH  37  46
ATOM     46  C   UNL     1     110.615 126.186 136.826  0.00  0.00    +0.000 C 
BRANCH  46  47
ATOM     47  O   UNL     1     110.136 126.854 136.903  0.00  0.00    +0.000 OA
BRANCH  47  49
ATOM     48  O   UNL     1     108.905 126.573 137.571  0.00  0.00    +0.000 OA
ATOM     49  C   UNL     1     109.315 126.776 136.885  0.00  0.00    +0.000 C 
ATOM     50  C   UNL     1     108.904 126.901 136.180  0.00  0.00    +0.000 C 
ENDBRANCH  47  49
ENDBRANCH  46  47
ENDBRANCH  37  46
ENDBRANCH  32  36
ENDBRANCH  31  32
ENDBRANCH   5  31
TORSDOF 13
ENDMDL
MODEL 10
REMARK VINA RESULT:      -8.7      1.528      5.286
REMARK  Name = 44258872
REMARK  13 active torsions:
REMARK  status: ('A' for Active; 'I' for Inactive)
REMARK    1  A    between atoms: O_2  and  C_22
REMARK    2  A    between atoms: O_2  and  C_27
REMARK    3  A    between atoms: O_4  and  C_19
REMARK    4  A    between atoms: O_4  and  C_30
REMARK    5  A    between atoms: O_5  and  C_20
REMARK    6  A    between atoms: O_5  and  C_31
REMARK    7  A    between atoms: O_8  and  C_28
REMARK    8  A    between atoms: O_8  and  C_32
REMARK    9  A    between atoms: O_10  and  C_29
REMARK   10  A    between atoms: O_10  and  C_35
REMARK   11  A    between atoms: C_21  and  C_27
REMARK   12  A    between atoms: C_23  and  C_29
REMARK   13  A    between atoms: C_33  and  C_39
REMARK                            x       y       z     vdW  Elec       q    Type
REMARK                         _______ _______ _______ _____ _____    ______ ____
ROOT
ATOM      1  O   UNL     1     112.918 128.963 138.397  0.00  0.00    +0.000 OA
ATOM      2  O   UNL     1     113.485 127.944 140.242  0.00  0.00    +0.000 OA
ATOM      3  O   UNL     1     113.999 129.478 140.563  0.00  0.00    +0.000 OA
ATOM      4  O   UNL     1     113.793 130.669 139.440  0.00  0.00    +0.000 OA
ATOM      5  C   UNL     1     113.021 128.368 138.958  0.00  0.00    +0.000 C 
ATOM      6  C   UNL     1     113.381 128.539 139.680  0.00  0.00    +0.000 C 
ATOM      7  C   UNL     1     113.639 129.306 139.841  0.00  0.00    +0.000 C 
ATOM      8  C   UNL     1     113.535 129.901 139.279  0.00  0.00    +0.000 C 
ATOM      9  C   UNL     1     113.175 129.729 138.557  0.00  0.00    +0.000 C 
ENDROOT
BRANCH   9  10
ATOM     10  O   UNL     1     113.072 130.325 137.996  0.00  0.00    +0.000 OA
BRANCH  10  15
ATOM     11  O   UNL     1     111.930 130.248 136.136  0.00  0.00    +0.000 OA
ATOM     12  O   UNL     1     111.529 130.289 138.578  0.00  0.00    +0.000 OA
ATOM     13  O   UNL     1     110.101 130.239 138.373  0.00  0.00    +0.000 OA
ATOM     14  O   UNL     1     109.062 130.145 135.645  0.00  0.00    +0.000 OA
ATOM     15  C   UNL     1     112.435 130.293 137.473  0.00  0.00    +0.000 A 
ATOM     16  C   UNL     1     112.568 130.279 136.659  0.00  0.00    +0.000 A 
ATOM     17  C   UNL     1     111.662 130.275 137.764  0.00  0.00    +0.000 A 
ATOM     18  C   UNL     1     111.025 130.243 137.242  0.00  0.00    +0.000 A 
ATOM     19  C   UNL     1     111.159 130.229 136.428  0.00  0.00    +0.000 A 
ATOM     20  C   UNL     1     110.226 130.225 137.557  0.00  0.00    +0.000 A 
ATOM     21  C   UNL     1     110.504 130.196 135.873  0.00  0.00    +0.000 A 
ATOM     22  C   UNL     1     109.558 130.192 137.018  0.00  0.00    +0.000 A 
ATOM     23  C   UNL     1     109.697 130.177 136.170  0.00  0.00    +0.000 A 
BRANCH  16  25
ATOM     24  O   UNL     1     115.655 130.351 135.494  0.00  0.00    +0.000 OA
ATOM     25  C   UNL     1     113.340 130.298 136.368  0.00  0.00    +0.000 A 
ATOM     26  C   UNL     1     113.782 130.993 136.413  0.00  0.00    +0.000 A 
ATOM     27  C   UNL     1     113.670 129.620 136.032  0.00  0.00    +0.000 A 
ATOM     28  C   UNL     1     114.553 131.011 136.122  0.00  0.00    +0.000 A 
ATOM     29  C   UNL     1     114.442 129.638 135.741  0.00  0.00    +0.000 A 
ATOM     30  C   UNL     1     114.884 130.333 135.785  0.00  0.00    +0.000 A 
ENDBRANCH  16  25
ENDBRANCH  10  15
ENDBRANCH   9  10
BRANCH   5  31
ATOM     31  C   UNL     1     112.764 127.600 138.798  0.00  0.00    +0.000 C 
BRANCH  31  32
ATOM     32  O   UNL     1     113.085 127.180 138.166  0.00  0.00    +0.000 OA
BRANCH  32  36
ATOM     33  O   UNL     1     111.860 126.790 137.451  0.00  0.00    +0.000 OA
ATOM     34  C   UNL     1     112.827 125.874 137.542  0.00  0.00    +0.000 C 
ATOM     35  C   UNL     1     112.199 125.541 137.124  0.00  0.00    +0.000 C 
ATOM     36  C   UNL     1     112.618 126.646 137.744  0.00  0.00    +0.000 C 
ATOM     37  C   UNL     1     111.602 126.107 137.068  0.00  0.00    +0.000 C 
BRANCH  34  38
ATOM     38  O   UNL     1     113.540 125.500 137.726  0.00  0.00    +0.000 OA
BRANCH  38  40
ATOM     39  O   UNL     1     114.158 126.112 136.593  0.00  0.00    +0.000 OA
ATOM     40  C   UNL     1     114.192 125.588 137.228  0.00  0.00    +0.000 C 
ATOM     41  C   UNL     1     114.878 125.151 137.368  0.00  0.00    +0.000 C 
ENDBRANCH  38  40
ENDBRANCH  34  38
BRANCH  35  42
ATOM     42  O   UNL     1     112.172 124.776 136.816  0.00  0.00    +0.000 OA
BRANCH  42  44
ATOM     43  O   UNL     1     111.507 124.323 137.996  0.00  0.00    +0.000 OA
ATOM     44  C   UNL     1     111.815 124.170 137.246  0.00  0.00    +0.000 C 
ATOM     45  C   UNL     1     111.767 123.410 136.928  0.00  0.00    +0.000 C 
ENDBRANCH  42  44
ENDBRANCH  35  42
BRANCH  37  46
ATOM     46  C   UNL     1     110.873 126.007 136.693  0.00  0.00    +0.000 C 
BRANCH  46  47
ATOM     47  O   UNL     1     110.468 126.663 136.397  0.00  0.00    +0.000 OA
BRANCH  47  49
ATOM     48  O   UNL     1     109.055 126.616 136.601  0.00  0.00    +0.000 OA
ATOM     49  C   UNL     1     109.706 126.575 136.096  0.00  0.00    +0.000 C 
ATOM     50  C   UNL     1     109.593 126.446 135.288  0.00  0.00    +0.000 C 
ENDBRANCH  47  49
ENDBRANCH  46  47
ENDBRANCH  37  46
ENDBRANCH  32  36
ENDBRANCH  31  32
ENDBRANCH   5  31
TORSDOF 13
ENDMDL
