MODEL 1
REMARK VINA RESULT:      -8.5      0.000      0.000
REMARK  Name = 44258656
REMARK  4 active torsions:
REMARK  status: ('A' for Active; 'I' for Inactive)
REMARK    1  A    between atoms: O_2  and  C_13
REMARK    2  A    between atoms: O_3  and  C_18
REMARK    3  A    between atoms: O_7  and  C_22
REMARK    4  A    between atoms: C_12  and  C_15
REMARK                            x       y       z     vdW  Elec       q    Type
REMARK                         _______ _______ _______ _____ _____    ______ ____
ROOT
ATOM      1  O   UNL     1     104.877 124.252 147.186  0.00  0.00    +0.000 OA
ATOM      2  O   UNL     1     107.203 125.567 146.075  0.00  0.00    +0.000 OA
ATOM      3  O   UNL     1     107.113 124.951 148.864  0.00  0.00    +0.000 OA
ATOM      4  O   UNL     1     106.104 125.233 145.200  0.00  0.00    +0.000 OA
ATOM      5  C   UNL     1     106.056 124.918 146.626  0.00  0.00    +0.000 A 
ATOM      6  C   UNL     1     105.658 124.599 147.274  0.00  0.00    +0.000 A 
ATOM      7  C   UNL     1     104.504 124.237 146.412  0.00  0.00    +0.000 A 
ATOM      8  C   UNL     1     106.011 124.610 148.021  0.00  0.00    +0.000 A 
ATOM      9  C   UNL     1     106.806 125.248 146.723  0.00  0.00    +0.000 A 
ATOM     10  C   UNL     1     105.700 124.912 145.844  0.00  0.00    +0.000 A 
ATOM     11  C   UNL     1     104.918 124.569 145.736  0.00  0.00    +0.000 A 
ATOM     12  C   UNL     1     107.158 125.259 147.469  0.00  0.00    +0.000 A 
ATOM     13  C   UNL     1     106.760 124.940 148.117  0.00  0.00    +0.000 A 
ENDROOT
BRANCH   7  16
ATOM     14  O   UNL     1     104.341 122.740 145.739  0.00  0.00    +0.000 OA
ATOM     15  O   UNL     1     101.504 122.916 146.039  0.00  0.00    +0.000 OA
ATOM     16  C   UNL     1     103.754 123.906 146.318  0.00  0.00    +0.000 A 
ATOM     17  C   UNL     1     103.673 123.157 145.982  0.00  0.00    +0.000 A 
ATOM     18  C   UNL     1     103.086 124.325 146.562  0.00  0.00    +0.000 A 
ATOM     19  C   UNL     1     102.337 123.995 146.469  0.00  0.00    +0.000 A 
ATOM     20  C   UNL     1     102.923 122.827 145.889  0.00  0.00    +0.000 A 
ATOM     21  C   UNL     1     102.255 123.246 146.132  0.00  0.00    +0.000 A 
BRANCH  19  22
ATOM     22  O   UNL     1     101.668 124.413 146.712  0.00  0.00    +0.000 OA
ATOM     23  C   UNL     1     101.635 124.732 147.472  0.00  0.00    +0.000 C 
ENDBRANCH  19  22
ENDBRANCH   7  16
BRANCH   8  24
ATOM     24  O   UNL     1     105.613 124.291 148.670  0.00  0.00    +0.000 OA
ATOM     25  C   UNL     1     105.424 124.770 149.313  0.00  0.00    +0.000 C 
ENDBRANCH   8  24
BRANCH  12  26
ATOM     26  O   UNL     1     107.908 125.589 147.566  0.00  0.00    +0.000 OA
ATOM     27  C   UNL     1     108.559 125.102 147.699  0.00  0.00    +0.000 C 
ENDBRANCH  12  26
TORSDOF 4
ENDMDL
MODEL 2
REMARK VINA RESULT:      -8.3      2.352      4.346
REMARK  Name = 44258656
REMARK  4 active torsions:
REMARK  status: ('A' for Active; 'I' for Inactive)
REMARK    1  A    between atoms: O_2  and  C_13
REMARK    2  A    between atoms: O_3  and  C_18
REMARK    3  A    between atoms: O_7  and  C_22
REMARK    4  A    between atoms: C_12  and  C_15
REMARK                            x       y       z     vdW  Elec       q    Type
REMARK                         _______ _______ _______ _____ _____    ______ ____
ROOT
ATOM      1  O   UNL     1     106.567 125.358 146.305  0.00  0.00    +0.000 OA
ATOM      2  O   UNL     1     105.908 127.890 145.069  0.00  0.00    +0.000 OA
ATOM      3  O   UNL     1     105.551 125.458 143.610  0.00  0.00    +0.000 OA
ATOM      4  O   UNL     1     106.414 127.882 146.421  0.00  0.00    +0.000 OA
ATOM      5  C   UNL     1     106.232 126.638 145.677  0.00  0.00    +0.000 A 
ATOM      6  C   UNL     1     106.281 125.816 145.637  0.00  0.00    +0.000 A 
ATOM      7  C   UNL     1     106.805 125.761 147.025  0.00  0.00    +0.000 A 
ATOM      8  C   UNL     1     106.054 125.422 144.947  0.00  0.00    +0.000 A 
ATOM      9  C   UNL     1     105.957 127.067 145.029  0.00  0.00    +0.000 A 
ATOM     10  C   UNL     1     106.466 127.059 146.389  0.00  0.00    +0.000 A 
ATOM     11  C   UNL     1     106.754 126.618 147.068  0.00  0.00    +0.000 A 
ATOM     12  C   UNL     1     105.730 126.675 144.340  0.00  0.00    +0.000 A 
ATOM     13  C   UNL     1     105.779 125.852 144.299  0.00  0.00    +0.000 A 
ENDROOT
BRANCH   7  16
ATOM     14  O   UNL     1     108.423 125.503 147.217  0.00  0.00    +0.000 OA
ATOM     15  O   UNL     1     107.904 124.031 149.611  0.00  0.00    +0.000 OA
ATOM     16  C   UNL     1     107.080 125.328 147.672  0.00  0.00    +0.000 A 
ATOM     17  C   UNL     1     107.889 125.199 147.767  0.00  0.00    +0.000 A 
ATOM     18  C   UNL     1     106.546 125.025 148.223  0.00  0.00    +0.000 A 
ATOM     19  C   UNL     1     106.820 124.593 148.868  0.00  0.00    +0.000 A 
ATOM     20  C   UNL     1     108.164 124.767 148.414  0.00  0.00    +0.000 A 
ATOM     21  C   UNL     1     107.629 124.464 148.964  0.00  0.00    +0.000 A 
BRANCH  19  22
ATOM     22  O   UNL     1     106.285 124.290 149.420  0.00  0.00    +0.000 OA
ATOM     23  C   UNL     1     105.603 124.713 149.608  0.00  0.00    +0.000 C 
ENDBRANCH  19  22
ENDBRANCH   7  16
BRANCH   8  24
ATOM     24  O   UNL     1     106.103 124.600 144.907  0.00  0.00    +0.000 OA
ATOM     25  C   UNL     1     105.424 124.153 144.769  0.00  0.00    +0.000 C 
ENDBRANCH   8  24
BRANCH  12  26
ATOM     26  O   UNL     1     105.454 127.104 143.691  0.00  0.00    +0.000 OA
ATOM     27  C   UNL     1     105.972 127.316 143.086  0.00  0.00    +0.000 C 
ENDBRANCH  12  26
TORSDOF 4
ENDMDL
MODEL 3
REMARK VINA RESULT:      -8.3     11.316     12.930
REMARK  Name = 44258656
REMARK  4 active torsions:
REMARK  status: ('A' for Active; 'I' for Inactive)
REMARK    1  A    between atoms: O_2  and  C_13
REMARK    2  A    between atoms: O_3  and  C_18
REMARK    3  A    between atoms: O_7  and  C_22
REMARK    4  A    between atoms: C_12  and  C_15
REMARK                            x       y       z     vdW  Elec       q    Type
REMARK                         _______ _______ _______ _____ _____    ______ ____
ROOT
ATOM      1  O   UNL     1     110.532 127.377 135.900  0.00  0.00    +0.000 OA
ATOM      2  O   UNL     1     107.963 128.697 135.726  0.00  0.00    +0.000 OA
ATOM      3  O   UNL     1     110.360 130.175 135.238  0.00  0.00    +0.000 OA
ATOM      4  O   UNL     1     108.006 127.294 136.060  0.00  0.00    +0.000 OA
ATOM      5  C   UNL     1     109.232 128.047 135.811  0.00  0.00    +0.000 A 
ATOM      6  C   UNL     1     110.055 128.077 135.758  0.00  0.00    +0.000 A 
ATOM      7  C   UNL     1     110.146 126.635 136.100  0.00  0.00    +0.000 A 
ATOM      8  C   UNL     1     110.431 128.787 135.567  0.00  0.00    +0.000 A 
ATOM      9  C   UNL     1     108.786 128.727 135.673  0.00  0.00    +0.000 A 
ATOM     10  C   UNL     1     108.829 127.315 136.009  0.00  0.00    +0.000 A 
ATOM     11  C   UNL     1     109.290 126.604 136.155  0.00  0.00    +0.000 A 
ATOM     12  C   UNL     1     109.161 129.436 135.482  0.00  0.00    +0.000 A 
ATOM     13  C   UNL     1     109.984 129.466 135.429  0.00  0.00    +0.000 A 
ENDROOT
BRANCH   7  16
ATOM     14  O   UNL     1     110.464 125.589 134.863  0.00  0.00    +0.000 OA
ATOM     15  O   UNL     1     111.947 123.926 136.652  0.00  0.00    +0.000 OA
ATOM     16  C   UNL     1     110.597 125.957 136.237  0.00  0.00    +0.000 A 
ATOM     17  C   UNL     1     110.755 125.434 135.619  0.00  0.00    +0.000 A 
ATOM     18  C   UNL     1     110.888 125.803 136.994  0.00  0.00    +0.000 A 
ATOM     19  C   UNL     1     111.338 125.126 137.132  0.00  0.00    +0.000 A 
ATOM     20  C   UNL     1     111.206 124.757 135.757  0.00  0.00    +0.000 A 
ATOM     21  C   UNL     1     111.497 124.603 136.514  0.00  0.00    +0.000 A 
BRANCH  19  22
ATOM     22  O   UNL     1     111.630 124.971 137.889  0.00  0.00    +0.000 OA
ATOM     23  C   UNL     1     111.872 125.594 138.372  0.00  0.00    +0.000 C 
ENDBRANCH  19  22
ENDBRANCH   7  16
BRANCH   8  24
ATOM     24  O   UNL     1     111.254 128.817 135.514  0.00  0.00    +0.000 OA
ATOM     25  C   UNL     1     111.614 129.027 134.803  0.00  0.00    +0.000 C 
ENDBRANCH   8  24
BRANCH  12  26
ATOM     26  O   UNL     1     108.714 130.116 135.343  0.00  0.00    +0.000 OA
ATOM     27  C   UNL     1     108.538 130.628 135.965  0.00  0.00    +0.000 C 
ENDBRANCH  12  26
TORSDOF 4
ENDMDL
MODEL 4
REMARK VINA RESULT:      -8.1      0.896      2.014
REMARK  Name = 44258656
REMARK  4 active torsions:
REMARK  status: ('A' for Active; 'I' for Inactive)
REMARK    1  A    between atoms: O_2  and  C_13
REMARK    2  A    between atoms: O_3  and  C_18
REMARK    3  A    between atoms: O_7  and  C_22
REMARK    4  A    between atoms: C_12  and  C_15
REMARK                            x       y       z     vdW  Elec       q    Type
REMARK                         _______ _______ _______ _____ _____    ______ ____
ROOT
ATOM      1  O   UNL     1     104.572 124.678 145.840  0.00  0.00    +0.000 OA
ATOM      2  O   UNL     1     106.748 125.248 147.660  0.00  0.00    +0.000 OA
ATOM      3  O   UNL     1     106.781 126.335 145.018  0.00  0.00    +0.000 OA
ATOM      4  O   UNL     1     105.660 124.413 148.111  0.00  0.00    +0.000 OA
ATOM      5  C   UNL     1     105.675 124.968 146.760  0.00  0.00    +0.000 A 
ATOM      6  C   UNL     1     105.322 125.056 146.019  0.00  0.00    +0.000 A 
ATOM      7  C   UNL     1     104.183 124.202 146.441  0.00  0.00    +0.000 A 
ATOM      8  C   UNL     1     105.691 125.512 145.438  0.00  0.00    +0.000 A 
ATOM      9  C   UNL     1     106.396 125.336 146.919  0.00  0.00    +0.000 A 
ATOM     10  C   UNL     1     105.301 124.496 147.373  0.00  0.00    +0.000 A 
ATOM     11  C   UNL     1     104.550 124.110 147.212  0.00  0.00    +0.000 A 
ATOM     12  C   UNL     1     106.764 125.791 146.339  0.00  0.00    +0.000 A 
ATOM     13  C   UNL     1     106.412 125.879 145.599  0.00  0.00    +0.000 A 
ENDROOT
BRANCH   7  16
ATOM     14  O   UNL     1     104.154 122.740 145.677  0.00  0.00    +0.000 OA
ATOM     15  O   UNL     1     101.298 122.739 145.787  0.00  0.00    +0.000 OA
ATOM     16  C   UNL     1     103.461 123.836 146.277  0.00  0.00    +0.000 A 
ATOM     17  C   UNL     1     103.448 123.105 145.895  0.00  0.00    +0.000 A 
ATOM     18  C   UNL     1     102.755 124.201 146.496  0.00  0.00    +0.000 A 
ATOM     19  C   UNL     1     102.034 123.836 146.333  0.00  0.00    +0.000 A 
ATOM     20  C   UNL     1     102.726 122.739 145.732  0.00  0.00    +0.000 A 
ATOM     21  C   UNL     1     102.020 123.105 145.951  0.00  0.00    +0.000 A 
BRANCH  19  22
ATOM     22  O   UNL     1     101.327 124.202 146.551  0.00  0.00    +0.000 OA
ATOM     23  C   UNL     1     101.277 124.607 147.268  0.00  0.00    +0.000 C 
ENDBRANCH  19  22
ENDBRANCH   7  16
BRANCH   8  24
ATOM     24  O   UNL     1     105.339 125.600 144.697  0.00  0.00    +0.000 OA
ATOM     25  C   UNL     1     105.753 125.390 144.016  0.00  0.00    +0.000 C 
ENDBRANCH   8  24
BRANCH  12  26
ATOM     26  O   UNL     1     107.486 126.159 146.499  0.00  0.00    +0.000 OA
ATOM     27  C   UNL     1     107.500 126.929 146.794  0.00  0.00    +0.000 C 
ENDBRANCH  12  26
TORSDOF 4
ENDMDL
MODEL 5
REMARK VINA RESULT:      -8.0      1.108      4.398
REMARK  Name = 44258656
REMARK  4 active torsions:
REMARK  status: ('A' for Active; 'I' for Inactive)
REMARK    1  A    between atoms: O_2  and  C_13
REMARK    2  A    between atoms: O_3  and  C_18
REMARK    3  A    between atoms: O_7  and  C_22
REMARK    4  A    between atoms: C_12  and  C_15
REMARK                            x       y       z     vdW  Elec       q    Type
REMARK                         _______ _______ _______ _____ _____    ______ ____
ROOT
ATOM      1  O   UNL     1     104.590 124.883 146.935  0.00  0.00    +0.000 OA
ATOM      2  O   UNL     1     103.224 122.953 145.267  0.00  0.00    +0.000 OA
ATOM      3  O   UNL     1     102.120 123.679 147.801  0.00  0.00    +0.000 OA
ATOM      4  O   UNL     1     104.459 123.533 144.797  0.00  0.00    +0.000 OA
ATOM      5  C   UNL     1     103.897 123.906 146.092  0.00  0.00    +0.000 A 
ATOM      6  C   UNL     1     103.937 124.345 146.790  0.00  0.00    +0.000 A 
ATOM      7  C   UNL     1     105.210 124.967 146.345  0.00  0.00    +0.000 A 
ATOM      8  C   UNL     1     103.344 124.269 147.360  0.00  0.00    +0.000 A 
ATOM      9  C   UNL     1     103.264 123.392 145.965  0.00  0.00    +0.000 A 
ATOM     10  C   UNL     1     104.507 123.976 145.492  0.00  0.00    +0.000 A 
ATOM     11  C   UNL     1     105.168 124.510 145.619  0.00  0.00    +0.000 A 
ATOM     12  C   UNL     1     102.672 123.316 146.533  0.00  0.00    +0.000 A 
ATOM     13  C   UNL     1     102.712 123.755 147.231  0.00  0.00    +0.000 A 
ENDROOT
BRANCH   7  16
ATOM     14  O   UNL     1     105.102 126.542 145.867  0.00  0.00    +0.000 OA
ATOM     15  O   UNL     1     107.734 127.026 146.872  0.00  0.00    +0.000 OA
ATOM     16  C   UNL     1     105.841 125.482 146.477  0.00  0.00    +0.000 A 
ATOM     17  C   UNL     1     105.787 126.270 146.237  0.00  0.00    +0.000 A 
ATOM     18  C   UNL     1     106.526 125.209 146.847  0.00  0.00    +0.000 A 
ATOM     19  C   UNL     1     107.156 125.724 146.979  0.00  0.00    +0.000 A 
ATOM     20  C   UNL     1     106.418 126.785 146.369  0.00  0.00    +0.000 A 
ATOM     21  C   UNL     1     107.102 126.511 146.740  0.00  0.00    +0.000 A 
BRANCH  19  22
ATOM     22  O   UNL     1     107.841 125.450 147.350  0.00  0.00    +0.000 OA
ATOM     23  C   UNL     1     107.786 125.006 148.043  0.00  0.00    +0.000 C 
ENDBRANCH  19  22
ENDBRANCH   7  16
BRANCH   8  24
ATOM     24  O   UNL     1     103.384 124.708 148.057  0.00  0.00    +0.000 OA
ATOM     25  C   UNL     1     103.416 124.322 148.785  0.00  0.00    +0.000 C 
ENDBRANCH   8  24
BRANCH  12  26
ATOM     26  O   UNL     1     102.039 122.802 146.406  0.00  0.00    +0.000 OA
ATOM     27  C   UNL     1     101.342 123.081 146.067  0.00  0.00    +0.000 C 
ENDBRANCH  12  26
TORSDOF 4
ENDMDL
MODEL 6
REMARK VINA RESULT:      -8.0     10.809     12.786
REMARK  Name = 44258656
REMARK  4 active torsions:
REMARK  status: ('A' for Active; 'I' for Inactive)
REMARK    1  A    between atoms: O_2  and  C_13
REMARK    2  A    between atoms: O_3  and  C_18
REMARK    3  A    between atoms: O_7  and  C_22
REMARK    4  A    between atoms: C_12  and  C_15
REMARK                            x       y       z     vdW  Elec       q    Type
REMARK                         _______ _______ _______ _____ _____    ______ ____
ROOT
ATOM      1  O   UNL     1     111.272 126.050 136.956  0.00  0.00    +0.000 OA
ATOM      2  O   UNL     1     109.053 126.472 135.147  0.00  0.00    +0.000 OA
ATOM      3  O   UNL     1     109.263 128.034 137.531  0.00  0.00    +0.000 OA
ATOM      4  O   UNL     1     110.038 125.468 134.823  0.00  0.00    +0.000 OA
ATOM      5  C   UNL     1     110.148 126.265 136.042  0.00  0.00    +0.000 A 
ATOM      6  C   UNL     1     110.548 126.457 136.737  0.00  0.00    +0.000 A 
ATOM      7  C   UNL     1     111.584 125.435 136.443  0.00  0.00    +0.000 A 
ATOM      8  C   UNL     1     110.253 127.046 137.234  0.00  0.00    +0.000 A 
ATOM      9  C   UNL     1     109.453 126.663 135.843  0.00  0.00    +0.000 A 
ATOM     10  C   UNL     1     110.444 125.653 135.516  0.00  0.00    +0.000 A 
ATOM     11  C   UNL     1     111.168 125.235 135.719  0.00  0.00    +0.000 A 
ATOM     12  C   UNL     1     109.158 127.252 136.339  0.00  0.00    +0.000 A 
ATOM     13  C   UNL     1     109.558 127.444 137.034  0.00  0.00    +0.000 A 
ENDROOT
BRANCH   7  16
ATOM     14  O   UNL     1     111.511 123.998 137.251  0.00  0.00    +0.000 OA
ATOM     15  O   UNL     1     114.365 123.854 137.252  0.00  0.00    +0.000 OA
ATOM     16  C   UNL     1     112.280 125.039 136.645  0.00  0.00    +0.000 A 
ATOM     17  C   UNL     1     112.243 124.321 137.050  0.00  0.00    +0.000 A 
ATOM     18  C   UNL     1     113.012 125.362 136.443  0.00  0.00    +0.000 A 
ATOM     19  C   UNL     1     113.706 124.967 136.645  0.00  0.00    +0.000 A 
ATOM     20  C   UNL     1     112.938 123.926 137.252  0.00  0.00    +0.000 A 
ATOM     21  C   UNL     1     113.670 124.249 137.050  0.00  0.00    +0.000 A 
BRANCH  19  22
ATOM     22  O   UNL     1     114.439 125.291 136.443  0.00  0.00    +0.000 OA
ATOM     23  C   UNL     1     114.527 126.109 136.389  0.00  0.00    +0.000 C 
ENDBRANCH  19  22
ENDBRANCH   7  16
BRANCH   8  24
ATOM     24  O   UNL     1     110.653 127.238 137.930  0.00  0.00    +0.000 OA
ATOM     25  C   UNL     1     110.277 127.151 138.658  0.00  0.00    +0.000 C 
ENDBRANCH   8  24
BRANCH  12  26
ATOM     26  O   UNL     1     108.463 127.650 136.140  0.00  0.00    +0.000 OA
ATOM     27  C   UNL     1     108.500 128.382 135.762  0.00  0.00    +0.000 C 
ENDBRANCH  12  26
TORSDOF 4
ENDMDL
MODEL 7
REMARK VINA RESULT:      -8.0     10.718     12.392
REMARK  Name = 44258656
REMARK  4 active torsions:
REMARK  status: ('A' for Active; 'I' for Inactive)
REMARK    1  A    between atoms: O_2  and  C_13
REMARK    2  A    between atoms: O_3  and  C_18
REMARK    3  A    between atoms: O_7  and  C_22
REMARK    4  A    between atoms: C_12  and  C_15
REMARK                            x       y       z     vdW  Elec       q    Type
REMARK                         _______ _______ _______ _____ _____    ______ ____
ROOT
ATOM      1  O   UNL     1     110.303 126.855 136.739  0.00  0.00    +0.000 OA
ATOM      2  O   UNL     1     111.276 124.351 135.663  0.00  0.00    +0.000 OA
ATOM      3  O   UNL     1     111.574 124.916 138.449  0.00  0.00    +0.000 OA
ATOM      4  O   UNL     1     110.645 125.296 134.773  0.00  0.00    +0.000 OA
ATOM      5  C   UNL     1     110.796 125.587 136.196  0.00  0.00    +0.000 A 
ATOM      6  C   UNL     1     110.686 126.093 136.839  0.00  0.00    +0.000 A 
ATOM      7  C   UNL     1     110.031 127.094 135.959  0.00  0.00    +0.000 A 
ATOM      8  C   UNL     1     110.945 125.869 137.590  0.00  0.00    +0.000 A 
ATOM      9  C   UNL     1     111.165 124.857 136.305  0.00  0.00    +0.000 A 
ATOM     10  C   UNL     1     110.531 125.808 135.410  0.00  0.00    +0.000 A 
ATOM     11  C   UNL     1     110.145 126.568 135.290  0.00  0.00    +0.000 A 
ATOM     12  C   UNL     1     111.424 124.634 137.055  0.00  0.00    +0.000 A 
ATOM     13  C   UNL     1     111.314 125.140 137.698  0.00  0.00    +0.000 A 
ENDROOT
BRANCH   7  16
ATOM     14  O   UNL     1     108.392 127.220 136.103  0.00  0.00    +0.000 OA
ATOM     15  O   UNL     1     108.558 130.017 135.540  0.00  0.00    +0.000 OA
ATOM     16  C   UNL     1     109.662 127.825 135.854  0.00  0.00    +0.000 A 
ATOM     17  C   UNL     1     108.842 127.888 135.926  0.00  0.00    +0.000 A 
ATOM     18  C   UNL     1     110.113 128.493 135.678  0.00  0.00    +0.000 A 
ATOM     19  C   UNL     1     109.745 129.223 135.573  0.00  0.00    +0.000 A 
ATOM     20  C   UNL     1     108.474 128.618 135.821  0.00  0.00    +0.000 A 
ATOM     21  C   UNL     1     108.926 129.286 135.645  0.00  0.00    +0.000 A 
BRANCH  19  22
ATOM     22  O   UNL     1     110.196 129.892 135.396  0.00  0.00    +0.000 OA
ATOM     23  C   UNL     1     110.937 129.993 135.745  0.00  0.00    +0.000 C 
ENDBRANCH  19  22
ENDBRANCH   7  16
BRANCH   8  24
ATOM     24  O   UNL     1     110.835 126.375 138.232  0.00  0.00    +0.000 OA
ATOM     25  C   UNL     1     110.383 126.131 138.877  0.00  0.00    +0.000 C 
ENDBRANCH   8  24
BRANCH  12  26
ATOM     26  O   UNL     1     111.794 123.904 137.165  0.00  0.00    +0.000 OA
ATOM     27  C   UNL     1     112.608 123.832 137.055  0.00  0.00    +0.000 C 
ENDBRANCH  12  26
TORSDOF 4
ENDMDL
MODEL 8
REMARK VINA RESULT:      -7.9     12.347     14.070
REMARK  Name = 44258656
REMARK  4 active torsions:
REMARK  status: ('A' for Active; 'I' for Inactive)
REMARK    1  A    between atoms: O_2  and  C_13
REMARK    2  A    between atoms: O_3  and  C_18
REMARK    3  A    between atoms: O_7  and  C_22
REMARK    4  A    between atoms: C_12  and  C_15
REMARK                            x       y       z     vdW  Elec       q    Type
REMARK                         _______ _______ _______ _____ _____    ______ ____
ROOT
ATOM      1  O   UNL     1     113.381 126.819 136.607  0.00  0.00    +0.000 OA
ATOM      2  O   UNL     1     111.184 125.029 136.019  0.00  0.00    +0.000 OA
ATOM      3  O   UNL     1     113.669 123.973 136.957  0.00  0.00    +0.000 OA
ATOM      4  O   UNL     1     110.999 126.448 135.831  0.00  0.00    +0.000 OA
ATOM      5  C   UNL     1     112.270 125.911 136.310  0.00  0.00    +0.000 A 
ATOM      6  C   UNL     1     113.046 126.029 136.563  0.00  0.00    +0.000 A 
ATOM      7  C   UNL     1     112.900 127.496 136.384  0.00  0.00    +0.000 A 
ATOM      8  C   UNL     1     113.513 125.383 136.779  0.00  0.00    +0.000 A 
ATOM      9  C   UNL     1     111.960 125.147 136.273  0.00  0.00    +0.000 A 
ATOM     10  C   UNL     1     111.775 126.575 136.083  0.00  0.00    +0.000 A 
ATOM     11  C   UNL     1     112.092 127.373 136.120  0.00  0.00    +0.000 A 
ATOM     12  C   UNL     1     112.426 124.502 136.488  0.00  0.00    +0.000 A 
ATOM     13  C   UNL     1     113.202 124.620 136.741  0.00  0.00    +0.000 A 
ENDROOT
BRANCH   7  16
ATOM     14  O   UNL     1     112.751 128.380 137.769  0.00  0.00    +0.000 OA
ATOM     15  O   UNL     1     114.155 130.544 136.538  0.00  0.00    +0.000 OA
ATOM     16  C   UNL     1     113.214 128.258 136.423  0.00  0.00    +0.000 A 
ATOM     17  C   UNL     1     113.139 128.700 137.116  0.00  0.00    +0.000 A 
ATOM     18  C   UNL     1     113.602 128.578 135.769  0.00  0.00    +0.000 A 
ATOM     19  C   UNL     1     113.915 129.339 135.807  0.00  0.00    +0.000 A 
ATOM     20  C   UNL     1     113.453 129.462 137.154  0.00  0.00    +0.000 A 
ATOM     21  C   UNL     1     113.841 129.782 136.500  0.00  0.00    +0.000 A 
BRANCH  19  22
ATOM     22  O   UNL     1     114.304 129.660 135.153  0.00  0.00    +0.000 OA
ATOM     23  C   UNL     1     114.809 129.188 134.702  0.00  0.00    +0.000 C 
ENDBRANCH  19  22
ENDBRANCH   7  16
BRANCH   8  24
ATOM     24  O   UNL     1     114.289 125.500 137.032  0.00  0.00    +0.000 OA
ATOM     25  C   UNL     1     114.915 125.171 136.609  0.00  0.00    +0.000 C 
ENDBRANCH   8  24
BRANCH  12  26
ATOM     26  O   UNL     1     112.116 123.738 136.450  0.00  0.00    +0.000 OA
ATOM     27  C   UNL     1     111.843 123.369 137.135  0.00  0.00    +0.000 C 
ENDBRANCH  12  26
TORSDOF 4
ENDMDL
MODEL 9
REMARK VINA RESULT:      -7.9     12.355     14.101
REMARK  Name = 44258656
REMARK  4 active torsions:
REMARK  status: ('A' for Active; 'I' for Inactive)
REMARK    1  A    between atoms: O_2  and  C_13
REMARK    2  A    between atoms: O_3  and  C_18
REMARK    3  A    between atoms: O_7  and  C_22
REMARK    4  A    between atoms: C_12  and  C_15
REMARK                            x       y       z     vdW  Elec       q    Type
REMARK                         _______ _______ _______ _____ _____    ______ ____
ROOT
ATOM      1  O   UNL     1     112.611 126.904 136.285  0.00  0.00    +0.000 OA
ATOM      2  O   UNL     1     113.644 124.266 136.874  0.00  0.00    +0.000 OA
ATOM      3  O   UNL     1     110.951 124.571 135.966  0.00  0.00    +0.000 OA
ATOM      4  O   UNL     1     114.508 125.410 137.047  0.00  0.00    +0.000 OA
ATOM      5  C   UNL     1     113.132 125.568 136.583  0.00  0.00    +0.000 A 
ATOM      6  C   UNL     1     112.512 126.053 136.334  0.00  0.00    +0.000 A 
ATOM      7  C   UNL     1     113.366 127.257 136.497  0.00  0.00    +0.000 A 
ATOM      8  C   UNL     1     111.785 125.720 136.128  0.00  0.00    +0.000 A 
ATOM      9  C   UNL     1     113.024 124.751 136.626  0.00  0.00    +0.000 A 
ATOM     10  C   UNL     1     113.893 125.902 136.799  0.00  0.00    +0.000 A 
ATOM     11  C   UNL     1     114.011 126.752 136.756  0.00  0.00    +0.000 A 
ATOM     12  C   UNL     1     112.298 124.419 136.421  0.00  0.00    +0.000 A 
ATOM     13  C   UNL     1     111.678 124.904 136.172  0.00  0.00    +0.000 A 
ENDROOT
BRANCH   7  16
ATOM     14  O   UNL     1     113.038 128.203 137.808  0.00  0.00    +0.000 OA
ATOM     15  O   UNL     1     113.781 130.525 136.317  0.00  0.00    +0.000 OA
ATOM     16  C   UNL     1     113.470 128.075 136.453  0.00  0.00    +0.000 A 
ATOM     17  C   UNL     1     113.306 128.547 137.108  0.00  0.00    +0.000 A 
ATOM     18  C   UNL     1     113.737 128.418 135.752  0.00  0.00    +0.000 A 
ATOM     19  C   UNL     1     113.841 129.235 135.707  0.00  0.00    +0.000 A 
ATOM     20  C   UNL     1     113.409 129.365 137.063  0.00  0.00    +0.000 A 
ATOM     21  C   UNL     1     113.677 129.708 136.362  0.00  0.00    +0.000 A 
BRANCH  19  22
ATOM     22  O   UNL     1     114.109 129.579 135.006  0.00  0.00    +0.000 OA
ATOM     23  C   UNL     1     114.761 129.261 134.613  0.00  0.00    +0.000 C 
ENDBRANCH  19  22
ENDBRANCH   7  16
BRANCH   8  24
ATOM     24  O   UNL     1     111.165 126.205 135.880  0.00  0.00    +0.000 OA
ATOM     25  C   UNL     1     110.819 126.085 135.141  0.00  0.00    +0.000 C 
ENDBRANCH   8  24
BRANCH  12  26
ATOM     26  O   UNL     1     112.190 123.602 136.464  0.00  0.00    +0.000 OA
ATOM     27  C   UNL     1     111.920 123.257 137.162  0.00  0.00    +0.000 C 
ENDBRANCH  12  26
TORSDOF 4
ENDMDL
MODEL 10
REMARK VINA RESULT:      -7.8      9.006     10.182
REMARK  Name = 44258656
REMARK  4 active torsions:
REMARK  status: ('A' for Active; 'I' for Inactive)
REMARK    1  A    between atoms: O_2  and  C_13
REMARK    2  A    between atoms: O_3  and  C_18
REMARK    3  A    between atoms: O_7  and  C_22
REMARK    4  A    between atoms: C_12  and  C_15
REMARK                            x       y       z     vdW  Elec       q    Type
REMARK                         _______ _______ _______ _____ _____    ______ ____
ROOT
ATOM      1  O   UNL     1     102.971 131.959 141.258  0.00  0.00    +0.000 OA
ATOM      2  O   UNL     1     100.834 133.698 142.141  0.00  0.00    +0.000 OA
ATOM      3  O   UNL     1     103.139 134.808 140.868  0.00  0.00    +0.000 OA
ATOM      4  O   UNL     1     100.712 132.276 142.355  0.00  0.00    +0.000 OA
ATOM      5  C   UNL     1     101.891 132.841 141.704  0.00  0.00    +0.000 A 
ATOM      6  C   UNL     1     102.627 132.740 141.346  0.00  0.00    +0.000 A 
ATOM      7  C   UNL     1     102.543 131.271 141.546  0.00  0.00    +0.000 A 
ATOM      8  C   UNL     1     103.044 133.396 141.067  0.00  0.00    +0.000 A 
ATOM      9  C   UNL     1     101.571 133.597 141.783  0.00  0.00    +0.000 A 
ATOM     10  C   UNL     1     101.448 132.167 141.999  0.00  0.00    +0.000 A 
ATOM     11  C   UNL     1     101.776 131.376 141.919  0.00  0.00    +0.000 A 
ATOM     12  C   UNL     1     101.986 134.253 141.505  0.00  0.00    +0.000 A 
ATOM     13  C   UNL     1     102.723 134.152 141.147  0.00  0.00    +0.000 A 
ENDROOT
BRANCH   7  16
ATOM     14  O   UNL     1     103.472 130.637 142.754  0.00  0.00    +0.000 OA
ATOM     15  O   UNL     1     103.835 128.253 141.221  0.00  0.00    +0.000 OA
ATOM     16  C   UNL     1     102.866 130.516 141.465  0.00  0.00    +0.000 A 
ATOM     17  C   UNL     1     103.331 130.200 142.069  0.00  0.00    +0.000 A 
ATOM     18  C   UNL     1     102.725 130.079 140.780  0.00  0.00    +0.000 A 
ATOM     19  C   UNL     1     103.048 129.325 140.699  0.00  0.00    +0.000 A 
ATOM     20  C   UNL     1     103.654 129.445 141.988  0.00  0.00    +0.000 A 
ATOM     21  C   UNL     1     103.512 129.008 141.302  0.00  0.00    +0.000 A 
BRANCH  19  22
ATOM     22  O   UNL     1     102.907 128.887 140.013  0.00  0.00    +0.000 OA
ATOM     23  C   UNL     1     102.267 129.076 139.527  0.00  0.00    +0.000 C 
ENDBRANCH  19  22
ENDBRANCH   7  16
BRANCH   8  24
ATOM     24  O   UNL     1     103.780 133.296 140.709  0.00  0.00    +0.000 OA
ATOM     25  C   UNL     1     103.893 133.529 139.927  0.00  0.00    +0.000 C 
ENDBRANCH   8  24
BRANCH  12  26
ATOM     26  O   UNL     1     101.666 135.009 141.584  0.00  0.00    +0.000 OA
ATOM     27  C   UNL     1     101.867 135.477 142.232  0.00  0.00    +0.000 C 
ENDBRANCH  12  26
TORSDOF 4
ENDMDL
