MODEL 1
REMARK VINA RESULT:      -7.8      0.000      0.000
REMARK  Name = 44259687
REMARK  7 active torsions:
REMARK  status: ('A' for Active; 'I' for Inactive)
REMARK    1  A    between atoms: O_2  and  C_15
REMARK    2  A    between atoms: O_2  and  C_18
REMARK    3  A    between atoms: O_3  and  C_17
REMARK    4  A    between atoms: O_4  and  C_22
REMARK    5  A    between atoms: C_9  and  C_10
REMARK    6  A    between atoms: C_9  and  C_15
REMARK    7  A    between atoms: C_11  and  C_12
REMARK                            x       y       z     vdW  Elec       q    Type
REMARK                         _______ _______ _______ _____ _____    ______ ____
ROOT
ATOM      1  O   UNL     1     105.098 128.174 143.885  0.00  0.00    +0.000 OA
ATOM      2  O   UNL     1     104.827 128.114 141.009  0.00  0.00    +0.000 OA
ATOM      3  O   UNL     1     105.708 127.200 141.693  0.00  0.00    +0.000 OA
ATOM      4  O   UNL     1     103.299 130.050 142.573  0.00  0.00    +0.000 OA
ATOM      5  C   UNL     1     105.640 127.552 143.846  0.00  0.00    +0.000 A 
ATOM      6  C   UNL     1     104.963 128.145 142.463  0.00  0.00    +0.000 A 
ATOM      7  C   UNL     1     104.760 128.469 143.193  0.00  0.00    +0.000 A 
ATOM      8  C   UNL     1     105.844 127.228 143.115  0.00  0.00    +0.000 A 
ATOM      9  C   UNL     1     105.505 127.524 142.424  0.00  0.00    +0.000 A 
ATOM     10  C   UNL     1     104.617 128.445 141.735  0.00  0.00    +0.000 A 
ATOM     11  C   UNL     1     104.196 129.116 143.247  0.00  0.00    +0.000 A 
ATOM     12  C   UNL     1     103.841 129.429 142.530  0.00  0.00    +0.000 A 
ATOM     13  C   UNL     1     104.052 129.091 141.769  0.00  0.00    +0.000 A 
ENDROOT
BRANCH   5  14
ATOM     14  C   UNL     1     105.978 127.256 144.538  0.00  0.00    +0.000 A 
ATOM     15  C   UNL     1     106.654 126.664 145.922  0.00  0.00    +0.000 A 
ATOM     16  C   UNL     1     106.583 127.674 144.913  0.00  0.00    +0.000 A 
ATOM     17  C   UNL     1     106.920 127.377 145.605  0.00  0.00    +0.000 A 
ATOM     18  C   UNL     1     105.711 126.542 144.855  0.00  0.00    +0.000 A 
ATOM     19  C   UNL     1     106.049 126.247 145.547  0.00  0.00    +0.000 A 
BRANCH  17  20
ATOM     20  O   UNL     1     107.525 127.794 145.981  0.00  0.00    +0.000 OA
ATOM     21  C   UNL     1     107.606 128.606 145.856  0.00  0.00    +0.000 C 
ENDBRANCH  17  20
BRANCH  15  22
ATOM     22  O   UNL     1     106.991 126.367 146.614  0.00  0.00    +0.000 OA
BRANCH  22  24
ATOM     23  O   UNL     1     107.005 125.038 146.090  0.00  0.00    +0.000 OA
ATOM     24  C   UNL     1     107.038 125.553 146.734  0.00  0.00    +0.000 C 
BRANCH  24  25
ATOM     25  C   UNL     1     107.118 125.252 147.498  0.00  0.00    +0.000 C 
ATOM     26  C   UNL     1     106.448 125.119 147.961  0.00  0.00    +0.000 C 
BRANCH  25  27
ATOM     27  C   UNL     1     107.867 125.084 147.800  0.00  0.00    +0.000 C 
ATOM     28  C   UNL     1     107.944 124.725 148.539  0.00  0.00    +0.000 C 
ENDBRANCH  25  27
ENDBRANCH  24  25
ENDBRANCH  22  24
ENDBRANCH  15  22
ENDBRANCH   5  14
BRANCH   8  29
ATOM     29  O   UNL     1     106.385 126.607 143.077  0.00  0.00    +0.000 OA
ATOM     30  C   UNL     1     106.862 126.517 142.410  0.00  0.00    +0.000 C 
ENDBRANCH   8  29
TORSDOF 7
ENDMDL
MODEL 2
REMARK VINA RESULT:      -7.7      9.684     11.230
REMARK  Name = 44259687
REMARK  7 active torsions:
REMARK  status: ('A' for Active; 'I' for Inactive)
REMARK    1  A    between atoms: O_2  and  C_15
REMARK    2  A    between atoms: O_2  and  C_18
REMARK    3  A    between atoms: O_3  and  C_17
REMARK    4  A    between atoms: O_4  and  C_22
REMARK    5  A    between atoms: C_9  and  C_10
REMARK    6  A    between atoms: C_9  and  C_15
REMARK    7  A    between atoms: C_11  and  C_12
REMARK                            x       y       z     vdW  Elec       q    Type
REMARK                         _______ _______ _______ _____ _____    ______ ____
ROOT
ATOM      1  O   UNL     1     113.095 126.706 136.755  0.00  0.00    +0.000 OA
ATOM      2  O   UNL     1     112.352 123.949 136.312  0.00  0.00    +0.000 OA
ATOM      3  O   UNL     1     111.451 125.026 135.982  0.00  0.00    +0.000 OA
ATOM      4  O   UNL     1     114.967 124.586 137.446  0.00  0.00    +0.000 OA
ATOM      5  C   UNL     1     112.364 126.950 136.458  0.00  0.00    +0.000 A 
ATOM      6  C   UNL     1     112.728 125.342 136.536  0.00  0.00    +0.000 A 
ATOM      7  C   UNL     1     113.276 125.903 136.794  0.00  0.00    +0.000 A 
ATOM      8  C   UNL     1     111.816 126.390 136.200  0.00  0.00    +0.000 A 
ATOM      9  C   UNL     1     111.999 125.586 136.239  0.00  0.00    +0.000 A 
ATOM     10  C   UNL     1     112.906 124.502 136.572  0.00  0.00    +0.000 A 
ATOM     11  C   UNL     1     114.040 125.661 137.105  0.00  0.00    +0.000 A 
ATOM     12  C   UNL     1     114.236 124.826 137.148  0.00  0.00    +0.000 A 
ATOM     13  C   UNL     1     113.665 124.242 136.880  0.00  0.00    +0.000 A 
ENDROOT
BRANCH   5  14
ATOM     14  C   UNL     1     112.182 127.753 136.419  0.00  0.00    +0.000 A 
ATOM     15  C   UNL     1     111.819 129.361 136.343  0.00  0.00    +0.000 A 
ATOM     16  C   UNL     1     112.411 128.197 135.763  0.00  0.00    +0.000 A 
ATOM     17  C   UNL     1     112.229 129.001 135.725  0.00  0.00    +0.000 A 
ATOM     18  C   UNL     1     111.772 128.114 137.038  0.00  0.00    +0.000 A 
ATOM     19  C   UNL     1     111.590 128.917 137.000  0.00  0.00    +0.000 A 
BRANCH  17  20
ATOM     20  O   UNL     1     112.457 129.445 135.068  0.00  0.00    +0.000 OA
ATOM     21  C   UNL     1     113.125 129.227 134.634  0.00  0.00    +0.000 C 
ENDBRANCH  17  20
BRANCH  15  22
ATOM     22  O   UNL     1     111.637 130.165 136.305  0.00  0.00    +0.000 OA
BRANCH  22  24
ATOM     23  O   UNL     1     110.443 129.948 137.060  0.00  0.00    +0.000 OA
ATOM     24  C   UNL     1     110.997 130.464 136.731  0.00  0.00    +0.000 C 
BRANCH  24  25
ATOM     25  C   UNL     1     110.909 131.279 136.828  0.00  0.00    +0.000 C 
ATOM     26  C   UNL     1     111.448 131.698 137.291  0.00  0.00    +0.000 C 
BRANCH  25  27
ATOM     27  C   UNL     1     110.284 131.673 136.464  0.00  0.00    +0.000 C 
ATOM     28  C   UNL     1     110.190 132.486 136.571  0.00  0.00    +0.000 C 
ENDBRANCH  25  27
ENDBRANCH  24  25
ENDBRANCH  22  24
ENDBRANCH  15  22
ENDBRANCH   5  14
BRANCH   8  29
ATOM     29  O   UNL     1     111.086 126.633 135.904  0.00  0.00    +0.000 OA
ATOM     30  C   UNL     1     110.658 126.137 135.403  0.00  0.00    +0.000 C 
ENDBRANCH   8  29
TORSDOF 7
ENDMDL
MODEL 3
REMARK VINA RESULT:      -7.7      7.971      9.988
REMARK  Name = 44259687
REMARK  7 active torsions:
REMARK  status: ('A' for Active; 'I' for Inactive)
REMARK    1  A    between atoms: O_2  and  C_15
REMARK    2  A    between atoms: O_2  and  C_18
REMARK    3  A    between atoms: O_3  and  C_17
REMARK    4  A    between atoms: O_4  and  C_22
REMARK    5  A    between atoms: C_9  and  C_10
REMARK    6  A    between atoms: C_9  and  C_15
REMARK    7  A    between atoms: C_11  and  C_12
REMARK                            x       y       z     vdW  Elec       q    Type
REMARK                         _______ _______ _______ _____ _____    ______ ____
ROOT
ATOM      1  O   UNL     1     114.014 129.211 139.935  0.00  0.00    +0.000 OA
ATOM      2  O   UNL     1     112.860 130.661 142.153  0.00  0.00    +0.000 OA
ATOM      3  O   UNL     1     112.194 129.514 141.585  0.00  0.00    +0.000 OA
ATOM      4  O   UNL     1     115.416 131.518 141.028  0.00  0.00    +0.000 OA
ATOM      5  C   UNL     1     113.370 128.695 139.939  0.00  0.00    +0.000 A 
ATOM      6  C   UNL     1     113.444 129.929 141.032  0.00  0.00    +0.000 A 
ATOM      7  C   UNL     1     114.051 129.828 140.482  0.00  0.00    +0.000 A 
ATOM      8  C   UNL     1     112.763 128.796 140.489  0.00  0.00    +0.000 A 
ATOM      9  C   UNL     1     112.801 129.413 141.035  0.00  0.00    +0.000 A 
ATOM     10  C   UNL     1     113.471 130.568 141.606  0.00  0.00    +0.000 A 
ATOM     11  C   UNL     1     114.726 130.359 140.468  0.00  0.00    +0.000 A 
ATOM     12  C   UNL     1     114.771 131.003 141.035  0.00  0.00    +0.000 A 
ATOM     13  C   UNL     1     114.139 131.108 141.608  0.00  0.00    +0.000 A 
ENDROOT
BRANCH   5  14
ATOM     14  C   UNL     1     113.333 128.079 139.392  0.00  0.00    +0.000 A 
ATOM     15  C   UNL     1     113.260 126.844 138.299  0.00  0.00    +0.000 A 
ATOM     16  C   UNL     1     113.068 128.223 138.624  0.00  0.00    +0.000 A 
ATOM     17  C   UNL     1     113.032 127.605 138.078  0.00  0.00    +0.000 A 
ATOM     18  C   UNL     1     113.562 127.317 139.614  0.00  0.00    +0.000 A 
ATOM     19  C   UNL     1     113.525 126.700 139.067  0.00  0.00    +0.000 A 
BRANCH  17  20
ATOM     20  O   UNL     1     112.768 127.749 137.310  0.00  0.00    +0.000 OA
ATOM     21  C   UNL     1     112.493 128.499 137.102  0.00  0.00    +0.000 C 
ENDBRANCH  17  20
BRANCH  15  22
ATOM     22  O   UNL     1     113.224 126.227 137.753  0.00  0.00    +0.000 OA
BRANCH  22  24
ATOM     23  O   UNL     1     114.343 125.601 138.383  0.00  0.00    +0.000 OA
ATOM     24  C   UNL     1     113.777 125.616 137.783  0.00  0.00    +0.000 C 
BRANCH  24  25
ATOM     25  C   UNL     1     113.766 125.020 137.212  0.00  0.00    +0.000 C 
ATOM     26  C   UNL     1     114.396 124.943 136.685  0.00  0.00    +0.000 C 
BRANCH  25  27
ATOM     27  C   UNL     1     113.127 124.502 137.169  0.00  0.00    +0.000 C 
ATOM     28  C   UNL     1     113.106 123.920 136.585  0.00  0.00    +0.000 C 
ENDBRANCH  25  27
ENDBRANCH  24  25
ENDBRANCH  22  24
ENDBRANCH  15  22
ENDBRANCH   5  14
BRANCH   8  29
ATOM     29  O   UNL     1     112.120 128.280 140.492  0.00  0.00    +0.000 OA
ATOM     30  C   UNL     1     111.410 128.508 140.846  0.00  0.00    +0.000 C 
ENDBRANCH   8  29
TORSDOF 7
ENDMDL
MODEL 4
REMARK VINA RESULT:      -7.6      9.597     10.284
REMARK  Name = 44259687
REMARK  7 active torsions:
REMARK  status: ('A' for Active; 'I' for Inactive)
REMARK    1  A    between atoms: O_2  and  C_15
REMARK    2  A    between atoms: O_2  and  C_18
REMARK    3  A    between atoms: O_3  and  C_17
REMARK    4  A    between atoms: O_4  and  C_22
REMARK    5  A    between atoms: C_9  and  C_10
REMARK    6  A    between atoms: C_9  and  C_15
REMARK    7  A    between atoms: C_11  and  C_12
REMARK                            x       y       z     vdW  Elec       q    Type
REMARK                         _______ _______ _______ _____ _____    ______ ____
ROOT
ATOM      1  O   UNL     1     111.345 129.989 136.566  0.00  0.00    +0.000 OA
ATOM      2  O   UNL     1     110.922 132.350 138.177  0.00  0.00    +0.000 OA
ATOM      3  O   UNL     1     111.872 131.339 138.572  0.00  0.00    +0.000 OA
ATOM      4  O   UNL     1     109.410 131.987 135.705  0.00  0.00    +0.000 OA
ATOM      5  C   UNL     1     111.907 129.721 137.108  0.00  0.00    +0.000 A 
ATOM      6  C   UNL     1     111.135 131.157 137.362  0.00  0.00    +0.000 A 
ATOM      7  C   UNL     1     110.959 130.707 136.693  0.00  0.00    +0.000 A 
ATOM      8  C   UNL     1     112.083 130.171 137.777  0.00  0.00    +0.000 A 
ATOM      9  C   UNL     1     111.696 130.889 137.903  0.00  0.00    +0.000 A 
ATOM     10  C   UNL     1     110.740 131.907 137.505  0.00  0.00    +0.000 A 
ATOM     11  C   UNL     1     110.376 130.975 136.122  0.00  0.00    +0.000 A 
ATOM     12  C   UNL     1     109.971 131.722 136.249  0.00  0.00    +0.000 A 
ATOM     13  C   UNL     1     110.154 132.191 136.945  0.00  0.00    +0.000 A 
ENDROOT
BRANCH   5  14
ATOM     14  C   UNL     1     112.292 129.003 136.980  0.00  0.00    +0.000 A 
ATOM     15  C   UNL     1     113.063 127.566 136.726  0.00  0.00    +0.000 A 
ATOM     16  C   UNL     1     112.955 128.971 136.490  0.00  0.00    +0.000 A 
ATOM     17  C   UNL     1     113.340 128.252 136.363  0.00  0.00    +0.000 A 
ATOM     18  C   UNL     1     112.014 128.315 137.344  0.00  0.00    +0.000 A 
ATOM     19  C   UNL     1     112.400 127.597 137.216  0.00  0.00    +0.000 A 
BRANCH  17  20
ATOM     20  O   UNL     1     114.003 128.220 135.873  0.00  0.00    +0.000 OA
ATOM     21  C   UNL     1     114.236 128.890 135.450  0.00  0.00    +0.000 C 
ENDBRANCH  17  20
BRANCH  15  22
ATOM     22  O   UNL     1     113.447 126.847 136.599  0.00  0.00    +0.000 OA
BRANCH  22  24
ATOM     23  O   UNL     1     113.176 126.458 137.946  0.00  0.00    +0.000 OA
ATOM     24  C   UNL     1     113.468 126.278 137.196  0.00  0.00    +0.000 C 
BRANCH  24  25
ATOM     25  C   UNL     1     113.780 125.530 137.043  0.00  0.00    +0.000 C 
ATOM     26  C   UNL     1     113.388 125.016 136.531  0.00  0.00    +0.000 C 
BRANCH  25  27
ATOM     27  C   UNL     1     114.485 125.296 137.402  0.00  0.00    +0.000 C 
ATOM     28  C   UNL     1     114.814 124.560 137.225  0.00  0.00    +0.000 C 
ENDBRANCH  25  27
ENDBRANCH  24  25
ENDBRANCH  22  24
ENDBRANCH  15  22
ENDBRANCH   5  14
BRANCH   8  29
ATOM     29  O   UNL     1     112.644 129.903 138.318  0.00  0.00    +0.000 OA
ATOM     30  C   UNL     1     113.001 130.434 138.839  0.00  0.00    +0.000 C 
ENDBRANCH   8  29
TORSDOF 7
ENDMDL
MODEL 5
REMARK VINA RESULT:      -7.6      7.867      9.863
REMARK  Name = 44259687
REMARK  7 active torsions:
REMARK  status: ('A' for Active; 'I' for Inactive)
REMARK    1  A    between atoms: O_2  and  C_15
REMARK    2  A    between atoms: O_2  and  C_18
REMARK    3  A    between atoms: O_3  and  C_17
REMARK    4  A    between atoms: O_4  and  C_22
REMARK    5  A    between atoms: C_9  and  C_10
REMARK    6  A    between atoms: C_9  and  C_15
REMARK    7  A    between atoms: C_11  and  C_12
REMARK                            x       y       z     vdW  Elec       q    Type
REMARK                         _______ _______ _______ _____ _____    ______ ____
ROOT
ATOM      1  O   UNL     1     113.271 126.215 137.851  0.00  0.00    +0.000 OA
ATOM      2  O   UNL     1     111.538 123.939 137.441  0.00  0.00    +0.000 OA
ATOM      3  O   UNL     1     111.195 124.976 138.383  0.00  0.00    +0.000 OA
ATOM      4  O   UNL     1     114.029 124.160 135.932  0.00  0.00    +0.000 OA
ATOM      5  C   UNL     1     112.743 126.515 138.410  0.00  0.00    +0.000 A 
ATOM      6  C   UNL     1     112.414 125.089 137.647  0.00  0.00    +0.000 A 
ATOM      7  C   UNL     1     113.106 125.502 137.470  0.00  0.00    +0.000 A 
ATOM      8  C   UNL     1     112.051 126.102 138.587  0.00  0.00    +0.000 A 
ATOM      9  C   UNL     1     111.887 125.389 138.205  0.00  0.00    +0.000 A 
ATOM     10  C   UNL     1     112.232 124.345 137.257  0.00  0.00    +0.000 A 
ATOM     11  C   UNL     1     113.664 125.199 136.890  0.00  0.00    +0.000 A 
ATOM     12  C   UNL     1     113.498 124.457 136.490  0.00  0.00    +0.000 A 
ATOM     13  C   UNL     1     112.778 124.027 136.675  0.00  0.00    +0.000 A 
ENDROOT
BRANCH   5  14
ATOM     14  C   UNL     1     112.907 127.228 138.790  0.00  0.00    +0.000 A 
ATOM     15  C   UNL     1     113.237 128.654 139.553  0.00  0.00    +0.000 A 
ATOM     16  C   UNL     1     112.705 127.944 138.432  0.00  0.00    +0.000 A 
ATOM     17  C   UNL     1     112.871 128.656 138.814  0.00  0.00    +0.000 A 
ATOM     18  C   UNL     1     113.274 127.225 139.530  0.00  0.00    +0.000 A 
ATOM     19  C   UNL     1     113.439 127.938 139.910  0.00  0.00    +0.000 A 
BRANCH  17  20
ATOM     20  O   UNL     1     112.669 129.372 138.456  0.00  0.00    +0.000 OA
ATOM     21  C   UNL     1     112.458 129.389 137.658  0.00  0.00    +0.000 C 
ENDBRANCH  17  20
BRANCH  15  22
ATOM     22  O   UNL     1     113.403 129.367 139.934  0.00  0.00    +0.000 OA
BRANCH  22  24
ATOM     23  O   UNL     1     114.344 128.703 140.779  0.00  0.00    +0.000 OA
ATOM     24  C   UNL     1     113.987 129.398 140.515  0.00  0.00    +0.000 C 
BRANCH  24  25
ATOM     25  C   UNL     1     114.215 130.125 140.833  0.00  0.00    +0.000 C 
ATOM     26  C   UNL     1     113.742 130.493 141.400  0.00  0.00    +0.000 C 
BRANCH  25  27
ATOM     27  C   UNL     1     114.915 130.482 140.585  0.00  0.00    +0.000 C 
ATOM     28  C   UNL     1     115.161 131.192 140.927  0.00  0.00    +0.000 C 
ENDBRANCH  25  27
ENDBRANCH  24  25
ENDBRANCH  22  24
ENDBRANCH  15  22
ENDBRANCH   5  14
BRANCH   8  29
ATOM     29  O   UNL     1     111.523 126.403 139.145  0.00  0.00    +0.000 OA
ATOM     30  C   UNL     1     110.744 126.133 139.162  0.00  0.00    +0.000 C 
ENDBRANCH   8  29
TORSDOF 7
ENDMDL
MODEL 6
REMARK VINA RESULT:      -7.6      9.824     10.431
REMARK  Name = 44259687
REMARK  7 active torsions:
REMARK  status: ('A' for Active; 'I' for Inactive)
REMARK    1  A    between atoms: O_2  and  C_15
REMARK    2  A    between atoms: O_2  and  C_18
REMARK    3  A    between atoms: O_3  and  C_17
REMARK    4  A    between atoms: O_4  and  C_22
REMARK    5  A    between atoms: C_9  and  C_10
REMARK    6  A    between atoms: C_9  and  C_15
REMARK    7  A    between atoms: C_11  and  C_12
REMARK                            x       y       z     vdW  Elec       q    Type
REMARK                         _______ _______ _______ _____ _____    ______ ____
ROOT
ATOM      1  O   UNL     1     111.486 130.582 136.978  0.00  0.00    +0.000 OA
ATOM      2  O   UNL     1     109.231 131.843 135.683  0.00  0.00    +0.000 OA
ATOM      3  O   UNL     1     109.741 130.575 135.222  0.00  0.00    +0.000 OA
ATOM      4  O   UNL     1     110.512 133.143 137.963  0.00  0.00    +0.000 OA
ATOM      5  C   UNL     1     111.437 129.952 136.446  0.00  0.00    +0.000 A 
ATOM      6  C   UNL     1     110.371 131.206 136.338  0.00  0.00    +0.000 A 
ATOM      7  C   UNL     1     110.952 131.209 136.923  0.00  0.00    +0.000 A 
ATOM      8  C   UNL     1     110.856 129.949 135.861  0.00  0.00    +0.000 A 
ATOM      9  C   UNL     1     110.323 130.577 135.808  0.00  0.00    +0.000 A 
ATOM     10  C   UNL     1     109.809 131.854 136.271  0.00  0.00    +0.000 A 
ATOM     11  C   UNL     1     111.013 131.859 137.482  0.00  0.00    +0.000 A 
ATOM     12  C   UNL     1     110.460 132.515 137.430  0.00  0.00    +0.000 A 
ATOM     13  C   UNL     1     109.855 132.512 136.821  0.00  0.00    +0.000 A 
ENDROOT
BRANCH   5  14
ATOM     14  C   UNL     1     111.971 129.325 136.501  0.00  0.00    +0.000 A 
ATOM     15  C   UNL     1     113.037 128.071 136.611  0.00  0.00    +0.000 A 
ATOM     16  C   UNL     1     112.707 129.376 136.132  0.00  0.00    +0.000 A 
ATOM     17  C   UNL     1     113.240 128.748 136.188  0.00  0.00    +0.000 A 
ATOM     18  C   UNL     1     111.767 128.647 136.925  0.00  0.00    +0.000 A 
ATOM     19  C   UNL     1     112.301 128.020 136.980  0.00  0.00    +0.000 A 
BRANCH  17  20
ATOM     20  O   UNL     1     113.976 128.799 135.819  0.00  0.00    +0.000 OA
ATOM     21  C   UNL     1     114.303 129.538 135.650  0.00  0.00    +0.000 C 
ENDBRANCH  17  20
BRANCH  15  22
ATOM     22  O   UNL     1     113.570 127.443 136.667  0.00  0.00    +0.000 OA
BRANCH  22  24
ATOM     23  O   UNL     1     112.526 126.485 136.486  0.00  0.00    +0.000 OA
ATOM     24  C   UNL     1     113.292 126.670 136.732  0.00  0.00    +0.000 C 
BRANCH  24  25
ATOM     25  C   UNL     1     113.778 126.080 137.042  0.00  0.00    +0.000 C 
ATOM     26  C   UNL     1     113.791 125.943 137.856  0.00  0.00    +0.000 C 
BRANCH  25  27
ATOM     27  C   UNL     1     114.251 125.628 136.541  0.00  0.00    +0.000 C 
ATOM     28  C   UNL     1     114.725 125.027 136.849  0.00  0.00    +0.000 C 
ENDBRANCH  25  27
ENDBRANCH  24  25
ENDBRANCH  22  24
ENDBRANCH  15  22
ENDBRANCH   5  14
BRANCH   8  29
ATOM     29  O   UNL     1     110.807 129.320 135.331  0.00  0.00    +0.000 OA
ATOM     30  C   UNL     1     110.273 129.350 134.703  0.00  0.00    +0.000 C 
ENDBRANCH   8  29
TORSDOF 7
ENDMDL
MODEL 7
REMARK VINA RESULT:      -7.6      8.265      9.567
REMARK  Name = 44259687
REMARK  7 active torsions:
REMARK  status: ('A' for Active; 'I' for Inactive)
REMARK    1  A    between atoms: O_2  and  C_15
REMARK    2  A    between atoms: O_2  and  C_18
REMARK    3  A    between atoms: O_3  and  C_17
REMARK    4  A    between atoms: O_4  and  C_22
REMARK    5  A    between atoms: C_9  and  C_10
REMARK    6  A    between atoms: C_9  and  C_15
REMARK    7  A    between atoms: C_11  and  C_12
REMARK                            x       y       z     vdW  Elec       q    Type
REMARK                         _______ _______ _______ _____ _____    ______ ____
ROOT
ATOM      1  O   UNL     1     110.470 129.255 136.397  0.00  0.00    +0.000 OA
ATOM      2  O   UNL     1     107.754 129.909 135.659  0.00  0.00    +0.000 OA
ATOM      3  O   UNL     1     108.162 128.540 135.860  0.00  0.00    +0.000 OA
ATOM      4  O   UNL     1     109.720 132.041 136.008  0.00  0.00    +0.000 OA
ATOM      5  C   UNL     1     110.274 128.453 136.404  0.00  0.00    +0.000 A 
ATOM      6  C   UNL     1     109.127 129.579 136.032  0.00  0.00    +0.000 A 
ATOM      7  C   UNL     1     109.897 129.817 136.211  0.00  0.00    +0.000 A 
ATOM      8  C   UNL     1     109.505 128.214 136.225  0.00  0.00    +0.000 A 
ATOM      9  C   UNL     1     108.932 128.778 136.039  0.00  0.00    +0.000 A 
ATOM     10  C   UNL     1     108.521 130.157 135.837  0.00  0.00    +0.000 A 
ATOM     11  C   UNL     1     110.113 130.649 136.207  0.00  0.00    +0.000 A 
ATOM     12  C   UNL     1     109.520 131.240 136.014  0.00  0.00    +0.000 A 
ATOM     13  C   UNL     1     108.719 130.992 135.828  0.00  0.00    +0.000 A 
ENDROOT
BRANCH   5  14
ATOM     14  C   UNL     1     110.848 127.890 136.590  0.00  0.00    +0.000 A 
ATOM     15  C   UNL     1     111.996 126.764 136.961  0.00  0.00    +0.000 A 
ATOM     16  C   UNL     1     110.982 127.681 137.377  0.00  0.00    +0.000 A 
ATOM     17  C   UNL     1     111.556 127.118 137.562  0.00  0.00    +0.000 A 
ATOM     18  C   UNL     1     111.289 127.536 135.988  0.00  0.00    +0.000 A 
ATOM     19  C   UNL     1     111.862 126.973 136.174  0.00  0.00    +0.000 A 
BRANCH  17  20
ATOM     20  O   UNL     1     111.690 126.909 138.348  0.00  0.00    +0.000 OA
ATOM     21  C   UNL     1     111.486 127.431 138.955  0.00  0.00    +0.000 C 
ENDBRANCH  17  20
BRANCH  15  22
ATOM     22  O   UNL     1     112.570 126.201 137.146  0.00  0.00    +0.000 OA
BRANCH  22  24
ATOM     23  O   UNL     1     112.231 125.464 135.971  0.00  0.00    +0.000 OA
ATOM     24  C   UNL     1     112.711 125.572 136.633  0.00  0.00    +0.000 C 
BRANCH  24  25
ATOM     25  C   UNL     1     113.332 125.049 136.781  0.00  0.00    +0.000 C 
ATOM     26  C   UNL     1     113.178 124.245 136.886  0.00  0.00    +0.000 C 
BRANCH  25  27
ATOM     27  C   UNL     1     114.106 125.329 136.825  0.00  0.00    +0.000 C 
ATOM     28  C   UNL     1     114.719 124.818 137.035  0.00  0.00    +0.000 C 
ENDBRANCH  25  27
ENDBRANCH  24  25
ENDBRANCH  22  24
ENDBRANCH  15  22
ENDBRANCH   5  14
BRANCH   8  29
ATOM     29  O   UNL     1     109.309 127.414 136.232  0.00  0.00    +0.000 OA
ATOM     30  C   UNL     1     108.627 127.153 135.850  0.00  0.00    +0.000 C 
ENDBRANCH   8  29
TORSDOF 7
ENDMDL
MODEL 8
REMARK VINA RESULT:      -7.5      6.971      9.130
REMARK  Name = 44259687
REMARK  7 active torsions:
REMARK  status: ('A' for Active; 'I' for Inactive)
REMARK    1  A    between atoms: O_2  and  C_15
REMARK    2  A    between atoms: O_2  and  C_18
REMARK    3  A    between atoms: O_3  and  C_17
REMARK    4  A    between atoms: O_4  and  C_22
REMARK    5  A    between atoms: C_9  and  C_10
REMARK    6  A    between atoms: C_9  and  C_15
REMARK    7  A    between atoms: C_11  and  C_12
REMARK                            x       y       z     vdW  Elec       q    Type
REMARK                         _______ _______ _______ _____ _____    ______ ____
ROOT
ATOM      1  O   UNL     1     112.622 128.394 140.784  0.00  0.00    +0.000 OA
ATOM      2  O   UNL     1     111.029 128.400 143.194  0.00  0.00    +0.000 OA
ATOM      3  O   UNL     1     111.009 127.275 142.291  0.00  0.00    +0.000 OA
ATOM      4  O   UNL     1     112.713 130.700 142.559  0.00  0.00    +0.000 OA
ATOM      5  C   UNL     1     112.334 127.643 140.596  0.00  0.00    +0.000 A 
ATOM      6  C   UNL     1     111.835 128.398 141.976  0.00  0.00    +0.000 A 
ATOM      7  C   UNL     1     112.372 128.771 141.473  0.00  0.00    +0.000 A 
ATOM      8  C   UNL     1     111.797 127.270 141.099  0.00  0.00    +0.000 A 
ATOM      9  C   UNL     1     111.547 127.648 141.789  0.00  0.00    +0.000 A 
ATOM     10  C   UNL     1     111.567 128.781 142.698  0.00  0.00    +0.000 A 
ATOM     11  C   UNL     1     112.679 129.552 141.658  0.00  0.00    +0.000 A 
ATOM     12  C   UNL     1     112.423 129.950 142.375  0.00  0.00    +0.000 A 
ATOM     13  C   UNL     1     111.863 129.561 142.898  0.00  0.00    +0.000 A 
ENDROOT
BRANCH   5  14
ATOM     14  C   UNL     1     112.584 127.267 139.906  0.00  0.00    +0.000 A 
ATOM     15  C   UNL     1     113.086 126.513 138.527  0.00  0.00    +0.000 A 
ATOM     16  C   UNL     1     112.208 127.424 139.190  0.00  0.00    +0.000 A 
ATOM     17  C   UNL     1     112.459 127.047 138.500  0.00  0.00    +0.000 A 
ATOM     18  C   UNL     1     113.212 126.731 139.933  0.00  0.00    +0.000 A 
ATOM     19  C   UNL     1     113.463 126.355 139.244  0.00  0.00    +0.000 A 
BRANCH  17  20
ATOM     20  O   UNL     1     112.082 127.205 137.783  0.00  0.00    +0.000 OA
ATOM     21  C   UNL     1     111.627 127.889 137.698  0.00  0.00    +0.000 C 
ENDBRANCH  17  20
BRANCH  15  22
ATOM     22  O   UNL     1     113.337 126.135 137.837  0.00  0.00    +0.000 OA
BRANCH  22  24
ATOM     23  O   UNL     1     114.522 125.694 138.502  0.00  0.00    +0.000 OA
ATOM     24  C   UNL     1     114.029 125.687 137.841  0.00  0.00    +0.000 C 
BRANCH  24  25
ATOM     25  C   UNL     1     114.229 125.231 137.183  0.00  0.00    +0.000 C 
ATOM     26  C   UNL     1     113.986 124.444 137.138  0.00  0.00    +0.000 C 
BRANCH  25  27
ATOM     27  C   UNL     1     114.671 125.561 136.570  0.00  0.00    +0.000 C 
ATOM     28  C   UNL     1     114.967 125.081 135.968  0.00  0.00    +0.000 C 
ENDBRANCH  25  27
ENDBRANCH  24  25
ENDBRANCH  22  24
ENDBRANCH  15  22
ENDBRANCH   5  14
BRANCH   8  29
ATOM     29  O   UNL     1     111.509 126.521 140.911  0.00  0.00    +0.000 OA
ATOM     30  C   UNL     1     110.741 126.308 141.125  0.00  0.00    +0.000 C 
ENDBRANCH   8  29
TORSDOF 7
ENDMDL
MODEL 9
REMARK VINA RESULT:      -7.5      9.723     11.308
REMARK  Name = 44259687
REMARK  7 active torsions:
REMARK  status: ('A' for Active; 'I' for Inactive)
REMARK    1  A    between atoms: O_2  and  C_15
REMARK    2  A    between atoms: O_2  and  C_18
REMARK    3  A    between atoms: O_3  and  C_17
REMARK    4  A    between atoms: O_4  and  C_22
REMARK    5  A    between atoms: C_9  and  C_10
REMARK    6  A    between atoms: C_9  and  C_15
REMARK    7  A    between atoms: C_11  and  C_12
REMARK                            x       y       z     vdW  Elec       q    Type
REMARK                         _______ _______ _______ _____ _____    ______ ____
ROOT
ATOM      1  O   UNL     1     113.955 128.871 135.857  0.00  0.00    +0.000 OA
ATOM      2  O   UNL     1     114.002 131.561 136.911  0.00  0.00    +0.000 OA
ATOM      3  O   UNL     1     113.165 130.545 137.500  0.00  0.00    +0.000 OA
ATOM      4  O   UNL     1     115.671 130.869 134.615  0.00  0.00    +0.000 OA
ATOM      5  C   UNL     1     113.403 128.656 136.432  0.00  0.00    +0.000 A 
ATOM      6  C   UNL     1     113.979 130.201 136.377  0.00  0.00    +0.000 A 
ATOM      7  C   UNL     1     114.242 129.643 135.830  0.00  0.00    +0.000 A 
ATOM      8  C   UNL     1     113.140 129.214 136.980  0.00  0.00    +0.000 A 
ATOM      9  C   UNL     1     113.428 129.987 136.952  0.00  0.00    +0.000 A 
ATOM     10  C   UNL     1     114.272 131.010 136.359  0.00  0.00    +0.000 A 
ATOM     11  C   UNL     1     114.816 129.855 135.226  0.00  0.00    +0.000 A 
ATOM     12  C   UNL     1     115.120 130.658 135.192  0.00  0.00    +0.000 A 
ATOM     13  C   UNL     1     114.845 131.239 135.762  0.00  0.00    +0.000 A 
ENDROOT
BRANCH   5  14
ATOM     14  C   UNL     1     113.116 127.883 136.459  0.00  0.00    +0.000 A 
ATOM     15  C   UNL     1     112.542 126.337 136.514  0.00  0.00    +0.000 A 
ATOM     16  C   UNL     1     112.439 127.679 136.035  0.00  0.00    +0.000 A 
ATOM     17  C   UNL     1     112.152 126.906 136.063  0.00  0.00    +0.000 A 
ATOM     18  C   UNL     1     113.507 127.314 136.912  0.00  0.00    +0.000 A 
ATOM     19  C   UNL     1     113.220 126.541 136.939  0.00  0.00    +0.000 A 
BRANCH  17  20
ATOM     20  O   UNL     1     111.475 126.702 135.638  0.00  0.00    +0.000 OA
ATOM     21  C   UNL     1     111.192 127.203 135.046  0.00  0.00    +0.000 C 
ENDBRANCH  17  20
BRANCH  15  22
ATOM     22  O   UNL     1     112.256 125.564 136.542  0.00  0.00    +0.000 OA
BRANCH  22  24
ATOM     23  O   UNL     1     112.685 125.366 137.890  0.00  0.00    +0.000 OA
ATOM     24  C   UNL     1     112.490 125.058 137.150  0.00  0.00    +0.000 C 
BRANCH  24  25
ATOM     25  C   UNL     1     112.531 124.245 137.018  0.00  0.00    +0.000 C 
ATOM     26  C   UNL     1     113.251 123.895 136.819  0.00  0.00    +0.000 C 
BRANCH  25  27
ATOM     27  C   UNL     1     111.852 123.781 137.084  0.00  0.00    +0.000 C 
ATOM     28  C   UNL     1     111.916 122.961 137.143  0.00  0.00    +0.000 C 
ENDBRANCH  25  27
ENDBRANCH  24  25
ENDBRANCH  22  24
ENDBRANCH  15  22
ENDBRANCH   5  14
BRANCH   8  29
ATOM     29  O   UNL     1     112.590 128.999 137.555  0.00  0.00    +0.000 OA
ATOM     30  C   UNL     1     112.340 129.552 138.114  0.00  0.00    +0.000 C 
ENDBRANCH   8  29
TORSDOF 7
ENDMDL
MODEL 10
REMARK VINA RESULT:      -7.5      2.001      5.736
REMARK  Name = 44259687
REMARK  7 active torsions:
REMARK  status: ('A' for Active; 'I' for Inactive)
REMARK    1  A    between atoms: O_2  and  C_15
REMARK    2  A    between atoms: O_2  and  C_18
REMARK    3  A    between atoms: O_3  and  C_17
REMARK    4  A    between atoms: O_4  and  C_22
REMARK    5  A    between atoms: C_9  and  C_10
REMARK    6  A    between atoms: C_9  and  C_15
REMARK    7  A    between atoms: C_11  and  C_12
REMARK                            x       y       z     vdW  Elec       q    Type
REMARK                         _______ _______ _______ _____ _____    ______ ____
ROOT
ATOM      1  O   UNL     1     106.648 125.028 146.555  0.00  0.00    +0.000 OA
ATOM      2  O   UNL     1     105.413 124.467 149.106  0.00  0.00    +0.000 OA
ATOM      3  O   UNL     1     104.619 124.615 147.911  0.00  0.00    +0.000 OA
ATOM      4  O   UNL     1     108.315 124.743 148.925  0.00  0.00    +0.000 OA
ATOM      5  C   UNL     1     105.904 125.030 146.196  0.00  0.00    +0.000 A 
ATOM      6  C   UNL     1     106.038 124.751 147.817  0.00  0.00    +0.000 A 
ATOM      7  C   UNL     1     106.714 124.888 147.365  0.00  0.00    +0.000 A 
ATOM      8  C   UNL     1     105.228 124.892 146.649  0.00  0.00    +0.000 A 
ATOM      9  C   UNL     1     105.295 124.753 147.459  0.00  0.00    +0.000 A 
ATOM     10  C   UNL     1     106.095 124.604 148.662  0.00  0.00    +0.000 A 
ATOM     11  C   UNL     1     107.494 124.889 147.727  0.00  0.00    +0.000 A 
ATOM     12  C   UNL     1     107.570 124.744 148.570  0.00  0.00    +0.000 A 
ATOM     13  C   UNL     1     106.866 124.601 149.041  0.00  0.00    +0.000 A 
ENDROOT
BRANCH   5  14
ATOM     14  C   UNL     1     105.838 125.170 145.386  0.00  0.00    +0.000 A 
ATOM     15  C   UNL     1     105.705 125.448 143.765  0.00  0.00    +0.000 A 
ATOM     16  C   UNL     1     105.761 125.941 145.105  0.00  0.00    +0.000 A 
ATOM     17  C   UNL     1     105.695 126.080 144.294  0.00  0.00    +0.000 A 
ATOM     18  C   UNL     1     105.847 124.536 144.857  0.00  0.00    +0.000 A 
ATOM     19  C   UNL     1     105.781 124.676 144.046  0.00  0.00    +0.000 A 
BRANCH  17  20
ATOM     20  O   UNL     1     105.619 126.852 144.013  0.00  0.00    +0.000 OA
ATOM     21  C   UNL     1     105.625 127.486 144.541  0.00  0.00    +0.000 C 
ENDBRANCH  17  20
BRANCH  15  22
ATOM     22  O   UNL     1     105.639 125.586 142.954  0.00  0.00    +0.000 OA
BRANCH  22  24
ATOM     23  O   UNL     1     106.700 124.676 142.663  0.00  0.00    +0.000 OA
ATOM     24  C   UNL     1     106.037 125.102 142.419  0.00  0.00    +0.000 C 
BRANCH  24  25
ATOM     25  C   UNL     1     105.774 125.043 141.639  0.00  0.00    +0.000 C 
ATOM     26  C   UNL     1     105.681 125.725 141.183  0.00  0.00    +0.000 C 
BRANCH  25  27
ATOM     27  C   UNL     1     105.603 124.305 141.316  0.00  0.00    +0.000 C 
ATOM     28  C   UNL     1     105.385 124.241 140.522  0.00  0.00    +0.000 C 
ENDBRANCH  25  27
ENDBRANCH  24  25
ENDBRANCH  22  24
ENDBRANCH  15  22
ENDBRANCH   5  14
BRANCH   8  29
ATOM     29  O   UNL     1     104.485 124.894 146.290  0.00  0.00    +0.000 OA
ATOM     30  C   UNL     1     103.814 124.707 146.732  0.00  0.00    +0.000 C 
ENDBRANCH   8  29
TORSDOF 7
ENDMDL
