MODEL 1
REMARK VINA RESULT:     -10.2      0.000      0.000
REMARK  Name = 42608007
REMARK  7 active torsions:
REMARK  status: ('A' for Active; 'I' for Inactive)
REMARK    1  A    between atoms: O_2  and  C_21
REMARK    2  A    between atoms: O_2  and  C_25
REMARK    3  A    between atoms: O_5  and  C_24
REMARK    4  A    between atoms: O_5  and  C_28
REMARK    5  A    between atoms: O_14  and  C_40
REMARK    6  A    between atoms: C_16  and  C_25
REMARK    7  A    between atoms: C_32  and  C_37
REMARK                            x       y       z     vdW  Elec       q    Type
REMARK                         _______ _______ _______ _____ _____    ______ ____
ROOT
ATOM      1  O   UNL     1     109.300 128.435 137.058  0.00  0.00    +0.000 OA
ENDROOT
BRANCH   1   5
ATOM      2  O   UNL     1     111.016 126.115 136.659  0.00  0.00    +0.000 OA
ATOM      3  O   UNL     1     108.890 126.655 134.778  0.00  0.00    +0.000 OA
ATOM      4  O   UNL     1     109.759 125.515 134.613  0.00  0.00    +0.000 OA
ATOM      5  C   UNL     1     109.512 127.767 136.621  0.00  0.00    +0.000 A 
ATOM      6  C   UNL     1     110.170 127.276 136.873  0.00  0.00    +0.000 A 
ATOM      7  C   UNL     1     110.383 126.583 136.412  0.00  0.00    +0.000 A 
ATOM      8  C   UNL     1     109.076 127.559 135.910  0.00  0.00    +0.000 A 
ATOM      9  C   UNL     1     111.229 125.447 136.225  0.00  0.00    +0.000 C 
ATOM     10  C   UNL     1     109.964 126.383 135.730  0.00  0.00    +0.000 A 
ATOM     11  C   UNL     1     110.810 125.247 135.542  0.00  0.00    +0.000 C 
ATOM     12  C   UNL     1     109.303 126.862 135.462  0.00  0.00    +0.000 A 
ATOM     13  C   UNL     1     110.178 125.716 135.295  0.00  0.00    +0.000 C 
BRANCH   9  15
ATOM     14  O   UNL     1     113.761 123.575 137.213  0.00  0.00    +0.000 OA
ATOM     15  C   UNL     1     111.862 124.979 136.472  0.00  0.00    +0.000 A 
ATOM     16  C   UNL     1     112.635 125.199 136.287  0.00  0.00    +0.000 A 
ATOM     17  C   UNL     1     111.722 124.290 136.904  0.00  0.00    +0.000 A 
ATOM     18  C   UNL     1     113.269 124.732 136.534  0.00  0.00    +0.000 A 
ATOM     19  C   UNL     1     112.356 123.822 137.151  0.00  0.00    +0.000 A 
ATOM     20  C   UNL     1     113.128 124.043 136.966  0.00  0.00    +0.000 A 
BRANCH  18  21
ATOM     21  O   UNL     1     114.042 124.952 136.349  0.00  0.00    +0.000 OA
ATOM     22  C   UNL     1     114.304 125.717 136.515  0.00  0.00    +0.000 C 
ENDBRANCH  18  21
ENDBRANCH   9  15
ENDBRANCH   1   5
BRANCH   1  31
ATOM     23  O   UNL     1     110.352 129.321 136.670  0.00  0.00    +0.000 OA
ATOM     24  O   UNL     1     110.305 131.426 136.092  0.00  0.00    +0.000 OA
ATOM     25  O   UNL     1     108.705 131.148 136.385  0.00  0.00    +0.000 OA
ATOM     26  O   UNL     1     108.203 129.652 136.868  0.00  0.00    +0.000 OA
ATOM     27  C   UNL     1     110.603 130.069 136.429  0.00  0.00    +0.000 C 
ATOM     28  C   UNL     1     110.054 130.678 136.334  0.00  0.00    +0.000 C 
ATOM     29  C   UNL     1     109.254 130.539 136.480  0.00  0.00    +0.000 C 
ATOM     30  C   UNL     1     109.003 129.791 136.722  0.00  0.00    +0.000 C 
ATOM     31  C   UNL     1     109.552 129.183 136.816  0.00  0.00    +0.000 C 
BRANCH  27  32
ATOM     32  C   UNL     1     111.403 130.208 136.282  0.00  0.00    +0.000 C 
BRANCH  32  33
ATOM     33  O   UNL     1     111.901 129.583 136.079  0.00  0.00    +0.000 OA
BRANCH  33  39
ATOM     34  O   UNL     1     113.094 130.270 136.460  0.00  0.00    +0.000 OA
ATOM     35  O   UNL     1     112.752 128.730 134.952  0.00  0.00    +0.000 OA
ATOM     36  O   UNL     1     114.371 128.991 134.769  0.00  0.00    +0.000 OA
ATOM     37  O   UNL     1     115.139 130.104 135.715  0.00  0.00    +0.000 OA
ATOM     38  C   UNL     1     113.136 129.287 135.425  0.00  0.00    +0.000 C 
ATOM     39  C   UNL     1     112.710 129.714 135.988  0.00  0.00    +0.000 C 
ATOM     40  C   UNL     1     113.945 129.417 135.333  0.00  0.00    +0.000 C 
ATOM     41  C   UNL     1     114.329 129.974 135.806  0.00  0.00    +0.000 C 
ATOM     42  C   UNL     1     113.903 130.400 136.369  0.00  0.00    +0.000 C 
ATOM     43  C   UNL     1     114.288 130.957 136.842  0.00  0.00    +0.000 C 
ENDBRANCH  33  39
ENDBRANCH  32  33
ENDBRANCH  27  32
ENDBRANCH   1  31
TORSDOF 7
ENDMDL
MODEL 2
REMARK VINA RESULT:     -10.2      2.032      2.858
REMARK  Name = 42608007
REMARK  7 active torsions:
REMARK  status: ('A' for Active; 'I' for Inactive)
REMARK    1  A    between atoms: O_2  and  C_21
REMARK    2  A    between atoms: O_2  and  C_25
REMARK    3  A    between atoms: O_5  and  C_24
REMARK    4  A    between atoms: O_5  and  C_28
REMARK    5  A    between atoms: O_14  and  C_40
REMARK    6  A    between atoms: C_16  and  C_25
REMARK    7  A    between atoms: C_32  and  C_37
REMARK                            x       y       z     vdW  Elec       q    Type
REMARK                         _______ _______ _______ _____ _____    ______ ____
ROOT
ATOM      1  O   UNL     1     110.390 128.769 135.144  0.00  0.00    +0.000 OA
ENDROOT
BRANCH   1   5
ATOM      2  O   UNL     1     112.137 126.688 136.193  0.00  0.00    +0.000 OA
ATOM      3  O   UNL     1     109.645 125.953 134.929  0.00  0.00    +0.000 OA
ATOM      4  O   UNL     1     110.535 124.950 135.460  0.00  0.00    +0.000 OA
ATOM      5  C   UNL     1     110.552 127.971 135.279  0.00  0.00    +0.000 A 
ATOM      6  C   UNL     1     111.278 127.738 135.676  0.00  0.00    +0.000 A 
ATOM      7  C   UNL     1     111.438 126.905 135.812  0.00  0.00    +0.000 A 
ATOM      8  C   UNL     1     109.996 127.367 135.025  0.00  0.00    +0.000 A 
ATOM      9  C   UNL     1     112.301 125.891 136.330  0.00  0.00    +0.000 C 
ATOM     10  C   UNL     1     110.904 126.326 135.568  0.00  0.00    +0.000 A 
ATOM     11  C   UNL     1     111.767 125.312 136.085  0.00  0.00    +0.000 C 
ATOM     12  C   UNL     1     110.173 126.539 135.170  0.00  0.00    +0.000 A 
ATOM     13  C   UNL     1     111.068 125.529 135.704  0.00  0.00    +0.000 C 
BRANCH   9  15
ATOM     14  O   UNL     1     115.095 125.021 137.855  0.00  0.00    +0.000 OA
ATOM     15  C   UNL     1     112.999 125.673 136.711  0.00  0.00    +0.000 A 
ATOM     16  C   UNL     1     113.103 125.843 137.512  0.00  0.00    +0.000 A 
ATOM     17  C   UNL     1     113.595 125.285 136.292  0.00  0.00    +0.000 A 
ATOM     18  C   UNL     1     113.801 125.626 137.894  0.00  0.00    +0.000 A 
ATOM     19  C   UNL     1     114.294 125.068 136.674  0.00  0.00    +0.000 A 
ATOM     20  C   UNL     1     114.396 125.238 137.474  0.00  0.00    +0.000 A 
BRANCH  18  21
ATOM     21  O   UNL     1     113.904 125.796 138.695  0.00  0.00    +0.000 OA
ATOM     22  C   UNL     1     113.547 126.463 139.024  0.00  0.00    +0.000 C 
ENDBRANCH  18  21
ENDBRANCH   9  15
ENDBRANCH   1   5
BRANCH   1  31
ATOM     23  O   UNL     1     110.129 129.216 136.476  0.00  0.00    +0.000 OA
ATOM     24  O   UNL     1     108.520 130.458 137.275  0.00  0.00    +0.000 OA
ATOM     25  O   UNL     1     108.110 130.407 135.678  0.00  0.00    +0.000 OA
ATOM     26  O   UNL     1     109.044 129.562 134.612  0.00  0.00    +0.000 OA
ATOM     27  C   UNL     1     109.661 129.639 137.008  0.00  0.00    +0.000 C 
ATOM     28  C   UNL     1     108.988 130.036 136.742  0.00  0.00    +0.000 C 
ATOM     29  C   UNL     1     108.783 130.010 135.944  0.00  0.00    +0.000 C 
ATOM     30  C   UNL     1     109.250 129.587 135.411  0.00  0.00    +0.000 C 
ATOM     31  C   UNL     1     109.923 129.191 135.677  0.00  0.00    +0.000 C 
BRANCH  27  32
ATOM     32  C   UNL     1     109.866 129.665 137.807  0.00  0.00    +0.000 C 
BRANCH  32  33
ATOM     33  O   UNL     1     110.614 129.930 138.033  0.00  0.00    +0.000 OA
BRANCH  33  39
ATOM     34  O   UNL     1     110.626 129.144 139.227  0.00  0.00    +0.000 OA
ATOM     35  O   UNL     1     111.650 131.007 138.731  0.00  0.00    +0.000 OA
ATOM     36  O   UNL     1     112.181 130.760 140.274  0.00  0.00    +0.000 OA
ATOM     37  O   UNL     1     111.675 129.436 141.119  0.00  0.00    +0.000 OA
ATOM     38  C   UNL     1     111.397 130.344 139.154  0.00  0.00    +0.000 C 
ATOM     39  C   UNL     1     110.879 129.806 138.805  0.00  0.00    +0.000 C 
ATOM     40  C   UNL     1     111.663 130.222 139.925  0.00  0.00    +0.000 C 
ATOM     41  C   UNL     1     111.409 129.560 140.347  0.00  0.00    +0.000 C 
ATOM     42  C   UNL     1     110.891 129.021 139.998  0.00  0.00    +0.000 C 
ATOM     43  C   UNL     1     110.639 128.359 140.421  0.00  0.00    +0.000 C 
ENDBRANCH  33  39
ENDBRANCH  32  33
ENDBRANCH  27  32
ENDBRANCH   1  31
TORSDOF 7
ENDMDL
MODEL 3
REMARK VINA RESULT:      -9.9      1.495      2.034
REMARK  Name = 42608007
REMARK  7 active torsions:
REMARK  status: ('A' for Active; 'I' for Inactive)
REMARK    1  A    between atoms: O_2  and  C_21
REMARK    2  A    between atoms: O_2  and  C_25
REMARK    3  A    between atoms: O_5  and  C_24
REMARK    4  A    between atoms: O_5  and  C_28
REMARK    5  A    between atoms: O_14  and  C_40
REMARK    6  A    between atoms: C_16  and  C_25
REMARK    7  A    between atoms: C_32  and  C_37
REMARK                            x       y       z     vdW  Elec       q    Type
REMARK                         _______ _______ _______ _____ _____    ______ ____
ROOT
ATOM      1  O   UNL     1     109.397 127.705 135.924  0.00  0.00    +0.000 OA
ENDROOT
BRANCH   1   5
ATOM      2  O   UNL     1     111.569 126.066 136.963  0.00  0.00    +0.000 OA
ATOM      3  O   UNL     1     109.079 126.221 138.420  0.00  0.00    +0.000 OA
ATOM      4  O   UNL     1     110.176 125.420 138.904  0.00  0.00    +0.000 OA
ATOM      5  C   UNL     1     109.698 127.196 136.501  0.00  0.00    +0.000 A 
ATOM      6  C   UNL     1     110.497 126.888 136.431  0.00  0.00    +0.000 A 
ATOM      7  C   UNL     1     110.802 126.359 137.035  0.00  0.00    +0.000 A 
ATOM      8  C   UNL     1     109.214 126.972 137.174  0.00  0.00    +0.000 A 
ATOM      9  C   UNL     1     111.872 125.558 137.538  0.00  0.00    +0.000 C 
ATOM     10  C   UNL     1     110.337 126.144 137.682  0.00  0.00    +0.000 A 
ATOM     11  C   UNL     1     111.408 125.342 138.185  0.00  0.00    +0.000 C 
ATOM     12  C   UNL     1     109.536 126.442 137.769  0.00  0.00    +0.000 A 
ATOM     13  C   UNL     1     110.640 125.636 138.257  0.00  0.00    +0.000 C 
BRANCH   9  15
ATOM     14  O   UNL     1     114.944 124.386 137.249  0.00  0.00    +0.000 OA
ATOM     15  C   UNL     1     112.640 125.265 137.466  0.00  0.00    +0.000 A 
ATOM     16  C   UNL     1     113.258 125.619 137.883  0.00  0.00    +0.000 A 
ATOM     17  C   UNL     1     112.790 124.618 136.976  0.00  0.00    +0.000 A 
ATOM     18  C   UNL     1     114.026 125.326 137.811  0.00  0.00    +0.000 A 
ATOM     19  C   UNL     1     113.559 124.325 136.905  0.00  0.00    +0.000 A 
ATOM     20  C   UNL     1     114.176 124.679 137.322  0.00  0.00    +0.000 A 
BRANCH  18  21
ATOM     21  O   UNL     1     114.644 125.680 138.228  0.00  0.00    +0.000 OA
ATOM     22  C   UNL     1     114.479 126.217 138.832  0.00  0.00    +0.000 C 
ENDBRANCH  18  21
ENDBRANCH   9  15
ENDBRANCH   1   5
BRANCH   1  31
ATOM     23  O   UNL     1     110.094 128.887 136.324  0.00  0.00    +0.000 OA
ATOM     24  O   UNL     1     109.440 130.968 136.417  0.00  0.00    +0.000 OA
ATOM     25  O   UNL     1     108.069 130.235 135.864  0.00  0.00    +0.000 OA
ATOM     26  O   UNL     1     108.048 128.603 135.618  0.00  0.00    +0.000 OA
ATOM     27  C   UNL     1     110.104 129.703 136.447  0.00  0.00    +0.000 C 
ATOM     28  C   UNL     1     109.429 130.152 136.294  0.00  0.00    +0.000 C 
ATOM     29  C   UNL     1     108.744 129.785 136.017  0.00  0.00    +0.000 C 
ATOM     30  C   UNL     1     108.733 128.969 135.894  0.00  0.00    +0.000 C 
ATOM     31  C   UNL     1     109.408 128.521 136.047  0.00  0.00    +0.000 C 
BRANCH  27  32
ATOM     32  C   UNL     1     110.789 130.070 136.724  0.00  0.00    +0.000 C 
BRANCH  32  33
ATOM     33  O   UNL     1     111.167 129.784 137.399  0.00  0.00    +0.000 OA
BRANCH  33  39
ATOM     34  O   UNL     1     112.311 130.586 137.098  0.00  0.00    +0.000 OA
ATOM     35  O   UNL     1     111.932 129.195 138.737  0.00  0.00    +0.000 OA
ATOM     36  O   UNL     1     113.459 129.702 139.105  0.00  0.00    +0.000 OA
ATOM     37  O   UNL     1     114.220 130.799 138.135  0.00  0.00    +0.000 OA
ATOM     38  C   UNL     1     112.313 129.743 138.252  0.00  0.00    +0.000 C 
ATOM     39  C   UNL     1     111.931 130.038 137.583  0.00  0.00    +0.000 C 
ATOM     40  C   UNL     1     113.076 129.997 138.436  0.00  0.00    +0.000 C 
ATOM     41  C   UNL     1     113.456 130.545 137.951  0.00  0.00    +0.000 C 
ATOM     42  C   UNL     1     113.074 130.839 137.282  0.00  0.00    +0.000 C 
ATOM     43  C   UNL     1     113.455 131.388 136.798  0.00  0.00    +0.000 C 
ENDBRANCH  33  39
ENDBRANCH  32  33
ENDBRANCH  27  32
ENDBRANCH   1  31
TORSDOF 7
ENDMDL
MODEL 4
REMARK VINA RESULT:      -9.9      2.421      5.604
REMARK  Name = 42608007
REMARK  7 active torsions:
REMARK  status: ('A' for Active; 'I' for Inactive)
REMARK    1  A    between atoms: O_2  and  C_21
REMARK    2  A    between atoms: O_2  and  C_25
REMARK    3  A    between atoms: O_5  and  C_24
REMARK    4  A    between atoms: O_5  and  C_28
REMARK    5  A    between atoms: O_14  and  C_40
REMARK    6  A    between atoms: C_16  and  C_25
REMARK    7  A    between atoms: C_32  and  C_37
REMARK                            x       y       z     vdW  Elec       q    Type
REMARK                         _______ _______ _______ _____ _____    ______ ____
ROOT
ATOM      1  O   UNL     1     113.118 129.237 139.337  0.00  0.00    +0.000 OA
ENDROOT
BRANCH   1   5
ATOM      2  O   UNL     1     111.028 129.700 137.361  0.00  0.00    +0.000 OA
ATOM      3  O   UNL     1     113.772 129.433 136.496  0.00  0.00    +0.000 OA
ATOM      4  O   UNL     1     112.711 129.662 135.547  0.00  0.00    +0.000 OA
ATOM      5  C   UNL     1     112.885 129.344 138.552  0.00  0.00    +0.000 A 
ATOM      6  C   UNL     1     112.057 129.469 138.359  0.00  0.00    +0.000 A 
ATOM      7  C   UNL     1     111.825 129.580 137.540  0.00  0.00    +0.000 A 
ATOM      8  C   UNL     1     113.470 129.331 137.922  0.00  0.00    +0.000 A 
ATOM      9  C   UNL     1     110.793 129.807 136.578  0.00  0.00    +0.000 C 
ATOM     10  C   UNL     1     112.386 129.567 136.935  0.00  0.00    +0.000 A 
ATOM     11  C   UNL     1     111.354 129.795 135.973  0.00  0.00    +0.000 C 
ATOM     12  C   UNL     1     113.218 129.443 137.108  0.00  0.00    +0.000 A 
ATOM     13  C   UNL     1     112.151 129.675 136.152  0.00  0.00    +0.000 C 
BRANCH   9  15
ATOM     14  O   UNL     1     107.607 130.286 135.862  0.00  0.00    +0.000 OA
ATOM     15  C   UNL     1     109.997 129.927 136.399  0.00  0.00    +0.000 A 
ATOM     16  C   UNL     1     109.511 129.283 136.227  0.00  0.00    +0.000 A 
ATOM     17  C   UNL     1     109.686 130.691 136.391  0.00  0.00    +0.000 A 
ATOM     18  C   UNL     1     108.714 129.402 136.049  0.00  0.00    +0.000 A 
ATOM     19  C   UNL     1     108.889 130.811 136.212  0.00  0.00    +0.000 A 
ATOM     20  C   UNL     1     108.404 130.166 136.041  0.00  0.00    +0.000 A 
BRANCH  18  21
ATOM     21  O   UNL     1     108.228 128.757 135.877  0.00  0.00    +0.000 OA
ATOM     22  C   UNL     1     108.560 128.014 135.744  0.00  0.00    +0.000 C 
ENDBRANCH  18  21
ENDBRANCH   9  15
ENDBRANCH   1   5
BRANCH   1  31
ATOM     23  O   UNL     1     113.059 127.810 139.300  0.00  0.00    +0.000 OA
ATOM     24  O   UNL     1     112.544 126.361 140.850  0.00  0.00    +0.000 OA
ATOM     25  O   UNL     1     112.376 127.778 141.679  0.00  0.00    +0.000 OA
ATOM     26  O   UNL     1     112.662 129.216 140.922  0.00  0.00    +0.000 OA
ATOM     27  C   UNL     1     112.916 127.091 139.678  0.00  0.00    +0.000 C 
ATOM     28  C   UNL     1     112.688 127.080 140.472  0.00  0.00    +0.000 C 
ATOM     29  C   UNL     1     112.604 127.789 140.886  0.00  0.00    +0.000 C 
ATOM     30  C   UNL     1     112.747 128.508 140.507  0.00  0.00    +0.000 C 
ATOM     31  C   UNL     1     112.974 128.518 139.715  0.00  0.00    +0.000 C 
BRANCH  27  32
ATOM     32  C   UNL     1     113.000 126.382 139.264  0.00  0.00    +0.000 C 
BRANCH  32  33
ATOM     33  O   UNL     1     112.522 126.227 138.610  0.00  0.00    +0.000 OA
BRANCH  33  39
ATOM     34  O   UNL     1     113.546 125.506 137.921  0.00  0.00    +0.000 OA
ATOM     35  O   UNL     1     111.371 125.365 137.802  0.00  0.00    +0.000 OA
ATOM     36  O   UNL     1     111.819 124.212 136.709  0.00  0.00    +0.000 OA
ATOM     37  O   UNL     1     113.418 123.922 136.424  0.00  0.00    +0.000 OA
ATOM     38  C   UNL     1     112.171 125.220 137.659  0.00  0.00    +0.000 C 
ATOM     39  C   UNL     1     112.747 125.651 138.063  0.00  0.00    +0.000 C 
ATOM     40  C   UNL     1     112.394 124.644 137.113  0.00  0.00    +0.000 C 
ATOM     41  C   UNL     1     113.194 124.499 136.971  0.00  0.00    +0.000 C 
ATOM     42  C   UNL     1     113.770 124.930 137.375  0.00  0.00    +0.000 C 
ATOM     43  C   UNL     1     114.569 124.785 137.232  0.00  0.00    +0.000 C 
ENDBRANCH  33  39
ENDBRANCH  32  33
ENDBRANCH  27  32
ENDBRANCH   1  31
TORSDOF 7
ENDMDL
MODEL 5
REMARK VINA RESULT:      -9.9      2.393      5.689
REMARK  Name = 42608007
REMARK  7 active torsions:
REMARK  status: ('A' for Active; 'I' for Inactive)
REMARK    1  A    between atoms: O_2  and  C_21
REMARK    2  A    between atoms: O_2  and  C_25
REMARK    3  A    between atoms: O_5  and  C_24
REMARK    4  A    between atoms: O_5  and  C_28
REMARK    5  A    between atoms: O_14  and  C_40
REMARK    6  A    between atoms: C_16  and  C_25
REMARK    7  A    between atoms: C_32  and  C_37
REMARK                            x       y       z     vdW  Elec       q    Type
REMARK                         _______ _______ _______ _____ _____    ______ ____
ROOT
ATOM      1  O   UNL     1     110.922 127.493 135.508  0.00  0.00    +0.000 OA
ENDROOT
BRANCH   1   5
ATOM      2  O   UNL     1     110.146 130.073 136.614  0.00  0.00    +0.000 OA
ATOM      3  O   UNL     1     108.114 128.294 135.588  0.00  0.00    +0.000 OA
ATOM      4  O   UNL     1     107.767 129.579 136.143  0.00  0.00    +0.000 OA
ATOM      5  C   UNL     1     110.337 128.043 135.701  0.00  0.00    +0.000 A 
ATOM      6  C   UNL     1     110.551 128.790 136.066  0.00  0.00    +0.000 A 
ATOM      7  C   UNL     1     109.935 129.356 136.263  0.00  0.00    +0.000 A 
ATOM      8  C   UNL     1     109.511 127.871 135.537  0.00  0.00    +0.000 A 
ATOM      9  C   UNL     1     109.564 130.624 136.808  0.00  0.00    +0.000 C 
ATOM     10  C   UNL     1     109.142 129.192 136.106  0.00  0.00    +0.000 A 
ATOM     11  C   UNL     1     108.771 130.459 136.651  0.00  0.00    +0.000 C 
ATOM     12  C   UNL     1     108.910 128.449 135.741  0.00  0.00    +0.000 A 
ATOM     13  C   UNL     1     108.560 129.743 136.300  0.00  0.00    +0.000 C 
BRANCH   9  15
ATOM     14  O   UNL     1     110.407 133.489 138.213  0.00  0.00    +0.000 OA
ATOM     15  C   UNL     1     109.775 131.340 137.159  0.00  0.00    +0.000 A 
ATOM     16  C   UNL     1     109.842 131.394 137.980  0.00  0.00    +0.000 A 
ATOM     17  C   UNL     1     109.918 132.003 136.689  0.00  0.00    +0.000 A 
ATOM     18  C   UNL     1     110.052 132.110 138.331  0.00  0.00    +0.000 A 
ATOM     19  C   UNL     1     110.129 132.720 137.041  0.00  0.00    +0.000 A 
ATOM     20  C   UNL     1     110.196 132.773 137.862  0.00  0.00    +0.000 A 
BRANCH  18  21
ATOM     21  O   UNL     1     110.119 132.163 139.152  0.00  0.00    +0.000 OA
ATOM     22  C   UNL     1     110.137 131.477 139.610  0.00  0.00    +0.000 C 
ENDBRANCH  18  21
ENDBRANCH   9  15
ENDBRANCH   1   5
BRANCH   1  31
ATOM     23  O   UNL     1     111.122 126.841 136.764  0.00  0.00    +0.000 OA
ATOM     24  O   UNL     1     111.226 124.720 137.272  0.00  0.00    +0.000 OA
ATOM     25  O   UNL     1     110.978 124.638 135.642  0.00  0.00    +0.000 OA
ATOM     26  O   UNL     1     110.826 126.025 134.760  0.00  0.00    +0.000 OA
ATOM     27  C   UNL     1     111.198 126.148 137.205  0.00  0.00    +0.000 C 
ATOM     28  C   UNL     1     111.150 125.413 136.831  0.00  0.00    +0.000 C 
ATOM     29  C   UNL     1     111.026 125.373 136.016  0.00  0.00    +0.000 C 
ATOM     30  C   UNL     1     110.950 126.066 135.575  0.00  0.00    +0.000 C 
ATOM     31  C   UNL     1     110.998 126.799 135.949  0.00  0.00    +0.000 C 
BRANCH  27  32
ATOM     32  C   UNL     1     111.322 126.188 138.019  0.00  0.00    +0.000 C 
BRANCH  32  33
ATOM     33  O   UNL     1     111.940 126.643 138.321  0.00  0.00    +0.000 OA
BRANCH  33  39
ATOM     34  O   UNL     1     111.397 126.658 139.643  0.00  0.00    +0.000 OA
ATOM     35  O   UNL     1     113.454 126.855 138.940  0.00  0.00    +0.000 OA
ATOM     36  O   UNL     1     113.669 126.976 140.572  0.00  0.00    +0.000 OA
ATOM     37  O   UNL     1     112.369 126.885 141.584  0.00  0.00    +0.000 OA
ATOM     38  C   UNL     1     112.804 126.810 139.447  0.00  0.00    +0.000 C 
ATOM     39  C   UNL     1     112.046 126.704 139.137  0.00  0.00    +0.000 C 
ATOM     40  C   UNL     1     112.912 126.870 140.262  0.00  0.00    +0.000 C 
ATOM     41  C   UNL     1     112.261 126.825 140.768  0.00  0.00    +0.000 C 
ATOM     42  C   UNL     1     111.504 126.719 140.458  0.00  0.00    +0.000 C 
ATOM     43  C   UNL     1     110.854 126.674 140.965  0.00  0.00    +0.000 C 
ENDBRANCH  33  39
ENDBRANCH  32  33
ENDBRANCH  27  32
ENDBRANCH   1  31
TORSDOF 7
ENDMDL
MODEL 6
REMARK VINA RESULT:      -9.9      2.032      4.112
REMARK  Name = 42608007
REMARK  7 active torsions:
REMARK  status: ('A' for Active; 'I' for Inactive)
REMARK    1  A    between atoms: O_2  and  C_21
REMARK    2  A    between atoms: O_2  and  C_25
REMARK    3  A    between atoms: O_5  and  C_24
REMARK    4  A    between atoms: O_5  and  C_28
REMARK    5  A    between atoms: O_14  and  C_40
REMARK    6  A    between atoms: C_16  and  C_25
REMARK    7  A    between atoms: C_32  and  C_37
REMARK                            x       y       z     vdW  Elec       q    Type
REMARK                         _______ _______ _______ _____ _____    ______ ____
ROOT
ATOM      1  O   UNL     1     112.959 130.060 138.883  0.00  0.00    +0.000 OA
ENDROOT
BRANCH   1   5
ATOM      2  O   UNL     1     113.219 127.571 137.393  0.00  0.00    +0.000 OA
ATOM      3  O   UNL     1     113.509 130.094 136.015  0.00  0.00    +0.000 OA
ATOM      4  O   UNL     1     113.632 128.841 135.310  0.00  0.00    +0.000 OA
ATOM      5  C   UNL     1     113.091 129.661 138.173  0.00  0.00    +0.000 A 
ATOM      6  C   UNL     1     113.086 128.802 138.152  0.00  0.00    +0.000 A 
ATOM      7  C   UNL     1     113.225 128.396 137.408  0.00  0.00    +0.000 A 
ATOM      8  C   UNL     1     113.234 130.102 137.449  0.00  0.00    +0.000 A 
ATOM      9  C   UNL     1     113.351 127.170 136.685  0.00  0.00    +0.000 C 
ATOM     10  C   UNL     1     113.362 128.820 136.713  0.00  0.00    +0.000 A 
ATOM     11  C   UNL     1     113.488 127.594 135.990  0.00  0.00    +0.000 C 
ATOM     12  C   UNL     1     113.371 129.679 136.714  0.00  0.00    +0.000 A 
ATOM     13  C   UNL     1     113.494 128.419 136.004  0.00  0.00    +0.000 C 
BRANCH   9  15
ATOM     14  O   UNL     1     113.327 123.871 136.628  0.00  0.00    +0.000 OA
ATOM     15  C   UNL     1     113.345 126.345 136.670  0.00  0.00    +0.000 A 
ATOM     16  C   UNL     1     112.631 125.939 136.594  0.00  0.00    +0.000 A 
ATOM     17  C   UNL     1     114.054 125.927 136.732  0.00  0.00    +0.000 A 
ATOM     18  C   UNL     1     112.625 125.114 136.580  0.00  0.00    +0.000 A 
ATOM     19  C   UNL     1     114.047 125.101 136.718  0.00  0.00    +0.000 A 
ATOM     20  C   UNL     1     113.333 124.695 136.642  0.00  0.00    +0.000 A 
BRANCH  18  21
ATOM     21  O   UNL     1     111.911 124.707 136.504  0.00  0.00    +0.000 OA
ATOM     22  C   UNL     1     111.280 125.053 136.100  0.00  0.00    +0.000 C 
ENDBRANCH  18  21
ENDBRANCH   9  15
ENDBRANCH   1   5
BRANCH   1  31
ATOM     23  O   UNL     1     111.557 130.239 138.674  0.00  0.00    +0.000 OA
ATOM     24  O   UNL     1     109.899 130.309 140.092  0.00  0.00    +0.000 OA
ATOM     25  O   UNL     1     111.173 130.077 141.114  0.00  0.00    +0.000 OA
ATOM     26  O   UNL     1     112.703 129.952 140.510  0.00  0.00    +0.000 OA
ATOM     27  C   UNL     1     110.792 130.301 138.976  0.00  0.00    +0.000 C 
ATOM     28  C   UNL     1     110.664 130.247 139.790  0.00  0.00    +0.000 C 
ATOM     29  C   UNL     1     111.301 130.131 140.300  0.00  0.00    +0.000 C 
ATOM     30  C   UNL     1     112.066 130.069 139.998  0.00  0.00    +0.000 C 
ATOM     31  C   UNL     1     112.194 130.122 139.186  0.00  0.00    +0.000 C 
BRANCH  27  32
ATOM     32  C   UNL     1     110.154 130.417 138.466  0.00  0.00    +0.000 C 
BRANCH  32  33
ATOM     33  O   UNL     1     110.015 129.884 137.851  0.00  0.00    +0.000 OA
BRANCH  33  39
ATOM     34  O   UNL     1     109.122 130.816 137.237  0.00  0.00    +0.000 OA
ATOM     35  O   UNL     1     109.578 128.738 136.748  0.00  0.00    +0.000 OA
ATOM     36  O   UNL     1     108.467 129.097 135.581  0.00  0.00    +0.000 OA
ATOM     37  O   UNL     1     107.793 130.601 135.519  0.00  0.00    +0.000 OA
ATOM     38  C   UNL     1     109.241 129.491 136.717  0.00  0.00    +0.000 C 
ATOM     39  C   UNL     1     109.459 130.064 137.268  0.00  0.00    +0.000 C 
ATOM     40  C   UNL     1     108.686 129.670 136.133  0.00  0.00    +0.000 C 
ATOM     41  C   UNL     1     108.349 130.422 136.103  0.00  0.00    +0.000 C 
ATOM     42  C   UNL     1     108.567 130.995 136.654  0.00  0.00    +0.000 C 
ATOM     43  C   UNL     1     108.230 131.748 136.623  0.00  0.00    +0.000 C 
ENDBRANCH  33  39
ENDBRANCH  32  33
ENDBRANCH  27  32
ENDBRANCH   1  31
TORSDOF 7
ENDMDL
MODEL 7
REMARK VINA RESULT:      -9.9      1.788      4.707
REMARK  Name = 42608007
REMARK  7 active torsions:
REMARK  status: ('A' for Active; 'I' for Inactive)
REMARK    1  A    between atoms: O_2  and  C_21
REMARK    2  A    between atoms: O_2  and  C_25
REMARK    3  A    between atoms: O_5  and  C_24
REMARK    4  A    between atoms: O_5  and  C_28
REMARK    5  A    between atoms: O_14  and  C_40
REMARK    6  A    between atoms: C_16  and  C_25
REMARK    7  A    between atoms: C_32  and  C_37
REMARK                            x       y       z     vdW  Elec       q    Type
REMARK                         _______ _______ _______ _____ _____    ______ ____
ROOT
ATOM      1  O   UNL     1     110.542 129.600 135.312  0.00  0.00    +0.000 OA
ENDROOT
BRANCH   1   5
ATOM      2  O   UNL     1     112.647 129.807 137.314  0.00  0.00    +0.000 OA
ATOM      3  O   UNL     1     113.318 129.014 134.618  0.00  0.00    +0.000 OA
ATOM      4  O   UNL     1     114.334 129.127 135.636  0.00  0.00    +0.000 OA
ATOM      5  C   UNL     1     111.337 129.538 135.524  0.00  0.00    +0.000 A 
ATOM      6  C   UNL     1     111.585 129.709 136.329  0.00  0.00    +0.000 A 
ATOM      7  C   UNL     1     112.415 129.641 136.540  0.00  0.00    +0.000 A 
ATOM      8  C   UNL     1     111.923 129.302 134.941  0.00  0.00    +0.000 A 
ATOM      9  C   UNL     1     113.441 129.746 137.529  0.00  0.00    +0.000 C 
ATOM     10  C   UNL     1     112.977 129.415 135.980  0.00  0.00    +0.000 A 
ATOM     11  C   UNL     1     114.003 129.519 136.969  0.00  0.00    +0.000 C 
ATOM     12  C   UNL     1     112.748 129.240 135.171  0.00  0.00    +0.000 A 
ATOM     13  C   UNL     1     113.771 129.354 136.195  0.00  0.00    +0.000 C 
BRANCH   9  15
ATOM     14  O   UNL     1     114.369 130.406 140.626  0.00  0.00    +0.000 OA
ATOM     15  C   UNL     1     113.673 129.911 138.303  0.00  0.00    +0.000 A 
ATOM     16  C   UNL     1     113.483 129.387 138.912  0.00  0.00    +0.000 A 
ATOM     17  C   UNL     1     114.096 130.600 138.469  0.00  0.00    +0.000 A 
ATOM     18  C   UNL     1     113.714 129.552 139.686  0.00  0.00    +0.000 A 
ATOM     19  C   UNL     1     114.328 130.764 139.244  0.00  0.00    +0.000 A 
ATOM     20  C   UNL     1     114.137 130.241 139.852  0.00  0.00    +0.000 A 
BRANCH  18  21
ATOM     21  O   UNL     1     113.523 129.029 140.295  0.00  0.00    +0.000 OA
ATOM     22  C   UNL     1     112.785 128.661 140.306  0.00  0.00    +0.000 C 
ENDBRANCH  18  21
ENDBRANCH   9  15
ENDBRANCH   1   5
BRANCH   1  31
ATOM     23  O   UNL     1     110.275 128.295 135.830  0.00  0.00    +0.000 OA
ATOM     24  O   UNL     1     108.388 127.300 136.293  0.00  0.00    +0.000 OA
ATOM     25  O   UNL     1     107.845 128.759 135.747  0.00  0.00    +0.000 OA
ATOM     26  O   UNL     1     108.922 129.909 135.257  0.00  0.00    +0.000 OA
ATOM     27  C   UNL     1     109.737 127.720 136.075  0.00  0.00    +0.000 C 
ATOM     28  C   UNL     1     108.926 127.875 136.047  0.00  0.00    +0.000 C 
ATOM     29  C   UNL     1     108.656 128.605 135.775  0.00  0.00    +0.000 C 
ATOM     30  C   UNL     1     109.194 129.180 135.530  0.00  0.00    +0.000 C 
ATOM     31  C   UNL     1     110.003 129.025 135.557  0.00  0.00    +0.000 C 
BRANCH  27  32
ATOM     32  C   UNL     1     110.008 126.990 136.347  0.00  0.00    +0.000 C 
BRANCH  32  33
ATOM     33  O   UNL     1     110.524 126.542 135.885  0.00  0.00    +0.000 OA
BRANCH  33  39
ATOM     34  O   UNL     1     111.494 126.216 136.883  0.00  0.00    +0.000 OA
ATOM     35  O   UNL     1     110.589 124.994 135.316  0.00  0.00    +0.000 OA
ATOM     36  O   UNL     1     111.592 123.895 136.029  0.00  0.00    +0.000 OA
ATOM     37  O   UNL     1     112.530 124.343 137.311  0.00  0.00    +0.000 OA
ATOM     38  C   UNL     1     111.058 125.219 135.958  0.00  0.00    +0.000 C 
ATOM     39  C   UNL     1     111.025 125.993 136.242  0.00  0.00    +0.000 C 
ATOM     40  C   UNL     1     111.560 124.669 136.314  0.00  0.00    +0.000 C 
ATOM     41  C   UNL     1     112.028 124.894 136.954  0.00  0.00    +0.000 C 
ATOM     42  C   UNL     1     111.995 125.667 137.239  0.00  0.00    +0.000 C 
ATOM     43  C   UNL     1     112.464 125.891 137.880  0.00  0.00    +0.000 C 
ENDBRANCH  33  39
ENDBRANCH  32  33
ENDBRANCH  27  32
ENDBRANCH   1  31
TORSDOF 7
ENDMDL
MODEL 8
REMARK VINA RESULT:      -9.9      2.311      3.344
REMARK  Name = 42608007
REMARK  7 active torsions:
REMARK  status: ('A' for Active; 'I' for Inactive)
REMARK    1  A    between atoms: O_2  and  C_21
REMARK    2  A    between atoms: O_2  and  C_25
REMARK    3  A    between atoms: O_5  and  C_24
REMARK    4  A    between atoms: O_5  and  C_28
REMARK    5  A    between atoms: O_14  and  C_40
REMARK    6  A    between atoms: C_16  and  C_25
REMARK    7  A    between atoms: C_32  and  C_37
REMARK                            x       y       z     vdW  Elec       q    Type
REMARK                         _______ _______ _______ _____ _____    ______ ____
ROOT
ATOM      1  O   UNL     1     110.426 130.769 135.972  0.00  0.00    +0.000 OA
ENDROOT
BRANCH   1   5
ATOM      2  O   UNL     1     110.357 127.857 135.997  0.00  0.00    +0.000 OA
ATOM      3  O   UNL     1     107.887 129.339 135.768  0.00  0.00    +0.000 OA
ATOM      4  O   UNL     1     107.891 127.896 135.783  0.00  0.00    +0.000 OA
ATOM      5  C   UNL     1     110.000 130.062 135.943  0.00  0.00    +0.000 A 
ATOM      6  C   UNL     1     110.410 129.308 135.986  0.00  0.00    +0.000 A 
ATOM      7  C   UNL     1     109.958 128.578 135.955  0.00  0.00    +0.000 A 
ATOM      8  C   UNL     1     109.143 130.076 135.868  0.00  0.00    +0.000 A 
ATOM      9  C   UNL     1     109.934 127.149 135.968  0.00  0.00    +0.000 C 
ATOM     10  C   UNL     1     109.136 128.591 135.884  0.00  0.00    +0.000 A 
ATOM     11  C   UNL     1     109.112 127.163 135.897  0.00  0.00    +0.000 C 
ATOM     12  C   UNL     1     108.709 129.335 135.839  0.00  0.00    +0.000 A 
ATOM     13  C   UNL     1     108.713 127.884 135.855  0.00  0.00    +0.000 C 
BRANCH   9  15
ATOM     14  O   UNL     1     111.529 124.266 136.137  0.00  0.00    +0.000 OA
ATOM     15  C   UNL     1     110.332 126.428 136.010  0.00  0.00    +0.000 A 
ATOM     16  C   UNL     1     110.534 126.111 136.744  0.00  0.00    +0.000 A 
ATOM     17  C   UNL     1     110.530 126.025 135.318  0.00  0.00    +0.000 A 
ATOM     18  C   UNL     1     110.933 125.390 136.787  0.00  0.00    +0.000 A 
ATOM     19  C   UNL     1     110.929 125.303 135.361  0.00  0.00    +0.000 A 
ATOM     20  C   UNL     1     111.130 124.987 136.095  0.00  0.00    +0.000 A 
BRANCH  18  21
ATOM     21  O   UNL     1     111.134 125.072 137.522  0.00  0.00    +0.000 OA
ATOM     22  C   UNL     1     111.338 125.572 138.146  0.00  0.00    +0.000 C 
ENDBRANCH  18  21
ENDBRANCH   9  15
ENDBRANCH   1   5
BRANCH   1  31
ATOM     23  O   UNL     1     110.702 130.837 137.372  0.00  0.00    +0.000 OA
ATOM     24  O   UNL     1     110.557 132.502 138.777  0.00  0.00    +0.000 OA
ATOM     25  O   UNL     1     110.071 133.231 137.379  0.00  0.00    +0.000 OA
ATOM     26  O   UNL     1     110.005 132.364 135.977  0.00  0.00    +0.000 OA
ATOM     27  C   UNL     1     110.735 131.270 138.073  0.00  0.00    +0.000 C 
ATOM     28  C   UNL     1     110.524 132.068 138.076  0.00  0.00    +0.000 C 
ATOM     29  C   UNL     1     110.281 132.432 137.377  0.00  0.00    +0.000 C 
ATOM     30  C   UNL     1     110.248 131.999 136.675  0.00  0.00    +0.000 C 
ATOM     31  C   UNL     1     110.458 131.202 136.673  0.00  0.00    +0.000 C 
BRANCH  27  32
ATOM     32  C   UNL     1     110.978 130.906 138.772  0.00  0.00    +0.000 C 
BRANCH  32  33
ATOM     33  O   UNL     1     111.719 130.545 138.814  0.00  0.00    +0.000 OA
BRANCH  33  39
ATOM     34  O   UNL     1     111.331 129.489 139.696  0.00  0.00    +0.000 OA
ATOM     35  O   UNL     1     113.195 130.615 139.548  0.00  0.00    +0.000 OA
ATOM     36  O   UNL     1     113.545 129.593 140.795  0.00  0.00    +0.000 OA
ATOM     37  O   UNL     1     112.419 128.503 141.310  0.00  0.00    +0.000 OA
ATOM     38  C   UNL     1     112.631 130.069 139.805  0.00  0.00    +0.000 C 
ATOM     39  C   UNL     1     111.893 130.034 139.438  0.00  0.00    +0.000 C 
ATOM     40  C   UNL     1     112.807 129.559 140.429  0.00  0.00    +0.000 C 
ATOM     41  C   UNL     1     112.244 129.014 140.686  0.00  0.00    +0.000 C 
ATOM     42  C   UNL     1     111.506 128.979 140.319  0.00  0.00    +0.000 C 
ATOM     43  C   UNL     1     110.943 128.433 140.577  0.00  0.00    +0.000 C 
ENDBRANCH  33  39
ENDBRANCH  32  33
ENDBRANCH  27  32
ENDBRANCH   1  31
TORSDOF 7
ENDMDL
MODEL 9
REMARK VINA RESULT:      -9.9      1.601      3.664
REMARK  Name = 42608007
REMARK  7 active torsions:
REMARK  status: ('A' for Active; 'I' for Inactive)
REMARK    1  A    between atoms: O_2  and  C_21
REMARK    2  A    between atoms: O_2  and  C_25
REMARK    3  A    between atoms: O_5  and  C_24
REMARK    4  A    between atoms: O_5  and  C_28
REMARK    5  A    between atoms: O_14  and  C_40
REMARK    6  A    between atoms: C_16  and  C_25
REMARK    7  A    between atoms: C_32  and  C_37
REMARK                            x       y       z     vdW  Elec       q    Type
REMARK                         _______ _______ _______ _____ _____    ______ ____
ROOT
ATOM      1  O   UNL     1     112.978 129.426 134.913  0.00  0.00    +0.000 OA
ENDROOT
BRANCH   1   5
ATOM      2  O   UNL     1     111.873 126.938 135.949  0.00  0.00    +0.000 OA
ATOM      3  O   UNL     1     110.136 128.820 134.612  0.00  0.00    +0.000 OA
ATOM      4  O   UNL     1     109.625 127.579 135.138  0.00  0.00    +0.000 OA
ATOM      5  C   UNL     1     112.334 128.923 135.032  0.00  0.00    +0.000 A 
ATOM      6  C   UNL     1     112.441 128.173 135.439  0.00  0.00    +0.000 A 
ATOM      7  C   UNL     1     111.765 127.656 135.558  0.00  0.00    +0.000 A 
ATOM      8  C   UNL     1     111.554 129.145 134.750  0.00  0.00    +0.000 A 
ATOM      9  C   UNL     1     111.232 126.434 136.070  0.00  0.00    +0.000 C 
ATOM     10  C   UNL     1     111.016 127.870 135.288  0.00  0.00    +0.000 A 
ATOM     11  C   UNL     1     110.482 126.647 135.799  0.00  0.00    +0.000 C 
ATOM     12  C   UNL     1     110.890 128.615 134.879  0.00  0.00    +0.000 A 
ATOM     13  C   UNL     1     110.374 127.366 135.408  0.00  0.00    +0.000 C 
BRANCH   9  15
ATOM     14  O   UNL     1     111.664 123.561 137.635  0.00  0.00    +0.000 OA
ATOM     15  C   UNL     1     111.340 125.715 136.461  0.00  0.00    +0.000 A 
ATOM     16  C   UNL     1     111.312 125.686 137.285  0.00  0.00    +0.000 A 
ATOM     17  C   UNL     1     111.476 125.026 136.028  0.00  0.00    +0.000 A 
ATOM     18  C   UNL     1     111.420 124.968 137.677  0.00  0.00    +0.000 A 
ATOM     19  C   UNL     1     111.584 124.308 136.420  0.00  0.00    +0.000 A 
ATOM     20  C   UNL     1     111.556 124.279 137.244  0.00  0.00    +0.000 A 
BRANCH  18  21
ATOM     21  O   UNL     1     111.392 124.939 138.501  0.00  0.00    +0.000 OA
ATOM     22  C   UNL     1     110.884 125.440 138.915  0.00  0.00    +0.000 C 
ENDBRANCH  18  21
ENDBRANCH   9  15
ENDBRANCH   1   5
BRANCH   1  31
ATOM     23  O   UNL     1     112.753 130.328 135.998  0.00  0.00    +0.000 OA
ATOM     24  O   UNL     1     114.145 131.235 137.414  0.00  0.00    +0.000 OA
ATOM     25  O   UNL     1     115.178 130.335 136.494  0.00  0.00    +0.000 OA
ATOM     26  O   UNL     1     114.595 129.431 135.243  0.00  0.00    +0.000 OA
ATOM     27  C   UNL     1     113.044 130.780 136.623  0.00  0.00    +0.000 C 
ATOM     28  C   UNL     1     113.853 130.782 136.789  0.00  0.00    +0.000 C 
ATOM     29  C   UNL     1     114.369 130.333 136.328  0.00  0.00    +0.000 C 
ATOM     30  C   UNL     1     114.078 129.880 135.703  0.00  0.00    +0.000 C 
ATOM     31  C   UNL     1     113.270 129.878 135.538  0.00  0.00    +0.000 C 
BRANCH  27  32
ATOM     32  C   UNL     1     112.529 131.230 137.083  0.00  0.00    +0.000 C 
BRANCH  32  33
ATOM     33  O   UNL     1     111.904 130.865 137.481  0.00  0.00    +0.000 OA
BRANCH  33  39
ATOM     34  O   UNL     1     111.137 132.068 137.403  0.00  0.00    +0.000 OA
ATOM     35  O   UNL     1     110.783 130.215 138.502  0.00  0.00    +0.000 OA
ATOM     36  O   UNL     1     109.455 131.093 138.936  0.00  0.00    +0.000 OA
ATOM     37  O   UNL     1     109.248 132.621 138.348  0.00  0.00    +0.000 OA
ATOM     38  C   UNL     1     110.680 130.980 138.208  0.00  0.00    +0.000 C 
ATOM     39  C   UNL     1     111.240 131.304 137.697  0.00  0.00    +0.000 C 
ATOM     40  C   UNL     1     110.016 131.418 138.425  0.00  0.00    +0.000 C 
ATOM     41  C   UNL     1     109.913 132.182 138.131  0.00  0.00    +0.000 C 
ATOM     42  C   UNL     1     110.474 132.507 137.620  0.00  0.00    +0.000 C 
ATOM     43  C   UNL     1     110.370 133.271 137.326  0.00  0.00    +0.000 C 
ENDBRANCH  33  39
ENDBRANCH  32  33
ENDBRANCH  27  32
ENDBRANCH   1  31
TORSDOF 7
ENDMDL
MODEL 10
REMARK VINA RESULT:      -9.8      2.468      5.856
REMARK  Name = 42608007
REMARK  7 active torsions:
REMARK  status: ('A' for Active; 'I' for Inactive)
REMARK    1  A    between atoms: O_2  and  C_21
REMARK    2  A    between atoms: O_2  and  C_25
REMARK    3  A    between atoms: O_5  and  C_24
REMARK    4  A    between atoms: O_5  and  C_28
REMARK    5  A    between atoms: O_14  and  C_40
REMARK    6  A    between atoms: C_16  and  C_25
REMARK    7  A    between atoms: C_32  and  C_37
REMARK                            x       y       z     vdW  Elec       q    Type
REMARK                         _______ _______ _______ _____ _____    ______ ____
ROOT
ATOM      1  O   UNL     1     111.005 127.184 135.747  0.00  0.00    +0.000 OA
ENDROOT
BRANCH   1   5
ATOM      2  O   UNL     1     111.131 129.885 136.829  0.00  0.00    +0.000 OA
ATOM      3  O   UNL     1     113.506 128.693 135.694  0.00  0.00    +0.000 OA
ATOM      4  O   UNL     1     113.530 130.028 136.239  0.00  0.00    +0.000 OA
ATOM      5  C   UNL     1     111.434 127.869 135.914  0.00  0.00    +0.000 A 
ATOM      6  C   UNL     1     111.050 128.537 136.294  0.00  0.00    +0.000 A 
ATOM      7  C   UNL     1     111.505 129.246 136.464  0.00  0.00    +0.000 A 
ATOM      8  C   UNL     1     112.267 127.919 135.709  0.00  0.00    +0.000 A 
ATOM      9  C   UNL     1     111.558 130.571 136.997  0.00  0.00    +0.000 C 
ATOM     10  C   UNL     1     112.305 129.294 136.267  0.00  0.00    +0.000 A 
ATOM     11  C   UNL     1     112.357 130.618 136.800  0.00  0.00    +0.000 C 
ATOM     12  C   UNL     1     112.705 128.636 135.887  0.00  0.00    +0.000 A 
ATOM     13  C   UNL     1     112.731 129.980 136.435  0.00  0.00    +0.000 C 
BRANCH   9  15
ATOM     14  O   UNL     1     110.063 133.126 138.457  0.00  0.00    +0.000 OA
ATOM     15  C   UNL     1     111.184 131.210 137.362  0.00  0.00    +0.000 A 
ATOM     16  C   UNL     1     111.008 131.180 138.167  0.00  0.00    +0.000 A 
ATOM     17  C   UNL     1     110.987 131.879 136.921  0.00  0.00    +0.000 A 
ATOM     18  C   UNL     1     110.634 131.818 138.533  0.00  0.00    +0.000 A 
ATOM     19  C   UNL     1     110.613 132.518 137.287  0.00  0.00    +0.000 A 
ATOM     20  C   UNL     1     110.437 132.487 138.092  0.00  0.00    +0.000 A 
BRANCH  18  21
ATOM     21  O   UNL     1     110.458 131.788 139.338  0.00  0.00    +0.000 OA
ATOM     22  C   UNL     1     110.217 131.077 139.682  0.00  0.00    +0.000 C 
ENDBRANCH  18  21
ENDBRANCH   9  15
ENDBRANCH   1   5
BRANCH   1  31
ATOM     23  O   UNL     1     111.450 126.491 136.915  0.00  0.00    +0.000 OA
ATOM     24  O   UNL     1     111.741 124.359 137.287  0.00  0.00    +0.000 OA
ATOM     25  O   UNL     1     111.218 124.334 135.722  0.00  0.00    +0.000 OA
ATOM     26  O   UNL     1     110.850 125.746 134.952  0.00  0.00    +0.000 OA
ATOM     27  C   UNL     1     111.635 125.785 137.300  0.00  0.00    +0.000 C 
ATOM     28  C   UNL     1     111.557 125.065 136.902  0.00  0.00    +0.000 C 
ATOM     29  C   UNL     1     111.296 125.053 136.120  0.00  0.00    +0.000 C 
ATOM     30  C   UNL     1     111.112 125.759 135.735  0.00  0.00    +0.000 C 
ATOM     31  C   UNL     1     111.189 126.478 136.132  0.00  0.00    +0.000 C 
BRANCH  27  32
ATOM     32  C   UNL     1     111.896 125.797 138.082  0.00  0.00    +0.000 C 
BRANCH  32  33
ATOM     33  O   UNL     1     111.488 126.238 138.647  0.00  0.00    +0.000 OA
BRANCH  33  39
ATOM     34  O   UNL     1     112.625 126.717 139.368  0.00  0.00    +0.000 OA
ATOM     35  O   UNL     1     110.670 126.045 140.066  0.00  0.00    +0.000 OA
ATOM     36  O   UNL     1     111.397 126.428 141.497  0.00  0.00    +0.000 OA
ATOM     37  O   UNL     1     112.944 127.003 141.508  0.00  0.00    +0.000 OA
ATOM     38  C   UNL     1     111.443 126.333 140.072  0.00  0.00    +0.000 C 
ATOM     39  C   UNL     1     111.853 126.430 139.362  0.00  0.00    +0.000 C 
ATOM     40  C   UNL     1     111.807 126.524 140.787  0.00  0.00    +0.000 C 
ATOM     41  C   UNL     1     112.580 126.812 140.792  0.00  0.00    +0.000 C 
ATOM     42  C   UNL     1     112.989 126.908 140.082  0.00  0.00    +0.000 C 
ATOM     43  C   UNL     1     113.762 127.196 140.089  0.00  0.00    +0.000 C 
ENDBRANCH  33  39
ENDBRANCH  32  33
ENDBRANCH  27  32
ENDBRANCH   1  31
TORSDOF 7
ENDMDL
