MODEL 1
REMARK VINA RESULT:      -9.3      0.000      0.000
REMARK  Name = 74978460
REMARK  5 active torsions:
REMARK  status: ('A' for Active; 'I' for Inactive)
REMARK    1  A    between atoms: O_2  and  C_18
REMARK    2  A    between atoms: O_2  and  C_20
REMARK    3  A    between atoms: O_11  and  C_29
REMARK    4  A    between atoms: C_17  and  C_19
REMARK    5  A    between atoms: C_23  and  C_24
REMARK                            x       y       z     vdW  Elec       q    Type
REMARK                         _______ _______ _______ _____ _____    ______ ____
ROOT
ATOM      1  C   UNL     1     112.512 127.490 136.762  0.00  0.00    +0.000 A 
ATOM      2  C   UNL     1     112.291 127.626 135.978  0.00  0.00    +0.000 A 
ATOM      3  C   UNL     1     112.051 127.787 137.378  0.00  0.00    +0.000 A 
ATOM      4  C   UNL     1     111.147 128.356 136.428  0.00  0.00    +0.000 A 
ATOM      5  C   UNL     1     111.609 128.058 135.811  0.00  0.00    +0.000 A 
ATOM      6  C   UNL     1     111.368 128.220 137.210  0.00  0.00    +0.000 A 
ENDROOT
BRANCH   4  12
ATOM      7  O   UNL     1     110.518 129.626 136.072  0.00  0.00    +0.000 OA
ATOM      8  O   UNL     1     107.876 131.503 135.379  0.00  0.00    +0.000 OA
ATOM      9  O   UNL     1     109.064 132.095 135.359  0.00  0.00    +0.000 OA
ATOM     10  O   UNL     1     107.645 129.767 135.757  0.00  0.00    +0.000 OA
ATOM     11  O   UNL     1     108.249 128.505 136.107  0.00  0.00    +0.000 OA
ATOM     12  C   UNL     1     110.465 128.788 136.260  0.00  0.00    +0.000 A 
ATOM     13  C   UNL     1     109.064 129.700 135.912  0.00  0.00    +0.000 A 
ATOM     14  C   UNL     1     109.802 130.068 135.900  0.00  0.00    +0.000 A 
ATOM     15  C   UNL     1     109.696 128.406 136.273  0.00  0.00    +0.000 A 
ATOM     16  C   UNL     1     108.383 130.135 135.744  0.00  0.00    +0.000 A 
ATOM     17  C   UNL     1     108.441 130.938 135.565  0.00  0.00    +0.000 A 
ATOM     18  C   UNL     1     108.991 128.865 136.098  0.00  0.00    +0.000 A 
ATOM     19  C   UNL     1     109.179 131.306 135.553  0.00  0.00    +0.000 A 
ATOM     20  C   UNL     1     109.860 130.871 135.720  0.00  0.00    +0.000 A 
ATOM     21  C   UNL     1     108.260 132.216 135.252  0.00  0.00    +0.000 C 
BRANCH  15  22
ATOM     22  O   UNL     1     109.634 127.603 136.452  0.00  0.00    +0.000 OA
ATOM     23  C   UNL     1     109.012 127.157 136.146  0.00  0.00    +0.000 C 
ENDBRANCH  15  22
ENDBRANCH   4  12
BRANCH   1  24
ATOM     24  O   UNL     1     113.194 127.058 136.929  0.00  0.00    +0.000 OA
BRANCH  24  33
ATOM     25  O   UNL     1     112.505 125.811 137.047  0.00  0.00    +0.000 OA
ATOM     26  O   UNL     1     114.536 124.617 136.288  0.00  0.00    +0.000 OA
ATOM     27  O   UNL     1     113.170 123.770 136.659  0.00  0.00    +0.000 OA
ATOM     28  O   UNL     1     114.548 126.262 136.423  0.00  0.00    +0.000 OA
ATOM     29  C   UNL     1     113.859 125.015 136.541  0.00  0.00    +0.000 C 
ATOM     30  C   UNL     1     113.176 124.592 136.727  0.00  0.00    +0.000 C 
ATOM     31  C   UNL     1     113.865 125.838 136.609  0.00  0.00    +0.000 C 
ATOM     32  C   UNL     1     112.500 124.989 136.979  0.00  0.00    +0.000 C 
ATOM     33  C   UNL     1     113.189 126.236 136.861  0.00  0.00    +0.000 C 
BRANCH  32  36
ATOM     34  O   UNL     1     111.672 124.338 137.945  0.00  0.00    +0.000 OA
ATOM     35  O   UNL     1     111.278 124.370 136.571  0.00  0.00    +0.000 OA
ATOM     36  C   UNL     1     111.817 124.566 137.165  0.00  0.00    +0.000 C 
ENDBRANCH  32  36
ENDBRANCH  24  33
ENDBRANCH   1  24
TORSDOF 5
ENDMDL
MODEL 2
REMARK VINA RESULT:      -9.3      1.514      6.300
REMARK  Name = 74978460
REMARK  5 active torsions:
REMARK  status: ('A' for Active; 'I' for Inactive)
REMARK    1  A    between atoms: O_2  and  C_18
REMARK    2  A    between atoms: O_2  and  C_20
REMARK    3  A    between atoms: O_11  and  C_29
REMARK    4  A    between atoms: C_17  and  C_19
REMARK    5  A    between atoms: C_23  and  C_24
REMARK                            x       y       z     vdW  Elec       q    Type
REMARK                         _______ _______ _______ _____ _____    ______ ____
ROOT
ATOM      1  C   UNL     1     110.674 129.980 135.908  0.00  0.00    +0.000 A 
ATOM      2  C   UNL     1     110.400 129.202 135.894  0.00  0.00    +0.000 A 
ATOM      3  C   UNL     1     111.377 130.164 136.296  0.00  0.00    +0.000 A 
ATOM      4  C   UNL     1     111.537 128.790 136.658  0.00  0.00    +0.000 A 
ATOM      5  C   UNL     1     110.832 128.607 136.269  0.00  0.00    +0.000 A 
ATOM      6  C   UNL     1     111.809 129.569 136.671  0.00  0.00    +0.000 A 
ENDROOT
BRANCH   4  12
ATOM      7  O   UNL     1     112.513 127.706 136.582  0.00  0.00    +0.000 OA
ATOM      8  O   UNL     1     114.318 125.278 137.935  0.00  0.00    +0.000 OA
ATOM      9  O   UNL     1     114.460 125.486 136.632  0.00  0.00    +0.000 OA
ATOM     10  O   UNL     1     113.215 126.235 138.973  0.00  0.00    +0.000 OA
ATOM     11  O   UNL     1     112.249 127.302 139.067  0.00  0.00    +0.000 OA
ATOM     12  C   UNL     1     111.968 128.195 137.033  0.00  0.00    +0.000 A 
ATOM     13  C   UNL     1     112.870 126.960 137.791  0.00  0.00    +0.000 A 
ATOM     14  C   UNL     1     112.958 127.089 136.981  0.00  0.00    +0.000 A 
ATOM     15  C   UNL     1     111.877 128.060 137.876  0.00  0.00    +0.000 A 
ATOM     16  C   UNL     1     113.303 126.364 138.163  0.00  0.00    +0.000 A 
ATOM     17  C   UNL     1     113.824 125.898 137.725  0.00  0.00    +0.000 A 
ATOM     18  C   UNL     1     112.331 127.438 138.258  0.00  0.00    +0.000 A 
ATOM     19  C   UNL     1     113.912 126.027 136.915  0.00  0.00    +0.000 A 
ATOM     20  C   UNL     1     113.479 126.622 136.543  0.00  0.00    +0.000 A 
ATOM     21  C   UNL     1     114.710 125.024 137.261  0.00  0.00    +0.000 C 
BRANCH  15  22
ATOM     22  O   UNL     1     111.357 128.525 138.317  0.00  0.00    +0.000 OA
ATOM     23  C   UNL     1     111.049 128.240 139.027  0.00  0.00    +0.000 C 
ENDBRANCH  15  22
ENDBRANCH   4  12
BRANCH   1  24
ATOM     24  O   UNL     1     110.242 130.575 135.533  0.00  0.00    +0.000 OA
BRANCH  24  33
ATOM     25  O   UNL     1     109.532 131.042 136.682  0.00  0.00    +0.000 OA
ATOM     26  O   UNL     1     107.504 131.360 135.301  0.00  0.00    +0.000 OA
ATOM     27  O   UNL     1     107.471 131.721 136.909  0.00  0.00    +0.000 OA
ATOM     28  O   UNL     1     108.890 130.787 134.612  0.00  0.00    +0.000 OA
ATOM     29  C   UNL     1     108.180 131.254 135.761  0.00  0.00    +0.000 C 
ATOM     30  C   UNL     1     108.164 131.434 136.566  0.00  0.00    +0.000 C 
ATOM     31  C   UNL     1     108.874 130.967 135.417  0.00  0.00    +0.000 C 
ATOM     32  C   UNL     1     108.839 131.328 137.026  0.00  0.00    +0.000 C 
ATOM     33  C   UNL     1     109.549 130.861 135.877  0.00  0.00    +0.000 C 
BRANCH  32  36
ATOM     34  O   UNL     1     108.573 130.941 138.375  0.00  0.00    +0.000 OA
ATOM     35  O   UNL     1     109.057 132.256 138.091  0.00  0.00    +0.000 OA
ATOM     36  C   UNL     1     108.823 131.509 137.831  0.00  0.00    +0.000 C 
ENDBRANCH  32  36
ENDBRANCH  24  33
ENDBRANCH   1  24
TORSDOF 5
ENDMDL
MODEL 3
REMARK VINA RESULT:      -9.3      1.325      6.161
REMARK  Name = 74978460
REMARK  5 active torsions:
REMARK  status: ('A' for Active; 'I' for Inactive)
REMARK    1  A    between atoms: O_2  and  C_18
REMARK    2  A    between atoms: O_2  and  C_20
REMARK    3  A    between atoms: O_11  and  C_29
REMARK    4  A    between atoms: C_17  and  C_19
REMARK    5  A    between atoms: C_23  and  C_24
REMARK                            x       y       z     vdW  Elec       q    Type
REMARK                         _______ _______ _______ _____ _____    ______ ____
ROOT
ATOM      1  C   UNL     1     109.402 129.166 135.414  0.00  0.00    +0.000 A 
ATOM      2  C   UNL     1     110.087 129.033 134.975  0.00  0.00    +0.000 A 
ATOM      3  C   UNL     1     109.183 128.638 136.008  0.00  0.00    +0.000 A 
ATOM      4  C   UNL     1     110.335 127.841 135.724  0.00  0.00    +0.000 A 
ATOM      5  C   UNL     1     110.554 128.370 135.130  0.00  0.00    +0.000 A 
ATOM      6  C   UNL     1     109.649 127.976 136.163  0.00  0.00    +0.000 A 
ENDROOT
BRANCH   4  12
ATOM      7  O   UNL     1     111.541 127.261 136.310  0.00  0.00    +0.000 OA
ATOM      8  O   UNL     1     113.527 124.702 137.012  0.00  0.00    +0.000 OA
ATOM      9  O   UNL     1     113.914 125.902 137.425  0.00  0.00    +0.000 OA
ATOM     10  O   UNL     1     112.007 124.412 136.110  0.00  0.00    +0.000 OA
ATOM     11  O   UNL     1     110.810 124.967 135.526  0.00  0.00    +0.000 OA
ATOM     12  C   UNL     1     110.801 127.178 135.880  0.00  0.00    +0.000 A 
ATOM     13  C   UNL     1     111.779 125.819 136.210  0.00  0.00    +0.000 A 
ATOM     14  C   UNL     1     112.020 126.565 136.466  0.00  0.00    +0.000 A 
ATOM     15  C   UNL     1     110.551 126.401 135.613  0.00  0.00    +0.000 A 
ATOM     16  C   UNL     1     112.248 125.158 136.366  0.00  0.00    +0.000 A 
ATOM     17  C   UNL     1     112.957 125.243 136.779  0.00  0.00    +0.000 A 
ATOM     18  C   UNL     1     111.043 125.717 135.779  0.00  0.00    +0.000 A 
ATOM     19  C   UNL     1     113.198 125.989 137.036  0.00  0.00    +0.000 A 
ATOM     20  C   UNL     1     112.729 126.650 136.879  0.00  0.00    +0.000 A 
ATOM     21  C   UNL     1     114.117 125.108 137.411  0.00  0.00    +0.000 C 
BRANCH  15  22
ATOM     22  O   UNL     1     109.842 126.312 135.200  0.00  0.00    +0.000 OA
ATOM     23  C   UNL     1     109.776 125.737 134.613  0.00  0.00    +0.000 C 
ENDBRANCH  15  22
ENDBRANCH   4  12
BRANCH   1  24
ATOM     24  O   UNL     1     108.936 129.829 135.259  0.00  0.00    +0.000 OA
BRANCH  24  33
ATOM     25  O   UNL     1     109.635 130.767 136.080  0.00  0.00    +0.000 OA
ATOM     26  O   UNL     1     107.479 131.741 136.805  0.00  0.00    +0.000 OA
ATOM     27  O   UNL     1     108.897 132.354 137.383  0.00  0.00    +0.000 OA
ATOM     28  O   UNL     1     107.498 130.478 135.743  0.00  0.00    +0.000 OA
ATOM     29  C   UNL     1     108.198 131.416 136.563  0.00  0.00    +0.000 C 
ATOM     30  C   UNL     1     108.907 131.722 136.852  0.00  0.00    +0.000 C 
ATOM     31  C   UNL     1     108.207 130.784 136.032  0.00  0.00    +0.000 C 
ATOM     32  C   UNL     1     109.625 131.398 136.610  0.00  0.00    +0.000 C 
ATOM     33  C   UNL     1     108.925 130.460 135.790  0.00  0.00    +0.000 C 
BRANCH  32  36
ATOM     34  O   UNL     1     110.662 131.400 137.593  0.00  0.00    +0.000 OA
ATOM     35  O   UNL     1     110.716 132.314 136.495  0.00  0.00    +0.000 OA
ATOM     36  C   UNL     1     110.334 131.704 136.899  0.00  0.00    +0.000 C 
ENDBRANCH  32  36
ENDBRANCH  24  33
ENDBRANCH   1  24
TORSDOF 5
ENDMDL
MODEL 4
REMARK VINA RESULT:      -9.2      1.688      2.718
REMARK  Name = 74978460
REMARK  5 active torsions:
REMARK  status: ('A' for Active; 'I' for Inactive)
REMARK    1  A    between atoms: O_2  and  C_18
REMARK    2  A    between atoms: O_2  and  C_20
REMARK    3  A    between atoms: O_11  and  C_29
REMARK    4  A    between atoms: C_17  and  C_19
REMARK    5  A    between atoms: C_23  and  C_24
REMARK                            x       y       z     vdW  Elec       q    Type
REMARK                         _______ _______ _______ _____ _____    ______ ____
ROOT
ATOM      1  C   UNL     1     111.781 126.660 136.101  0.00  0.00    +0.000 A 
ATOM      2  C   UNL     1     112.246 127.247 135.754  0.00  0.00    +0.000 A 
ATOM      3  C   UNL     1     111.281 126.846 136.729  0.00  0.00    +0.000 A 
ATOM      4  C   UNL     1     111.709 128.208 136.667  0.00  0.00    +0.000 A 
ATOM      5  C   UNL     1     112.210 128.021 136.037  0.00  0.00    +0.000 A 
ATOM      6  C   UNL     1     111.245 127.620 137.012  0.00  0.00    +0.000 A 
ENDROOT
BRANCH   4  12
ATOM      7  O   UNL     1     111.121 129.544 136.606  0.00  0.00    +0.000 OA
ATOM      8  O   UNL     1     110.854 132.686 137.627  0.00  0.00    +0.000 OA
ATOM      9  O   UNL     1     110.058 132.299 136.638  0.00  0.00    +0.000 OA
ATOM     10  O   UNL     1     112.043 131.603 138.417  0.00  0.00    +0.000 OA
ATOM     11  O   UNL     1     112.636 130.290 138.492  0.00  0.00    +0.000 OA
ATOM     12  C   UNL     1     111.674 128.982 136.950  0.00  0.00    +0.000 A 
ATOM     13  C   UNL     1     111.586 130.588 137.522  0.00  0.00    +0.000 A 
ATOM     14  C   UNL     1     111.091 130.348 136.907  0.00  0.00    +0.000 A 
ATOM     15  C   UNL     1     112.189 129.233 137.590  0.00  0.00    +0.000 A 
ATOM     16  C   UNL     1     111.548 131.363 137.803  0.00  0.00    +0.000 A 
ATOM     17  C   UNL     1     111.015 131.897 137.469  0.00  0.00    +0.000 A 
ATOM     18  C   UNL     1     112.145 130.041 137.878  0.00  0.00    +0.000 A 
ATOM     19  C   UNL     1     110.520 131.657 136.855  0.00  0.00    +0.000 A 
ATOM     20  C   UNL     1     110.558 130.882 136.574  0.00  0.00    +0.000 A 
ATOM     21  C   UNL     1     110.264 132.933 137.115  0.00  0.00    +0.000 C 
BRANCH  15  22
ATOM     22  O   UNL     1     112.723 128.701 137.926  0.00  0.00    +0.000 OA
ATOM     23  C   UNL     1     113.025 128.840 138.680  0.00  0.00    +0.000 C 
ENDBRANCH  15  22
ENDBRANCH   4  12
BRANCH   1  24
ATOM     24  O   UNL     1     111.816 125.886 135.818  0.00  0.00    +0.000 OA
BRANCH  24  33
ATOM     25  O   UNL     1     113.039 125.519 136.461  0.00  0.00    +0.000 OA
ATOM     26  O   UNL     1     112.141 123.250 136.874  0.00  0.00    +0.000 OA
ATOM     27  O   UNL     1     113.662 123.641 137.379  0.00  0.00    +0.000 OA
ATOM     28  O   UNL     1     111.218 124.373 136.094  0.00  0.00    +0.000 OA
ATOM     29  C   UNL     1     112.440 124.007 136.737  0.00  0.00    +0.000 C 
ATOM     30  C   UNL     1     113.201 124.202 136.989  0.00  0.00    +0.000 C 
ATOM     31  C   UNL     1     111.979 124.568 136.346  0.00  0.00    +0.000 C 
ATOM     32  C   UNL     1     113.500 124.958 136.851  0.00  0.00    +0.000 C 
ATOM     33  C   UNL     1     112.277 125.324 136.208  0.00  0.00    +0.000 C 
BRANCH  32  36
ATOM     34  O   UNL     1     114.383 125.416 137.876  0.00  0.00    +0.000 OA
ATOM     35  O   UNL     1     114.898 125.087 136.584  0.00  0.00    +0.000 OA
ATOM     36  C   UNL     1     114.260 125.153 137.103  0.00  0.00    +0.000 C 
ENDBRANCH  32  36
ENDBRANCH  24  33
ENDBRANCH   1  24
TORSDOF 5
ENDMDL
MODEL 5
REMARK VINA RESULT:      -9.2      9.609     11.406
REMARK  Name = 74978460
REMARK  5 active torsions:
REMARK  status: ('A' for Active; 'I' for Inactive)
REMARK    1  A    between atoms: O_2  and  C_18
REMARK    2  A    between atoms: O_2  and  C_20
REMARK    3  A    between atoms: O_11  and  C_29
REMARK    4  A    between atoms: C_17  and  C_19
REMARK    5  A    between atoms: C_23  and  C_24
REMARK                            x       y       z     vdW  Elec       q    Type
REMARK                         _______ _______ _______ _____ _____    ______ ____
ROOT
ATOM      1  C   UNL     1     105.639 126.398 143.620  0.00  0.00    +0.000 A 
ATOM      2  C   UNL     1     105.897 125.621 143.726  0.00  0.00    +0.000 A 
ATOM      3  C   UNL     1     105.468 126.869 144.275  0.00  0.00    +0.000 A 
ATOM      4  C   UNL     1     105.813 125.787 145.143  0.00  0.00    +0.000 A 
ATOM      5  C   UNL     1     105.984 125.316 144.487  0.00  0.00    +0.000 A 
ATOM      6  C   UNL     1     105.555 126.564 145.036  0.00  0.00    +0.000 A 
ENDROOT
BRANCH   4  12
ATOM      7  O   UNL     1     106.668 125.491 146.290  0.00  0.00    +0.000 OA
ATOM      8  O   UNL     1     107.184 124.306 149.342  0.00  0.00    +0.000 OA
ATOM      9  O   UNL     1     108.230 124.815 148.703  0.00  0.00    +0.000 OA
ATOM     10  O   UNL     1     105.538 124.234 148.638  0.00  0.00    +0.000 OA
ATOM     11  O   UNL     1     104.678 124.519 147.516  0.00  0.00    +0.000 OA
ATOM     12  C   UNL     1     105.899 125.482 145.905  0.00  0.00    +0.000 A 
ATOM     13  C   UNL     1     106.099 124.855 147.480  0.00  0.00    +0.000 A 
ATOM     14  C   UNL     1     106.749 125.171 147.083  0.00  0.00    +0.000 A 
ATOM     15  C   UNL     1     105.223 125.153 146.319  0.00  0.00    +0.000 A 
ATOM     16  C   UNL     1     106.188 124.551 148.241  0.00  0.00    +0.000 A 
ATOM     17  C   UNL     1     106.928 124.562 148.606  0.00  0.00    +0.000 A 
ATOM     18  C   UNL     1     105.323 124.837 147.112  0.00  0.00    +0.000 A 
ATOM     19  C   UNL     1     107.579 124.878 148.209  0.00  0.00    +0.000 A 
ATOM     20  C   UNL     1     107.489 125.183 147.447  0.00  0.00    +0.000 A 
ATOM     21  C   UNL     1     107.987 124.462 149.401  0.00  0.00    +0.000 C 
BRANCH  15  22
ATOM     22  O   UNL     1     104.481 125.140 145.957  0.00  0.00    +0.000 OA
ATOM     23  C   UNL     1     103.871 124.691 146.283  0.00  0.00    +0.000 C 
ENDBRANCH  15  22
ENDBRANCH   4  12
BRANCH   1  24
ATOM     24  O   UNL     1     105.552 126.703 142.859  0.00  0.00    +0.000 OA
BRANCH  24  33
ATOM     25  O   UNL     1     106.891 127.184 142.726  0.00  0.00    +0.000 OA
ATOM     26  O   UNL     1     106.066 129.127 141.434  0.00  0.00    +0.000 OA
ATOM     27  O   UNL     1     107.679 128.960 141.733  0.00  0.00    +0.000 OA
ATOM     28  O   UNL     1     105.002 127.998 141.997  0.00  0.00    +0.000 OA
ATOM     29  C   UNL     1     106.341 128.479 141.865  0.00  0.00    +0.000 C 
ATOM     30  C   UNL     1     107.148 128.395 142.014  0.00  0.00    +0.000 C 
ATOM     31  C   UNL     1     105.809 127.914 142.147  0.00  0.00    +0.000 C 
ATOM     32  C   UNL     1     107.423 127.749 142.445  0.00  0.00    +0.000 C 
ATOM     33  C   UNL     1     106.084 127.268 142.577  0.00  0.00    +0.000 C 
BRANCH  32  36
ATOM     34  O   UNL     1     108.576 128.070 143.225  0.00  0.00    +0.000 OA
ATOM     35  O   UNL     1     108.690 127.177 142.114  0.00  0.00    +0.000 OA
ATOM     36  C   UNL     1     108.230 127.665 142.594  0.00  0.00    +0.000 C 
ENDBRANCH  32  36
ENDBRANCH  24  33
ENDBRANCH   1  24
TORSDOF 5
ENDMDL
MODEL 6
REMARK VINA RESULT:      -9.2      4.111      6.600
REMARK  Name = 74978460
REMARK  5 active torsions:
REMARK  status: ('A' for Active; 'I' for Inactive)
REMARK    1  A    between atoms: O_2  and  C_18
REMARK    2  A    between atoms: O_2  and  C_20
REMARK    3  A    between atoms: O_11  and  C_29
REMARK    4  A    between atoms: C_17  and  C_19
REMARK    5  A    between atoms: C_23  and  C_24
REMARK                            x       y       z     vdW  Elec       q    Type
REMARK                         _______ _______ _______ _____ _____    ______ ____
ROOT
ATOM      1  C   UNL     1     113.454 128.811 140.744  0.00  0.00    +0.000 A 
ATOM      2  C   UNL     1     113.051 128.955 140.038  0.00  0.00    +0.000 A 
ATOM      3  C   UNL     1     113.674 128.042 140.945  0.00  0.00    +0.000 A 
ATOM      4  C   UNL     1     113.090 127.558 139.734  0.00  0.00    +0.000 A 
ATOM      5  C   UNL     1     112.869 128.328 139.533  0.00  0.00    +0.000 A 
ATOM      6  C   UNL     1     113.492 127.416 140.440  0.00  0.00    +0.000 A 
ENDROOT
BRANCH   4  12
ATOM      7  O   UNL     1     113.473 126.677 138.633  0.00  0.00    +0.000 OA
ATOM      8  O   UNL     1     112.896 124.182 136.529  0.00  0.00    +0.000 OA
ATOM      9  O   UNL     1     114.064 124.804 136.429  0.00  0.00    +0.000 OA
ATOM     10  O   UNL     1     111.643 124.626 137.731  0.00  0.00    +0.000 OA
ATOM     11  O   UNL     1     111.247 125.486 138.818  0.00  0.00    +0.000 OA
ATOM     12  C   UNL     1     112.907 126.932 139.228  0.00  0.00    +0.000 A 
ATOM     13  C   UNL     1     112.549 125.638 138.174  0.00  0.00    +0.000 A 
ATOM     14  C   UNL     1     113.275 126.024 138.111  0.00  0.00    +0.000 A 
ATOM     15  C   UNL     1     112.151 126.529 139.293  0.00  0.00    +0.000 A 
ATOM     16  C   UNL     1     112.369 125.012 137.668  0.00  0.00    +0.000 A 
ATOM     17  C   UNL     1     112.916 124.772 137.098  0.00  0.00    +0.000 A 
ATOM     18  C   UNL     1     111.971 125.878 138.763  0.00  0.00    +0.000 A 
ATOM     19  C   UNL     1     113.642 125.159 137.035  0.00  0.00    +0.000 A 
ATOM     20  C   UNL     1     113.822 125.785 137.542  0.00  0.00    +0.000 A 
ATOM     21  C   UNL     1     113.604 124.201 136.116  0.00  0.00    +0.000 C 
BRANCH  15  22
ATOM     22  O   UNL     1     111.602 126.766 139.862  0.00  0.00    +0.000 OA
ATOM     23  C   UNL     1     110.835 126.466 139.845  0.00  0.00    +0.000 C 
ENDBRANCH  15  22
ENDBRANCH   4  12
BRANCH   1  24
ATOM     24  O   UNL     1     113.636 129.437 141.249  0.00  0.00    +0.000 OA
BRANCH  24  33
ATOM     25  O   UNL     1     112.548 129.227 142.153  0.00  0.00    +0.000 OA
ATOM     26  O   UNL     1     112.351 131.672 142.483  0.00  0.00    +0.000 OA
ATOM     27  O   UNL     1     111.330 130.647 143.276  0.00  0.00    +0.000 OA
ATOM     28  O   UNL     1     113.504 131.067 141.470  0.00  0.00    +0.000 OA
ATOM     29  C   UNL     1     112.417 130.857 142.373  0.00  0.00    +0.000 C 
ATOM     30  C   UNL     1     111.906 130.344 142.769  0.00  0.00    +0.000 C 
ATOM     31  C   UNL     1     112.994 130.554 141.866  0.00  0.00    +0.000 C 
ATOM     32  C   UNL     1     111.972 129.530 142.659  0.00  0.00    +0.000 C 
ATOM     33  C   UNL     1     113.059 129.740 141.756  0.00  0.00    +0.000 C 
BRANCH  32  36
ATOM     34  O   UNL     1     111.684 128.696 143.783  0.00  0.00    +0.000 OA
ATOM     35  O   UNL     1     110.731 128.825 142.725  0.00  0.00    +0.000 OA
ATOM     36  C   UNL     1     111.462 129.017 143.055  0.00  0.00    +0.000 C 
ENDBRANCH  32  36
ENDBRANCH  24  33
ENDBRANCH   1  24
TORSDOF 5
ENDMDL
MODEL 7
REMARK VINA RESULT:      -9.1      1.304      6.114
REMARK  Name = 74978460
REMARK  5 active torsions:
REMARK  status: ('A' for Active; 'I' for Inactive)
REMARK    1  A    between atoms: O_2  and  C_18
REMARK    2  A    between atoms: O_2  and  C_20
REMARK    3  A    between atoms: O_11  and  C_29
REMARK    4  A    between atoms: C_17  and  C_19
REMARK    5  A    between atoms: C_23  and  C_24
REMARK                            x       y       z     vdW  Elec       q    Type
REMARK                         _______ _______ _______ _____ _____    ______ ____
ROOT
ATOM      1  C   UNL     1     111.142 130.175 136.818  0.00  0.00    +0.000 A 
ATOM      2  C   UNL     1     111.435 129.889 136.101  0.00  0.00    +0.000 A 
ATOM      3  C   UNL     1     111.098 129.677 137.474  0.00  0.00    +0.000 A 
ATOM      4  C   UNL     1     111.639 128.606 136.698  0.00  0.00    +0.000 A 
ATOM      5  C   UNL     1     111.683 129.105 136.041  0.00  0.00    +0.000 A 
ATOM      6  C   UNL     1     111.346 128.893 137.414  0.00  0.00    +0.000 A 
ENDROOT
BRANCH   4  12
ATOM      7  O   UNL     1     112.675 127.596 136.896  0.00  0.00    +0.000 OA
ATOM      8  O   UNL     1     113.823 124.491 136.721  0.00  0.00    +0.000 OA
ATOM      9  O   UNL     1     114.638 125.414 137.219  0.00  0.00    +0.000 OA
ATOM     10  O   UNL     1     112.162 124.847 136.152  0.00  0.00    +0.000 OA
ATOM     11  O   UNL     1     111.127 125.831 135.949  0.00  0.00    +0.000 OA
ATOM     12  C   UNL     1     111.887 127.822 136.637  0.00  0.00    +0.000 A 
ATOM     13  C   UNL     1     112.418 126.204 136.520  0.00  0.00    +0.000 A 
ATOM     14  C   UNL     1     112.925 126.777 136.829  0.00  0.00    +0.000 A 
ATOM     15  C   UNL     1     111.360 127.224 136.316  0.00  0.00    +0.000 A 
ATOM     16  C   UNL     1     112.669 125.420 136.461  0.00  0.00    +0.000 A 
ATOM     17  C   UNL     1     113.427 125.209 136.711  0.00  0.00    +0.000 A 
ATOM     18  C   UNL     1     111.627 126.410 136.257  0.00  0.00    +0.000 A 
ATOM     19  C   UNL     1     113.933 125.782 137.020  0.00  0.00    +0.000 A 
ATOM     20  C   UNL     1     113.682 126.566 137.079  0.00  0.00    +0.000 A 
ATOM     21  C   UNL     1     114.571 124.618 137.034  0.00  0.00    +0.000 C 
BRANCH  15  22
ATOM     22  O   UNL     1     110.602 127.432 136.065  0.00  0.00    +0.000 OA
ATOM     23  C   UNL     1     110.011 126.858 136.016  0.00  0.00    +0.000 C 
ENDBRANCH  15  22
ENDBRANCH   4  12
BRANCH   1  24
ATOM     24  O   UNL     1     110.894 130.959 136.878  0.00  0.00    +0.000 OA
BRANCH  24  33
ATOM     25  O   UNL     1     109.564 130.765 136.393  0.00  0.00    +0.000 OA
ATOM     26  O   UNL     1     108.723 132.409 138.042  0.00  0.00    +0.000 OA
ATOM     27  O   UNL     1     107.674 131.667 137.007  0.00  0.00    +0.000 OA
ATOM     28  O   UNL     1     110.333 132.055 137.977  0.00  0.00    +0.000 OA
ATOM     29  C   UNL     1     109.003 131.861 137.492  0.00  0.00    +0.000 C 
ATOM     30  C   UNL     1     108.479 131.489 136.975  0.00  0.00    +0.000 C 
ATOM     31  C   UNL     1     109.809 131.684 137.460  0.00  0.00    +0.000 C 
ATOM     32  C   UNL     1     108.759 130.942 136.426  0.00  0.00    +0.000 C 
ATOM     33  C   UNL     1     110.089 131.137 136.911  0.00  0.00    +0.000 C 
BRANCH  32  36
ATOM     34  O   UNL     1     108.102 130.889 135.158  0.00  0.00    +0.000 OA
ATOM     35  O   UNL     1     107.844 129.882 136.140  0.00  0.00    +0.000 OA
ATOM     36  C   UNL     1     108.235 130.571 135.909  0.00  0.00    +0.000 C 
ENDBRANCH  32  36
ENDBRANCH  24  33
ENDBRANCH   1  24
TORSDOF 5
ENDMDL
MODEL 8
REMARK VINA RESULT:      -9.0     10.834     12.230
REMARK  Name = 74978460
REMARK  5 active torsions:
REMARK  status: ('A' for Active; 'I' for Inactive)
REMARK    1  A    between atoms: O_2  and  C_18
REMARK    2  A    between atoms: O_2  and  C_20
REMARK    3  A    between atoms: O_11  and  C_29
REMARK    4  A    between atoms: C_17  and  C_19
REMARK    5  A    between atoms: C_23  and  C_24
REMARK                            x       y       z     vdW  Elec       q    Type
REMARK                         _______ _______ _______ _____ _____    ______ ____
ROOT
ATOM      1  C   UNL     1     106.144 125.778 145.091  0.00  0.00    +0.000 A 
ATOM      2  C   UNL     1     106.195 124.994 145.344  0.00  0.00    +0.000 A 
ATOM      3  C   UNL     1     105.490 126.236 145.295  0.00  0.00    +0.000 A 
ATOM      4  C   UNL     1     104.935 125.127 146.006  0.00  0.00    +0.000 A 
ATOM      5  C   UNL     1     105.591 124.669 145.801  0.00  0.00    +0.000 A 
ATOM      6  C   UNL     1     104.885 125.910 145.753  0.00  0.00    +0.000 A 
ENDROOT
BRANCH   4  12
ATOM      7  O   UNL     1     103.662 124.415 146.086  0.00  0.00    +0.000 OA
ATOM      8  O   UNL     1     101.156 123.058 147.779  0.00  0.00    +0.000 OA
ATOM      9  O   UNL     1     101.103 122.988 146.455  0.00  0.00    +0.000 OA
ATOM     10  O   UNL     1     102.499 123.839 148.672  0.00  0.00    +0.000 OA
ATOM     11  O   UNL     1     103.756 124.544 148.613  0.00  0.00    +0.000 OA
ATOM     12  C   UNL     1     104.331 124.802 146.464  0.00  0.00    +0.000 A 
ATOM     13  C   UNL     1     103.071 124.122 147.394  0.00  0.00    +0.000 A 
ATOM     14  C   UNL     1     103.038 124.078 146.571  0.00  0.00    +0.000 A 
ATOM     15  C   UNL     1     104.365 124.847 147.321  0.00  0.00    +0.000 A 
ATOM     16  C   UNL     1     102.465 123.796 147.849  0.00  0.00    +0.000 A 
ATOM     17  C   UNL     1     101.826 123.426 147.481  0.00  0.00    +0.000 A 
ATOM     18  C   UNL     1     103.731 124.505 147.789  0.00  0.00    +0.000 A 
ATOM     19  C   UNL     1     101.793 123.382 146.658  0.00  0.00    +0.000 A 
ATOM     20  C   UNL     1     102.399 123.708 146.203  0.00  0.00    +0.000 A 
ATOM     21  C   UNL     1     100.710 122.789 147.146  0.00  0.00    +0.000 C 
BRANCH  15  22
ATOM     22  O   UNL     1     105.003 125.216 147.692  0.00  0.00    +0.000 OA
ATOM     23  C   UNL     1     105.064 125.207 148.514  0.00  0.00    +0.000 C 
ENDBRANCH  15  22
ENDBRANCH   4  12
BRANCH   1  24
ATOM     24  O   UNL     1     106.748 126.104 144.633  0.00  0.00    +0.000 OA
BRANCH  24  33
ATOM     25  O   UNL     1     106.434 125.479 143.387  0.00  0.00    +0.000 OA
ATOM     26  O   UNL     1     106.899 127.602 142.204  0.00  0.00    +0.000 OA
ATOM     27  O   UNL     1     106.429 126.269 141.354  0.00  0.00    +0.000 OA
ATOM     28  O   UNL     1     107.058 127.519 143.844  0.00  0.00    +0.000 OA
ATOM     29  C   UNL     1     106.744 126.894 142.599  0.00  0.00    +0.000 C 
ATOM     30  C   UNL     1     106.509 126.227 142.173  0.00  0.00    +0.000 C 
ATOM     31  C   UNL     1     106.823 126.853 143.419  0.00  0.00    +0.000 C 
ATOM     32  C   UNL     1     106.354 125.520 142.567  0.00  0.00    +0.000 C 
ATOM     33  C   UNL     1     106.669 126.146 143.813  0.00  0.00    +0.000 C 
BRANCH  32  36
ATOM     34  O   UNL     1     106.685 124.315 141.875  0.00  0.00    +0.000 OA
ATOM     35  O   UNL     1     105.320 124.725 141.984  0.00  0.00    +0.000 OA
ATOM     36  C   UNL     1     106.119 124.854 142.142  0.00  0.00    +0.000 C 
ENDBRANCH  32  36
ENDBRANCH  24  33
ENDBRANCH   1  24
TORSDOF 5
ENDMDL
MODEL 9
REMARK VINA RESULT:      -9.0      3.975      5.147
REMARK  Name = 74978460
REMARK  5 active torsions:
REMARK  status: ('A' for Active; 'I' for Inactive)
REMARK    1  A    between atoms: O_2  and  C_18
REMARK    2  A    between atoms: O_2  and  C_20
REMARK    3  A    between atoms: O_11  and  C_29
REMARK    4  A    between atoms: C_17  and  C_19
REMARK    5  A    between atoms: C_23  and  C_24
REMARK                            x       y       z     vdW  Elec       q    Type
REMARK                         _______ _______ _______ _____ _____    ______ ____
ROOT
ATOM      1  C   UNL     1     113.375 126.810 138.767  0.00  0.00    +0.000 A 
ATOM      2  C   UNL     1     113.614 126.547 139.512  0.00  0.00    +0.000 A 
ATOM      3  C   UNL     1     112.789 127.385 138.701  0.00  0.00    +0.000 A 
ATOM      4  C   UNL     1     112.679 127.437 140.125  0.00  0.00    +0.000 A 
ATOM      5  C   UNL     1     113.266 126.860 140.191  0.00  0.00    +0.000 A 
ATOM      6  C   UNL     1     112.441 127.699 139.380  0.00  0.00    +0.000 A 
ENDROOT
BRANCH   4  12
ATOM      7  O   UNL     1     112.589 128.511 141.112  0.00  0.00    +0.000 OA
ATOM      8  O   UNL     1     111.295 129.907 143.824  0.00  0.00    +0.000 OA
ATOM      9  O   UNL     1     112.258 130.573 143.199  0.00  0.00    +0.000 OA
ATOM     10  O   UNL     1     110.677 128.318 143.275  0.00  0.00    +0.000 OA
ATOM     11  O   UNL     1     110.751 127.248 142.310  0.00  0.00    +0.000 OA
ATOM     12  C   UNL     1     112.331 127.751 140.804  0.00  0.00    +0.000 A 
ATOM     13  C   UNL     1     111.622 128.416 142.208  0.00  0.00    +0.000 A 
ATOM     14  C   UNL     1     112.221 128.829 141.819  0.00  0.00    +0.000 A 
ATOM     15  C   UNL     1     111.707 127.320 141.209  0.00  0.00    +0.000 A 
ATOM     16  C   UNL     1     111.276 128.732 142.886  0.00  0.00    +0.000 A 
ATOM     17  C   UNL     1     111.528 129.462 143.177  0.00  0.00    +0.000 A 
ATOM     18  C   UNL     1     111.351 127.655 141.916  0.00  0.00    +0.000 A 
ATOM     19  C   UNL     1     112.127 129.875 142.788  0.00  0.00    +0.000 A 
ATOM     20  C   UNL     1     112.473 129.559 142.110  0.00  0.00    +0.000 A 
ATOM     21  C   UNL     1     111.745 130.593 143.838  0.00  0.00    +0.000 C 
BRANCH  15  22
ATOM     22  O   UNL     1     111.452 126.590 140.921  0.00  0.00    +0.000 OA
ATOM     23  C   UNL     1     110.668 126.358 141.022  0.00  0.00    +0.000 C 
ENDBRANCH  15  22
ENDBRANCH   4  12
BRANCH   1  24
ATOM     24  O   UNL     1     113.723 126.496 138.088  0.00  0.00    +0.000 OA
BRANCH  24  33
ATOM     25  O   UNL     1     112.650 125.615 137.749  0.00  0.00    +0.000 OA
ATOM     26  O   UNL     1     114.282 123.939 136.940  0.00  0.00    +0.000 OA
ATOM     27  O   UNL     1     112.666 123.617 136.871  0.00  0.00    +0.000 OA
ATOM     28  O   UNL     1     114.811 125.379 137.549  0.00  0.00    +0.000 OA
ATOM     29  C   UNL     1     113.738 124.498 137.210  0.00  0.00    +0.000 C 
ATOM     30  C   UNL     1     112.930 124.337 137.175  0.00  0.00    +0.000 C 
ATOM     31  C   UNL     1     114.003 125.218 137.514  0.00  0.00    +0.000 C 
ATOM     32  C   UNL     1     112.387 124.895 137.444  0.00  0.00    +0.000 C 
ATOM     33  C   UNL     1     113.459 125.776 137.784  0.00  0.00    +0.000 C 
BRANCH  32  36
ATOM     34  O   UNL     1     111.204 124.363 138.044  0.00  0.00    +0.000 OA
ATOM     35  O   UNL     1     111.144 124.946 136.740  0.00  0.00    +0.000 OA
ATOM     36  C   UNL     1     111.578 124.735 137.409  0.00  0.00    +0.000 C 
ENDBRANCH  32  36
ENDBRANCH  24  33
ENDBRANCH   1  24
TORSDOF 5
ENDMDL
