MODEL 1
REMARK VINA RESULT:     -10.3      0.000      0.000
REMARK  Name = 44259013
REMARK  11 active torsions:
REMARK  status: ('A' for Active; 'I' for Inactive)
REMARK    1  A    between atoms: O_2  and  C_15
REMARK    2  A    between atoms: O_2  and  C_22
REMARK    3  A    between atoms: O_3  and  C_17
REMARK    4  A    between atoms: O_3  and  C_23
REMARK    5  A    between atoms: O_5  and  C_19
REMARK    6  A    between atoms: O_5  and  C_21
REMARK    7  A    between atoms: C_22  and  C_27
REMARK    8  A    between atoms: C_23  and  C_28
REMARK    9  A    between atoms: C_24  and  C_30
REMARK   10  A    between atoms: C_33  and  C_39
REMARK   11  A    between atoms: C_34  and  C_42
REMARK                            x       y       z     vdW  Elec       q    Type
REMARK                         _______ _______ _______ _____ _____    ______ ____
ROOT
ATOM      1  O   UNL     1     111.557 129.132 138.633  0.00  0.00    +0.000 OA
ATOM      2  O   UNL     1     111.283 128.332 136.307  0.00  0.00    +0.000 OA
ATOM      3  C   UNL     1     110.868 129.178 137.381  0.00  0.00    +0.000 C 
ATOM      4  C   UNL     1     111.374 128.599 137.082  0.00  0.00    +0.000 C 
ATOM      5  C   UNL     1     111.972 128.286 137.558  0.00  0.00    +0.000 C 
ATOM      6  C   UNL     1     110.960 129.445 138.157  0.00  0.00    +0.000 C 
ATOM      7  C   UNL     1     112.063 128.553 138.333  0.00  0.00    +0.000 C 
ATOM      8  C   UNL     1     110.454 130.023 138.457  0.00  0.00    +0.000 C 
ENDROOT
BRANCH   3   9
ATOM      9  O   UNL     1     110.271 129.490 136.906  0.00  0.00    +0.000 OA
BRANCH   9  11
ATOM     10  O   UNL     1     110.541 130.884 136.743  0.00  0.00    +0.000 OA
ATOM     11  C   UNL     1     110.428 130.135 136.416  0.00  0.00    +0.000 C 
BRANCH  11  12
ATOM     12  C   UNL     1     110.472 130.032 135.599  0.00  0.00    +0.000 C 
ATOM     13  C   UNL     1     109.875 130.325 135.113  0.00  0.00    +0.000 C 
BRANCH  13  15
ATOM     14  O   UNL     1     107.304 131.917 136.438  0.00  0.00    +0.000 OA
ATOM     15  C   UNL     1     109.232 130.723 135.444  0.00  0.00    +0.000 A 
ATOM     16  C   UNL     1     108.547 130.307 135.643  0.00  0.00    +0.000 A 
ATOM     17  C   UNL     1     109.274 131.536 135.577  0.00  0.00    +0.000 A 
ATOM     18  C   UNL     1     107.905 130.705 135.974  0.00  0.00    +0.000 A 
ATOM     19  C   UNL     1     108.631 131.934 135.908  0.00  0.00    +0.000 A 
ATOM     20  C   UNL     1     107.947 131.519 136.107  0.00  0.00    +0.000 A 
ENDBRANCH  13  15
ENDBRANCH  11  12
ENDBRANCH   9  11
ENDBRANCH   3   9
BRANCH   5  21
ATOM     21  O   UNL     1     112.477 127.708 137.259  0.00  0.00    +0.000 OA
BRANCH  21  23
ATOM     22  O   UNL     1     111.834 126.469 137.568  0.00  0.00    +0.000 OA
ATOM     23  C   UNL     1     112.173 126.980 137.016  0.00  0.00    +0.000 C 
BRANCH  23  24
ATOM     24  C   UNL     1     112.209 126.762 136.221  0.00  0.00    +0.000 C 
ATOM     25  C   UNL     1     112.773 126.216 135.967  0.00  0.00    +0.000 C 
BRANCH  25  27
ATOM     26  O   UNL     1     114.890 124.903 138.132  0.00  0.00    +0.000 OA
ATOM     27  C   UNL     1     113.301 125.888 136.508  0.00  0.00    +0.000 A 
ATOM     28  C   UNL     1     114.055 126.213 136.597  0.00  0.00    +0.000 A 
ATOM     29  C   UNL     1     113.078 125.236 136.960  0.00  0.00    +0.000 A 
ATOM     30  C   UNL     1     114.584 125.885 137.138  0.00  0.00    +0.000 A 
ATOM     31  C   UNL     1     113.607 124.907 137.501  0.00  0.00    +0.000 A 
ATOM     32  C   UNL     1     114.360 125.232 137.590  0.00  0.00    +0.000 A 
ENDBRANCH  25  27
ENDBRANCH  23  24
ENDBRANCH  21  23
ENDBRANCH   5  21
BRANCH   7  33
ATOM     33  O   UNL     1     112.660 128.241 138.810  0.00  0.00    +0.000 OA
BRANCH  33  38
ATOM     34  O   UNL     1     113.496 129.064 140.651  0.00  0.00    +0.000 OA
ATOM     35  O   UNL     1     113.485 129.544 138.223  0.00  0.00    +0.000 OA
ATOM     36  O   UNL     1     114.321 130.704 138.420  0.00  0.00    +0.000 OA
ATOM     37  O   UNL     1     115.184 131.390 141.124  0.00  0.00    +0.000 OA
ATOM     38  C   UNL     1     113.076 128.732 139.326  0.00  0.00    +0.000 A 
ATOM     39  C   UNL     1     113.079 128.572 140.134  0.00  0.00    +0.000 A 
ATOM     40  C   UNL     1     113.488 129.383 139.032  0.00  0.00    +0.000 A 
ATOM     41  C   UNL     1     113.904 129.875 139.549  0.00  0.00    +0.000 A 
ATOM     42  C   UNL     1     113.908 129.715 140.358  0.00  0.00    +0.000 A 
ATOM     43  C   UNL     1     114.330 130.551 139.231  0.00  0.00    +0.000 A 
ATOM     44  C   UNL     1     114.337 130.219 140.905  0.00  0.00    +0.000 A 
ATOM     45  C   UNL     1     114.765 131.067 139.763  0.00  0.00    +0.000 A 
ATOM     46  C   UNL     1     114.769 130.900 140.606  0.00  0.00    +0.000 A 
BRANCH  39  48
ATOM     47  O   UNL     1     111.429 125.968 141.311  0.00  0.00    +0.000 OA
ATOM     48  C   UNL     1     112.667 127.920 140.428  0.00  0.00    +0.000 A 
ATOM     49  C   UNL     1     111.920 128.022 140.763  0.00  0.00    +0.000 A 
ATOM     50  C   UNL     1     113.001 127.168 140.388  0.00  0.00    +0.000 A 
ATOM     51  C   UNL     1     111.507 127.372 141.057  0.00  0.00    +0.000 A 
ATOM     52  C   UNL     1     112.589 126.516 140.682  0.00  0.00    +0.000 A 
ATOM     53  C   UNL     1     111.842 126.618 141.016  0.00  0.00    +0.000 A 
ENDBRANCH  39  48
ENDBRANCH  33  38
ENDBRANCH   7  33
TORSDOF 11
ENDMDL
MODEL 2
REMARK VINA RESULT:     -10.1      6.966      9.360
REMARK  Name = 44259013
REMARK  11 active torsions:
REMARK  status: ('A' for Active; 'I' for Inactive)
REMARK    1  A    between atoms: O_2  and  C_15
REMARK    2  A    between atoms: O_2  and  C_22
REMARK    3  A    between atoms: O_3  and  C_17
REMARK    4  A    between atoms: O_3  and  C_23
REMARK    5  A    between atoms: O_5  and  C_19
REMARK    6  A    between atoms: O_5  and  C_21
REMARK    7  A    between atoms: C_22  and  C_27
REMARK    8  A    between atoms: C_23  and  C_28
REMARK    9  A    between atoms: C_24  and  C_30
REMARK   10  A    between atoms: C_33  and  C_39
REMARK   11  A    between atoms: C_34  and  C_42
REMARK                            x       y       z     vdW  Elec       q    Type
REMARK                         _______ _______ _______ _____ _____    ______ ____
ROOT
ATOM      1  O   UNL     1     106.543 126.807 142.646  0.00  0.00    +0.000 OA
ATOM      2  O   UNL     1     104.709 126.879 140.984  0.00  0.00    +0.000 OA
ATOM      3  C   UNL     1     105.917 126.289 141.469  0.00  0.00    +0.000 C 
ATOM      4  C   UNL     1     105.321 126.855 141.538  0.00  0.00    +0.000 C 
ATOM      5  C   UNL     1     105.334 127.397 142.160  0.00  0.00    +0.000 C 
ATOM      6  C   UNL     1     106.528 126.265 142.023  0.00  0.00    +0.000 C 
ATOM      7  C   UNL     1     105.945 127.373 142.714  0.00  0.00    +0.000 C 
ATOM      8  C   UNL     1     107.125 125.700 141.955  0.00  0.00    +0.000 C 
ENDROOT
BRANCH   3   9
ATOM      9  O   UNL     1     105.903 125.748 140.847  0.00  0.00    +0.000 OA
BRANCH   9  11
ATOM     10  O   UNL     1     104.921 124.814 141.298  0.00  0.00    +0.000 OA
ATOM     11  C   UNL     1     105.667 124.969 140.982  0.00  0.00    +0.000 C 
BRANCH  11  12
ATOM     12  C   UNL     1     106.176 124.346 140.802  0.00  0.00    +0.000 C 
ATOM     13  C   UNL     1     105.975 123.808 140.211  0.00  0.00    +0.000 C 
BRANCH  13  15
ATOM     14  O   UNL     1     103.134 124.146 138.565  0.00  0.00    +0.000 OA
ATOM     15  C   UNL     1     105.265 123.892 139.800  0.00  0.00    +0.000 A 
ATOM     16  C   UNL     1     105.243 124.330 139.100  0.00  0.00    +0.000 A 
ATOM     17  C   UNL     1     104.577 123.539 140.087  0.00  0.00    +0.000 A 
ATOM     18  C   UNL     1     104.532 124.415 138.689  0.00  0.00    +0.000 A 
ATOM     19  C   UNL     1     103.867 123.624 139.676  0.00  0.00    +0.000 A 
ATOM     20  C   UNL     1     103.845 124.061 138.977  0.00  0.00    +0.000 A 
ENDBRANCH  13  15
ENDBRANCH  11  12
ENDBRANCH   9  11
ENDBRANCH   3   9
BRANCH   5  21
ATOM     21  O   UNL     1     104.738 127.962 142.229  0.00  0.00    +0.000 OA
BRANCH  21  23
ATOM     22  O   UNL     1     105.201 129.009 141.374  0.00  0.00    +0.000 OA
ATOM     23  C   UNL     1     104.603 128.496 141.614  0.00  0.00    +0.000 C 
BRANCH  23  24
ATOM     24  C   UNL     1     103.868 128.516 141.240  0.00  0.00    +0.000 C 
ATOM     25  C   UNL     1     103.359 129.154 141.362  0.00  0.00    +0.000 C 
BRANCH  25  27
ATOM     26  O   UNL     1     104.262 131.625 143.354  0.00  0.00    +0.000 OA
ATOM     27  C   UNL     1     103.585 129.771 141.860  0.00  0.00    +0.000 A 
ATOM     28  C   UNL     1     103.347 129.772 142.649  0.00  0.00    +0.000 A 
ATOM     29  C   UNL     1     104.049 130.387 141.568  0.00  0.00    +0.000 A 
ATOM     30  C   UNL     1     103.572 130.390 143.148  0.00  0.00    +0.000 A 
ATOM     31  C   UNL     1     104.275 131.005 142.066  0.00  0.00    +0.000 A 
ATOM     32  C   UNL     1     104.036 131.007 142.855  0.00  0.00    +0.000 A 
ENDBRANCH  25  27
ENDBRANCH  23  24
ENDBRANCH  21  23
ENDBRANCH   5  21
BRANCH   7  33
ATOM     33  O   UNL     1     105.960 127.914 143.336  0.00  0.00    +0.000 OA
BRANCH  33  38
ATOM     34  O   UNL     1     107.074 127.805 145.211  0.00  0.00    +0.000 OA
ATOM     35  O   UNL     1     105.170 126.682 144.098  0.00  0.00    +0.000 OA
ATOM     36  O   UNL     1     104.991 125.804 145.229  0.00  0.00    +0.000 OA
ATOM     37  O   UNL     1     106.773 126.067 147.528  0.00  0.00    +0.000 OA
ATOM     38  C   UNL     1     106.200 127.673 144.088  0.00  0.00    +0.000 A 
ATOM     39  C   UNL     1     106.834 128.047 144.458  0.00  0.00    +0.000 A 
ATOM     40  C   UNL     1     105.805 127.057 144.469  0.00  0.00    +0.000 A 
ATOM     41  C   UNL     1     106.045 126.815 145.221  0.00  0.00    +0.000 A 
ATOM     42  C   UNL     1     106.679 127.190 145.591  0.00  0.00    +0.000 A 
ATOM     43  C   UNL     1     105.625 126.173 145.607  0.00  0.00    +0.000 A 
ATOM     44  C   UNL     1     106.938 126.947 146.374  0.00  0.00    +0.000 A 
ATOM     45  C   UNL     1     105.870 125.916 146.390  0.00  0.00    +0.000 A 
ATOM     46  C   UNL     1     106.531 126.306 146.776  0.00  0.00    +0.000 A 
BRANCH  39  48
ATOM     47  O   UNL     1     108.415 130.513 142.938  0.00  0.00    +0.000 OA
ATOM     48  C   UNL     1     107.230 128.663 144.078  0.00  0.00    +0.000 A 
ATOM     49  C   UNL     1     106.936 129.432 144.124  0.00  0.00    +0.000 A 
ATOM     50  C   UNL     1     107.919 128.510 143.652  0.00  0.00    +0.000 A 
ATOM     51  C   UNL     1     107.330 130.049 143.744  0.00  0.00    +0.000 A 
ATOM     52  C   UNL     1     108.315 129.127 143.272  0.00  0.00    +0.000 A 
ATOM     53  C   UNL     1     108.020 129.896 143.317  0.00  0.00    +0.000 A 
ENDBRANCH  39  48
ENDBRANCH  33  38
ENDBRANCH   7  33
TORSDOF 11
ENDMDL
MODEL 3
REMARK VINA RESULT:     -10.0      1.756      5.165
REMARK  Name = 44259013
REMARK  11 active torsions:
REMARK  status: ('A' for Active; 'I' for Inactive)
REMARK    1  A    between atoms: O_2  and  C_15
REMARK    2  A    between atoms: O_2  and  C_22
REMARK    3  A    between atoms: O_3  and  C_17
REMARK    4  A    between atoms: O_3  and  C_23
REMARK    5  A    between atoms: O_5  and  C_19
REMARK    6  A    between atoms: O_5  and  C_21
REMARK    7  A    between atoms: C_22  and  C_27
REMARK    8  A    between atoms: C_23  and  C_28
REMARK    9  A    between atoms: C_24  and  C_30
REMARK   10  A    between atoms: C_33  and  C_39
REMARK   11  A    between atoms: C_34  and  C_42
REMARK                            x       y       z     vdW  Elec       q    Type
REMARK                         _______ _______ _______ _____ _____    ______ ____
ROOT
ATOM      1  O   UNL     1     112.935 128.723 137.785  0.00  0.00    +0.000 OA
ATOM      2  O   UNL     1     110.522 128.244 137.508  0.00  0.00    +0.000 OA
ATOM      3  C   UNL     1     111.869 127.782 137.630  0.00  0.00    +0.000 C 
ATOM      4  C   UNL     1     111.326 128.404 137.600  0.00  0.00    +0.000 C 
ATOM      5  C   UNL     1     111.587 129.184 137.662  0.00  0.00    +0.000 C 
ATOM      6  C   UNL     1     112.673 127.942 137.722  0.00  0.00    +0.000 C 
ATOM      7  C   UNL     1     112.391 129.344 137.755  0.00  0.00    +0.000 C 
ATOM      8  C   UNL     1     113.216 127.322 137.752  0.00  0.00    +0.000 C 
ENDROOT
BRANCH   3   9
ATOM      9  O   UNL     1     111.608 127.003 137.568  0.00  0.00    +0.000 OA
BRANCH   9  11
ATOM     10  O   UNL     1     112.122 126.539 136.318  0.00  0.00    +0.000 OA
ATOM     11  C   UNL     1     111.483 126.667 136.824  0.00  0.00    +0.000 C 
BRANCH  11  12
ATOM     12  C   UNL     1     110.722 126.459 136.587  0.00  0.00    +0.000 C 
ATOM     13  C   UNL     1     110.523 125.665 136.486  0.00  0.00    +0.000 C 
BRANCH  13  15
ATOM     14  O   UNL     1     112.779 123.318 137.030  0.00  0.00    +0.000 OA
ATOM     15  C   UNL     1     111.087 125.079 136.622  0.00  0.00    +0.000 A 
ATOM     16  C   UNL     1     111.574 124.823 136.006  0.00  0.00    +0.000 A 
ATOM     17  C   UNL     1     111.165 124.747 137.373  0.00  0.00    +0.000 A 
ATOM     18  C   UNL     1     112.138 124.237 136.142  0.00  0.00    +0.000 A 
ATOM     19  C   UNL     1     111.729 124.160 137.509  0.00  0.00    +0.000 A 
ATOM     20  C   UNL     1     112.215 123.906 136.894  0.00  0.00    +0.000 A 
ENDBRANCH  13  15
ENDBRANCH  11  12
ENDBRANCH   9  11
ENDBRANCH   3   9
BRANCH   5  21
ATOM     21  O   UNL     1     111.045 129.804 137.632  0.00  0.00    +0.000 OA
BRANCH  21  23
ATOM     22  O   UNL     1     110.941 130.069 136.232  0.00  0.00    +0.000 OA
ATOM     23  C   UNL     1     110.582 129.915 136.958  0.00  0.00    +0.000 C 
BRANCH  23  24
ATOM     24  C   UNL     1     109.760 129.873 137.010  0.00  0.00    +0.000 C 
ATOM     25  C   UNL     1     109.309 130.564 136.994  0.00  0.00    +0.000 C 
BRANCH  25  27
ATOM     26  O   UNL     1     110.795 133.498 136.723  0.00  0.00    +0.000 OA
ATOM     27  C   UNL     1     109.680 131.297 136.926  0.00  0.00    +0.000 A 
ATOM     28  C   UNL     1     109.840 131.742 137.602  0.00  0.00    +0.000 A 
ATOM     29  C   UNL     1     109.892 131.585 136.183  0.00  0.00    +0.000 A 
ATOM     30  C   UNL     1     110.211 132.476 137.534  0.00  0.00    +0.000 A 
ATOM     31  C   UNL     1     110.263 132.318 136.114  0.00  0.00    +0.000 A 
ATOM     32  C   UNL     1     110.423 132.764 136.790  0.00  0.00    +0.000 A 
ENDBRANCH  25  27
ENDBRANCH  23  24
ENDBRANCH  21  23
ENDBRANCH   5  21
BRANCH   7  33
ATOM     33  O   UNL     1     112.653 130.123 137.817  0.00  0.00    +0.000 OA
BRANCH  33  38
ATOM     34  O   UNL     1     114.510 130.851 138.705  0.00  0.00    +0.000 OA
ATOM     35  O   UNL     1     112.352 129.873 139.420  0.00  0.00    +0.000 OA
ATOM     36  O   UNL     1     112.749 129.938 140.805  0.00  0.00    +0.000 OA
ATOM     37  O   UNL     1     115.380 131.013 141.479  0.00  0.00    +0.000 OA
ATOM     38  C   UNL     1     113.222 130.324 138.380  0.00  0.00    +0.000 A 
ATOM     39  C   UNL     1     113.941 130.650 138.141  0.00  0.00    +0.000 A 
ATOM     40  C   UNL     1     113.071 130.199 139.181  0.00  0.00    +0.000 A 
ATOM     41  C   UNL     1     113.641 130.400 139.744  0.00  0.00    +0.000 A 
ATOM     42  C   UNL     1     114.359 130.726 139.505  0.00  0.00    +0.000 A 
ATOM     43  C   UNL     1     113.472 130.265 140.576  0.00  0.00    +0.000 A 
ATOM     44  C   UNL     1     114.960 130.939 140.082  0.00  0.00    +0.000 A 
ATOM     45  C   UNL     1     114.060 130.472 141.167  0.00  0.00    +0.000 A 
ATOM     46  C   UNL     1     114.809 130.811 140.919  0.00  0.00    +0.000 A 
BRANCH  39  48
ATOM     47  O   UNL     1     114.544 131.153 134.936  0.00  0.00    +0.000 OA
ATOM     48  C   UNL     1     114.092 130.775 137.340  0.00  0.00    +0.000 A 
ATOM     49  C   UNL     1     113.758 131.424 136.954  0.00  0.00    +0.000 A 
ATOM     50  C   UNL     1     114.576 130.253 136.924  0.00  0.00    +0.000 A 
ATOM     51  C   UNL     1     113.908 131.550 136.153  0.00  0.00    +0.000 A 
ATOM     52  C   UNL     1     114.727 130.379 136.123  0.00  0.00    +0.000 A 
ATOM     53  C   UNL     1     114.393 131.027 135.737  0.00  0.00    +0.000 A 
ENDBRANCH  39  48
ENDBRANCH  33  38
ENDBRANCH   7  33
TORSDOF 11
ENDMDL
MODEL 4
REMARK VINA RESULT:      -9.9      2.179      5.739
REMARK  Name = 44259013
REMARK  11 active torsions:
REMARK  status: ('A' for Active; 'I' for Inactive)
REMARK    1  A    between atoms: O_2  and  C_15
REMARK    2  A    between atoms: O_2  and  C_22
REMARK    3  A    between atoms: O_3  and  C_17
REMARK    4  A    between atoms: O_3  and  C_23
REMARK    5  A    between atoms: O_5  and  C_19
REMARK    6  A    between atoms: O_5  and  C_21
REMARK    7  A    between atoms: C_22  and  C_27
REMARK    8  A    between atoms: C_23  and  C_28
REMARK    9  A    between atoms: C_24  and  C_30
REMARK   10  A    between atoms: C_33  and  C_39
REMARK   11  A    between atoms: C_34  and  C_42
REMARK                            x       y       z     vdW  Elec       q    Type
REMARK                         _______ _______ _______ _____ _____    ______ ____
ROOT
ATOM      1  O   UNL     1     111.958 129.205 137.859  0.00  0.00    +0.000 OA
ATOM      2  O   UNL     1     110.751 130.822 139.292  0.00  0.00    +0.000 OA
ATOM      3  C   UNL     1     111.577 129.664 139.158  0.00  0.00    +0.000 C 
ATOM      4  C   UNL     1     111.154 130.283 138.814  0.00  0.00    +0.000 C 
ATOM      5  C   UNL     1     111.132 130.364 137.993  0.00  0.00    +0.000 C 
ATOM      6  C   UNL     1     111.979 129.125 138.681  0.00  0.00    +0.000 C 
ATOM      7  C   UNL     1     111.535 129.825 137.516  0.00  0.00    +0.000 C 
ATOM      8  C   UNL     1     112.403 128.506 139.023  0.00  0.00    +0.000 C 
ENDROOT
BRANCH   3   9
ATOM      9  O   UNL     1     111.598 129.584 139.978  0.00  0.00    +0.000 OA
BRANCH   9  11
ATOM     10  O   UNL     1     112.505 130.614 140.375  0.00  0.00    +0.000 OA
ATOM     11  C   UNL     1     112.265 129.825 140.400  0.00  0.00    +0.000 C 
BRANCH  11  12
ATOM     12  C   UNL     1     112.691 129.278 140.847  0.00  0.00    +0.000 C 
ATOM     13  C   UNL     1     112.728 129.354 141.667  0.00  0.00    +0.000 C 
BRANCH  13  15
ATOM     14  O   UNL     1     111.166 131.848 143.164  0.00  0.00    +0.000 OA
ATOM     15  C   UNL     1     112.337 129.977 142.041  0.00  0.00    +0.000 A 
ATOM     16  C   UNL     1     111.576 129.867 142.341  0.00  0.00    +0.000 A 
ATOM     17  C   UNL     1     112.707 130.711 142.115  0.00  0.00    +0.000 A 
ATOM     18  C   UNL     1     111.186 130.490 142.715  0.00  0.00    +0.000 A 
ATOM     19  C   UNL     1     112.317 131.334 142.489  0.00  0.00    +0.000 A 
ATOM     20  C   UNL     1     111.557 131.224 142.789  0.00  0.00    +0.000 A 
ENDBRANCH  13  15
ENDBRANCH  11  12
ENDBRANCH   9  11
ENDBRANCH   3   9
BRANCH   5  21
ATOM     21  O   UNL     1     110.709 130.983 137.650  0.00  0.00    +0.000 OA
BRANCH  21  23
ATOM     22  O   UNL     1     109.370 130.485 137.682  0.00  0.00    +0.000 OA
ATOM     23  C   UNL     1     109.912 131.089 137.833  0.00  0.00    +0.000 C 
BRANCH  23  24
ATOM     24  C   UNL     1     109.655 131.798 138.167  0.00  0.00    +0.000 C 
ATOM     25  C   UNL     1     109.180 132.312 137.731  0.00  0.00    +0.000 C 
BRANCH  25  27
ATOM     26  O   UNL     1     108.307 131.533 134.646  0.00  0.00    +0.000 OA
ATOM     27  C   UNL     1     108.962 132.118 136.960  0.00  0.00    +0.000 A 
ATOM     28  C   UNL     1     108.319 131.618 136.827  0.00  0.00    +0.000 A 
ATOM     29  C   UNL     1     109.387 132.421 136.322  0.00  0.00    +0.000 A 
ATOM     30  C   UNL     1     108.100 131.423 136.056  0.00  0.00    +0.000 A 
ATOM     31  C   UNL     1     109.169 132.227 135.550  0.00  0.00    +0.000 A 
ATOM     32  C   UNL     1     108.525 131.728 135.417  0.00  0.00    +0.000 A 
ENDBRANCH  25  27
ENDBRANCH  23  24
ENDBRANCH  21  23
ENDBRANCH   5  21
BRANCH   7  33
ATOM     33  O   UNL     1     111.514 129.905 136.695  0.00  0.00    +0.000 OA
BRANCH  33  38
ATOM     34  O   UNL     1     112.889 129.105 135.200  0.00  0.00    +0.000 OA
ATOM     35  O   UNL     1     112.874 130.781 137.021  0.00  0.00    +0.000 OA
ATOM     36  O   UNL     1     114.251 131.120 136.758  0.00  0.00    +0.000 OA
ATOM     37  O   UNL     1     115.670 129.738 134.612  0.00  0.00    +0.000 OA
ATOM     38  C   UNL     1     112.199 129.784 136.251  0.00  0.00    +0.000 A 
ATOM     39  C   UNL     1     112.203 129.226 135.644  0.00  0.00    +0.000 A 
ATOM     40  C   UNL     1     112.878 130.222 136.414  0.00  0.00    +0.000 A 
ATOM     41  C   UNL     1     113.563 130.101 135.969  0.00  0.00    +0.000 A 
ATOM     42  C   UNL     1     113.568 129.542 135.363  0.00  0.00    +0.000 A 
ATOM     43  C   UNL     1     114.265 130.563 136.149  0.00  0.00    +0.000 A 
ATOM     44  C   UNL     1     114.275 129.408 134.893  0.00  0.00    +0.000 A 
ATOM     45  C   UNL     1     114.981 130.443 135.690  0.00  0.00    +0.000 A 
ATOM     46  C   UNL     1     114.987 129.861 135.058  0.00  0.00    +0.000 A 
BRANCH  39  48
ATOM     47  O   UNL     1     109.486 127.470 134.992  0.00  0.00    +0.000 OA
ATOM     48  C   UNL     1     111.523 128.787 135.481  0.00  0.00    +0.000 A 
ATOM     49  C   UNL     1     111.444 128.023 135.781  0.00  0.00    +0.000 A 
ATOM     50  C   UNL     1     110.924 129.112 135.018  0.00  0.00    +0.000 A 
ATOM     51  C   UNL     1     110.765 127.583 135.618  0.00  0.00    +0.000 A 
ATOM     52  C   UNL     1     110.244 128.674 134.855  0.00  0.00    +0.000 A 
ATOM     53  C   UNL     1     110.165 127.909 135.155  0.00  0.00    +0.000 A 
ENDBRANCH  39  48
ENDBRANCH  33  38
ENDBRANCH   7  33
TORSDOF 11
ENDMDL
MODEL 5
REMARK VINA RESULT:      -9.8      1.619      5.293
REMARK  Name = 44259013
REMARK  11 active torsions:
REMARK  status: ('A' for Active; 'I' for Inactive)
REMARK    1  A    between atoms: O_2  and  C_15
REMARK    2  A    between atoms: O_2  and  C_22
REMARK    3  A    between atoms: O_3  and  C_17
REMARK    4  A    between atoms: O_3  and  C_23
REMARK    5  A    between atoms: O_5  and  C_19
REMARK    6  A    between atoms: O_5  and  C_21
REMARK    7  A    between atoms: C_22  and  C_27
REMARK    8  A    between atoms: C_23  and  C_28
REMARK    9  A    between atoms: C_24  and  C_30
REMARK   10  A    between atoms: C_33  and  C_39
REMARK   11  A    between atoms: C_34  and  C_42
REMARK                            x       y       z     vdW  Elec       q    Type
REMARK                         _______ _______ _______ _____ _____    ______ ____
ROOT
ATOM      1  O   UNL     1     111.272 128.538 137.253  0.00  0.00    +0.000 OA
ATOM      2  O   UNL     1     111.782 126.563 138.655  0.00  0.00    +0.000 OA
ATOM      3  C   UNL     1     111.274 127.121 137.441  0.00  0.00    +0.000 C 
ATOM      4  C   UNL     1     111.612 127.221 138.188  0.00  0.00    +0.000 C 
ATOM      5  C   UNL     1     111.780 127.979 138.467  0.00  0.00    +0.000 C 
ATOM      6  C   UNL     1     111.104 127.779 136.974  0.00  0.00    +0.000 C 
ATOM      7  C   UNL     1     111.610 128.638 138.000  0.00  0.00    +0.000 C 
ATOM      8  C   UNL     1     110.767 127.680 136.228  0.00  0.00    +0.000 C 
ENDROOT
BRANCH   3   9
ATOM      9  O   UNL     1     111.107 126.364 137.162  0.00  0.00    +0.000 OA
BRANCH   9  11
ATOM     10  O   UNL     1     112.353 126.117 136.509  0.00  0.00    +0.000 OA
ATOM     11  C   UNL     1     111.531 126.054 136.526  0.00  0.00    +0.000 C 
BRANCH  11  12
ATOM     12  C   UNL     1     111.133 125.683 135.906  0.00  0.00    +0.000 C 
ATOM     13  C   UNL     1     111.281 124.890 135.738  0.00  0.00    +0.000 C 
BRANCH  13  15
ATOM     14  O   UNL     1     113.464 123.199 137.546  0.00  0.00    +0.000 OA
ATOM     15  C   UNL     1     111.826 124.467 136.190  0.00  0.00    +0.000 A 
ATOM     16  C   UNL     1     112.634 124.539 136.036  0.00  0.00    +0.000 A 
ATOM     17  C   UNL     1     111.566 123.972 136.796  0.00  0.00    +0.000 A 
ATOM     18  C   UNL     1     113.180 124.116 136.487  0.00  0.00    +0.000 A 
ATOM     19  C   UNL     1     112.111 123.550 137.248  0.00  0.00    +0.000 A 
ATOM     20  C   UNL     1     112.918 123.622 137.094  0.00  0.00    +0.000 A 
ENDBRANCH  13  15
ENDBRANCH  11  12
ENDBRANCH   9  11
ENDBRANCH   3   9
BRANCH   5  21
ATOM     21  O   UNL     1     112.117 128.079 139.213  0.00  0.00    +0.000 OA
BRANCH  21  23
ATOM     22  O   UNL     1     113.512 127.935 138.936  0.00  0.00    +0.000 OA
ATOM     23  C   UNL     1     112.848 127.737 139.384  0.00  0.00    +0.000 C 
BRANCH  23  24
ATOM     24  C   UNL     1     112.916 127.196 140.003  0.00  0.00    +0.000 C 
ATOM     25  C   UNL     1     113.269 127.423 140.713  0.00  0.00    +0.000 C 
BRANCH  25  27
ATOM     26  O   UNL     1     114.411 130.497 141.079  0.00  0.00    +0.000 OA
ATOM     27  C   UNL     1     113.554 128.191 140.804  0.00  0.00    +0.000 A 
ATOM     28  C   UNL     1     113.091 128.761 141.179  0.00  0.00    +0.000 A 
ATOM     29  C   UNL     1     114.302 128.389 140.521  0.00  0.00    +0.000 A 
ATOM     30  C   UNL     1     113.376 129.530 141.271  0.00  0.00    +0.000 A 
ATOM     31  C   UNL     1     114.589 129.158 140.612  0.00  0.00    +0.000 A 
ATOM     32  C   UNL     1     114.125 129.728 140.987  0.00  0.00    +0.000 A 
ENDBRANCH  25  27
ENDBRANCH  23  24
ENDBRANCH  21  23
ENDBRANCH   5  21
BRANCH   7  33
ATOM     33  O   UNL     1     111.777 129.396 138.278  0.00  0.00    +0.000 OA
BRANCH  33  38
ATOM     34  O   UNL     1     110.980 131.297 137.559  0.00  0.00    +0.000 OA
ATOM     35  O   UNL     1     110.225 129.312 138.830  0.00  0.00    +0.000 OA
ATOM     36  O   UNL     1     108.903 129.872 138.974  0.00  0.00    +0.000 OA
ATOM     37  O   UNL     1     108.335 132.489 137.810  0.00  0.00    +0.000 OA
ATOM     38  C   UNL     1     111.253 130.015 138.130  0.00  0.00    +0.000 A 
ATOM     39  C   UNL     1     111.505 130.676 137.707  0.00  0.00    +0.000 A 
ATOM     40  C   UNL     1     110.477 129.973 138.406  0.00  0.00    +0.000 A 
ATOM     41  C   UNL     1     109.952 130.593 138.258  0.00  0.00    +0.000 A 
ATOM     42  C   UNL     1     110.204 131.254 137.835  0.00  0.00    +0.000 A 
ATOM     43  C   UNL     1     109.146 130.537 138.551  0.00  0.00    +0.000 A 
ATOM     44  C   UNL     1     109.667 131.906 137.675  0.00  0.00    +0.000 A 
ATOM     45  C   UNL     1     108.595 131.179 138.401  0.00  0.00    +0.000 A 
ATOM     46  C   UNL     1     108.857 131.868 137.959  0.00  0.00    +0.000 A 
BRANCH  39  48
ATOM     47  O   UNL     1     114.609 130.847 136.600  0.00  0.00    +0.000 OA
ATOM     48  C   UNL     1     112.281 130.719 137.431  0.00  0.00    +0.000 A 
ATOM     49  C   UNL     1     112.450 130.534 136.645  0.00  0.00    +0.000 A 
ATOM     50  C   UNL     1     112.889 130.947 137.940  0.00  0.00    +0.000 A 
ATOM     51  C   UNL     1     113.225 130.576 136.367  0.00  0.00    +0.000 A 
ATOM     52  C   UNL     1     113.665 130.990 137.663  0.00  0.00    +0.000 A 
ATOM     53  C   UNL     1     113.833 130.804 136.877  0.00  0.00    +0.000 A 
ENDBRANCH  39  48
ENDBRANCH  33  38
ENDBRANCH   7  33
TORSDOF 11
ENDMDL
MODEL 6
REMARK VINA RESULT:      -9.8      1.563      4.753
REMARK  Name = 44259013
REMARK  11 active torsions:
REMARK  status: ('A' for Active; 'I' for Inactive)
REMARK    1  A    between atoms: O_2  and  C_15
REMARK    2  A    between atoms: O_2  and  C_22
REMARK    3  A    between atoms: O_3  and  C_17
REMARK    4  A    between atoms: O_3  and  C_23
REMARK    5  A    between atoms: O_5  and  C_19
REMARK    6  A    between atoms: O_5  and  C_21
REMARK    7  A    between atoms: C_22  and  C_27
REMARK    8  A    between atoms: C_23  and  C_28
REMARK    9  A    between atoms: C_24  and  C_30
REMARK   10  A    between atoms: C_33  and  C_39
REMARK   11  A    between atoms: C_34  and  C_42
REMARK                            x       y       z     vdW  Elec       q    Type
REMARK                         _______ _______ _______ _____ _____    ______ ____
ROOT
ATOM      1  O   UNL     1     111.814 128.495 139.153  0.00  0.00    +0.000 OA
ATOM      2  O   UNL     1     111.102 128.377 136.786  0.00  0.00    +0.000 OA
ATOM      3  C   UNL     1     111.594 127.734 137.963  0.00  0.00    +0.000 C 
ATOM      4  C   UNL     1     111.339 128.416 137.575  0.00  0.00    +0.000 C 
ATOM      5  C   UNL     1     111.322 129.138 137.975  0.00  0.00    +0.000 C 
ATOM      6  C   UNL     1     111.831 127.773 138.752  0.00  0.00    +0.000 C 
ATOM      7  C   UNL     1     111.559 129.177 138.764  0.00  0.00    +0.000 C 
ATOM      8  C   UNL     1     112.085 127.092 139.141  0.00  0.00    +0.000 C 
ENDROOT
BRANCH   3   9
ATOM      9  O   UNL     1     111.611 127.013 137.563  0.00  0.00    +0.000 OA
BRANCH   9  11
ATOM     10  O   UNL     1     112.952 126.522 137.534  0.00  0.00    +0.000 OA
ATOM     11  C   UNL     1     112.282 126.794 137.136  0.00  0.00    +0.000 C 
BRANCH  11  12
ATOM     12  C   UNL     1     112.283 126.845 136.313  0.00  0.00    +0.000 C 
ATOM     13  C   UNL     1     112.294 126.159 135.857  0.00  0.00    +0.000 C 
BRANCH  13  15
ATOM     14  O   UNL     1     112.328 123.202 137.325  0.00  0.00    +0.000 OA
ATOM     15  C   UNL     1     112.302 125.420 136.224  0.00  0.00    +0.000 A 
ATOM     16  C   UNL     1     111.594 125.020 136.365  0.00  0.00    +0.000 A 
ATOM     17  C   UNL     1     113.019 125.079 136.450  0.00  0.00    +0.000 A 
ATOM     18  C   UNL     1     111.602 124.281 136.732  0.00  0.00    +0.000 A 
ATOM     19  C   UNL     1     113.027 124.340 136.817  0.00  0.00    +0.000 A 
ATOM     20  C   UNL     1     112.320 123.942 136.958  0.00  0.00    +0.000 A 
ENDBRANCH  13  15
ENDBRANCH  11  12
ENDBRANCH   9  11
ENDBRANCH   3   9
BRANCH   5  21
ATOM     21  O   UNL     1     111.067 129.819 137.587  0.00  0.00    +0.000 OA
BRANCH  21  23
ATOM     22  O   UNL     1     109.658 129.808 137.823  0.00  0.00    +0.000 OA
ATOM     23  C   UNL     1     110.295 129.867 137.302  0.00  0.00    +0.000 C 
BRANCH  23  24
ATOM     24  C   UNL     1     110.158 129.975 136.496  0.00  0.00    +0.000 C 
ATOM     25  C   UNL     1     109.969 130.724 136.205  0.00  0.00    +0.000 C 
BRANCH  25  27
ATOM     26  O   UNL     1     109.758 133.289 138.271  0.00  0.00    +0.000 OA
ATOM     27  C   UNL     1     109.916 131.365 136.721  0.00  0.00    +0.000 A 
ATOM     28  C   UNL     1     109.224 131.492 137.151  0.00  0.00    +0.000 A 
ATOM     29  C   UNL     1     110.555 131.878 136.807  0.00  0.00    +0.000 A 
ATOM     30  C   UNL     1     109.171 132.133 137.668  0.00  0.00    +0.000 A 
ATOM     31  C   UNL     1     110.503 132.520 137.323  0.00  0.00    +0.000 A 
ATOM     32  C   UNL     1     109.811 132.647 137.754  0.00  0.00    +0.000 A 
ENDBRANCH  25  27
ENDBRANCH  23  24
ENDBRANCH  21  23
ENDBRANCH   5  21
BRANCH   7  33
ATOM     33  O   UNL     1     111.542 129.898 139.165  0.00  0.00    +0.000 OA
BRANCH  33  38
ATOM     34  O   UNL     1     112.671 130.500 140.934  0.00  0.00    +0.000 OA
ATOM     35  O   UNL     1     113.067 129.998 138.543  0.00  0.00    +0.000 OA
ATOM     36  O   UNL     1     114.477 130.262 138.691  0.00  0.00    +0.000 OA
ATOM     37  O   UNL     1     115.507 131.049 141.308  0.00  0.00    +0.000 OA
ATOM     38  C   UNL     1     112.172 130.115 139.651  0.00  0.00    +0.000 A 
ATOM     39  C   UNL     1     112.040 130.282 140.447  0.00  0.00    +0.000 A 
ATOM     40  C   UNL     1     112.934 130.165 139.340  0.00  0.00    +0.000 A 
ATOM     41  C   UNL     1     113.565 130.383 139.826  0.00  0.00    +0.000 A 
ATOM     42  C   UNL     1     113.433 130.550 140.622  0.00  0.00    +0.000 A 
ATOM     43  C   UNL     1     114.355 130.431 139.490  0.00  0.00    +0.000 A 
ATOM     44  C   UNL     1     114.081 130.777 141.138  0.00  0.00    +0.000 A 
ATOM     45  C   UNL     1     115.015 130.657 139.990  0.00  0.00    +0.000 A 
ATOM     46  C   UNL     1     114.878 130.831 140.820  0.00  0.00    +0.000 A 
BRANCH  39  48
ATOM     47  O   UNL     1     108.991 130.085 141.694  0.00  0.00    +0.000 OA
ATOM     48  C   UNL     1     111.278 130.232 140.759  0.00  0.00    +0.000 A 
ATOM     49  C   UNL     1     110.749 130.857 140.656  0.00  0.00    +0.000 A 
ATOM     50  C   UNL     1     111.045 129.559 141.174  0.00  0.00    +0.000 A 
ATOM     51  C   UNL     1     109.987 130.808 140.968  0.00  0.00    +0.000 A 
ATOM     52  C   UNL     1     110.282 129.509 141.486  0.00  0.00    +0.000 A 
ATOM     53  C   UNL     1     109.753 130.134 141.383  0.00  0.00    +0.000 A 
ENDBRANCH  39  48
ENDBRANCH  33  38
ENDBRANCH   7  33
TORSDOF 11
ENDMDL
MODEL 7
REMARK VINA RESULT:      -9.8      1.877      5.023
REMARK  Name = 44259013
REMARK  11 active torsions:
REMARK  status: ('A' for Active; 'I' for Inactive)
REMARK    1  A    between atoms: O_2  and  C_15
REMARK    2  A    between atoms: O_2  and  C_22
REMARK    3  A    between atoms: O_3  and  C_17
REMARK    4  A    between atoms: O_3  and  C_23
REMARK    5  A    between atoms: O_5  and  C_19
REMARK    6  A    between atoms: O_5  and  C_21
REMARK    7  A    between atoms: C_22  and  C_27
REMARK    8  A    between atoms: C_23  and  C_28
REMARK    9  A    between atoms: C_24  and  C_30
REMARK   10  A    between atoms: C_33  and  C_39
REMARK   11  A    between atoms: C_34  and  C_42
REMARK                            x       y       z     vdW  Elec       q    Type
REMARK                         _______ _______ _______ _____ _____    ______ ____
ROOT
ATOM      1  O   UNL     1     112.047 129.603 138.167  0.00  0.00    +0.000 OA
ATOM      2  O   UNL     1     112.428 127.875 139.898  0.00  0.00    +0.000 OA
ATOM      3  C   UNL     1     112.233 129.244 139.538  0.00  0.00    +0.000 C 
ATOM      4  C   UNL     1     112.301 128.451 139.321  0.00  0.00    +0.000 C 
ATOM      5  C   UNL     1     112.242 128.233 138.527  0.00  0.00    +0.000 C 
ATOM      6  C   UNL     1     112.106 129.820 138.962  0.00  0.00    +0.000 C 
ATOM      7  C   UNL     1     112.115 128.809 137.950  0.00  0.00    +0.000 C 
ATOM      8  C   UNL     1     112.038 130.613 139.178  0.00  0.00    +0.000 C 
ENDROOT
BRANCH   3   9
ATOM      9  O   UNL     1     112.293 129.461 140.331  0.00  0.00    +0.000 OA
BRANCH   9  11
ATOM     10  O   UNL     1     110.961 129.811 140.714  0.00  0.00    +0.000 OA
ATOM     11  C   UNL     1     111.646 129.367 140.835  0.00  0.00    +0.000 C 
BRANCH  11  12
ATOM     12  C   UNL     1     111.684 128.830 141.460  0.00  0.00    +0.000 C 
ATOM     13  C   UNL     1     111.694 129.103 142.238  0.00  0.00    +0.000 C 
BRANCH  13  15
ATOM     14  O   UNL     1     111.581 132.344 142.853  0.00  0.00    +0.000 OA
ATOM     15  C   UNL     1     111.666 129.913 142.392  0.00  0.00    +0.000 A 
ATOM     16  C   UNL     1     110.937 130.297 142.448  0.00  0.00    +0.000 A 
ATOM     17  C   UNL     1     112.365 130.339 142.488  0.00  0.00    +0.000 A 
ATOM     18  C   UNL     1     110.909 131.107 142.602  0.00  0.00    +0.000 A 
ATOM     19  C   UNL     1     112.337 131.149 142.642  0.00  0.00    +0.000 A 
ATOM     20  C   UNL     1     111.609 131.533 142.699  0.00  0.00    +0.000 A 
ENDBRANCH  13  15
ENDBRANCH  11  12
ENDBRANCH   9  11
ENDBRANCH   3   9
BRANCH   5  21
ATOM     21  O   UNL     1     112.310 127.441 138.310  0.00  0.00    +0.000 OA
BRANCH  21  23
ATOM     22  O   UNL     1     113.722 127.228 138.362  0.00  0.00    +0.000 OA
ATOM     23  C   UNL     1     112.957 126.997 138.566  0.00  0.00    +0.000 C 
BRANCH  23  24
ATOM     24  C   UNL     1     112.839 126.323 139.026  0.00  0.00    +0.000 C 
ATOM     25  C   UNL     1     113.059 125.582 138.737  0.00  0.00    +0.000 C 
BRANCH  25  27
ATOM     26  O   UNL     1     114.408 125.316 135.737  0.00  0.00    +0.000 OA
ATOM     27  C   UNL     1     113.395 125.516 137.987  0.00  0.00    +0.000 A 
ATOM     28  C   UNL     1     114.211 125.596 137.893  0.00  0.00    +0.000 A 
ATOM     29  C   UNL     1     112.918 125.369 137.332  0.00  0.00    +0.000 A 
ATOM     30  C   UNL     1     114.549 125.529 137.144  0.00  0.00    +0.000 A 
ATOM     31  C   UNL     1     113.254 125.303 136.581  0.00  0.00    +0.000 A 
ATOM     32  C   UNL     1     114.070 125.383 136.487  0.00  0.00    +0.000 A 
ENDBRANCH  25  27
ENDBRANCH  23  24
ENDBRANCH  21  23
ENDBRANCH   5  21
BRANCH   7  33
ATOM     33  O   UNL     1     112.055 128.593 137.157  0.00  0.00    +0.000 OA
BRANCH  33  38
ATOM     34  O   UNL     1     111.290 129.775 135.489  0.00  0.00    +0.000 OA
ATOM     35  O   UNL     1     110.442 128.612 137.502  0.00  0.00    +0.000 OA
ATOM     36  O   UNL     1     109.089 129.010 137.197  0.00  0.00    +0.000 OA
ATOM     37  O   UNL     1     108.585 130.614 134.809  0.00  0.00    +0.000 OA
ATOM     38  C   UNL     1     111.531 128.990 136.658  0.00  0.00    +0.000 A 
ATOM     39  C   UNL     1     111.814 129.377 135.988  0.00  0.00    +0.000 A 
ATOM     40  C   UNL     1     110.725 129.000 136.831  0.00  0.00    +0.000 A 
ATOM     41  C   UNL     1     110.201 129.397 136.332  0.00  0.00    +0.000 A 
ATOM     42  C   UNL     1     110.484 129.785 135.661  0.00  0.00    +0.000 A 
ATOM     43  C   UNL     1     109.363 129.400 136.523  0.00  0.00    +0.000 A 
ATOM     44  C   UNL     1     109.948 130.202 135.135  0.00  0.00    +0.000 A 
ATOM     45  C   UNL     1     108.812 129.812 136.008  0.00  0.00    +0.000 A 
ATOM     46  C   UNL     1     109.106 130.216 135.309  0.00  0.00    +0.000 A 
BRANCH  39  48
ATOM     47  O   UNL     1     115.040 129.337 135.293  0.00  0.00    +0.000 OA
ATOM     48  C   UNL     1     112.621 129.368 135.814  0.00  0.00    +0.000 A 
ATOM     49  C   UNL     1     112.954 128.711 135.441  0.00  0.00    +0.000 A 
ATOM     50  C   UNL     1     113.094 130.013 136.013  0.00  0.00    +0.000 A 
ATOM     51  C   UNL     1     113.761 128.701 135.267  0.00  0.00    +0.000 A 
ATOM     52  C   UNL     1     113.900 130.003 135.839  0.00  0.00    +0.000 A 
ATOM     53  C   UNL     1     114.234 129.347 135.467  0.00  0.00    +0.000 A 
ENDBRANCH  39  48
ENDBRANCH  33  38
ENDBRANCH   7  33
TORSDOF 11
ENDMDL
MODEL 8
REMARK VINA RESULT:      -9.8      1.889      5.001
REMARK  Name = 44259013
REMARK  11 active torsions:
REMARK  status: ('A' for Active; 'I' for Inactive)
REMARK    1  A    between atoms: O_2  and  C_15
REMARK    2  A    between atoms: O_2  and  C_22
REMARK    3  A    between atoms: O_3  and  C_17
REMARK    4  A    between atoms: O_3  and  C_23
REMARK    5  A    between atoms: O_5  and  C_19
REMARK    6  A    between atoms: O_5  and  C_21
REMARK    7  A    between atoms: C_22  and  C_27
REMARK    8  A    between atoms: C_23  and  C_28
REMARK    9  A    between atoms: C_24  and  C_30
REMARK   10  A    between atoms: C_33  and  C_39
REMARK   11  A    between atoms: C_34  and  C_42
REMARK                            x       y       z     vdW  Elec       q    Type
REMARK                         _______ _______ _______ _____ _____    ______ ____
ROOT
ATOM      1  O   UNL     1     110.325 129.156 138.161  0.00  0.00    +0.000 OA
ATOM      2  O   UNL     1     112.015 127.438 138.726  0.00  0.00    +0.000 OA
ATOM      3  C   UNL     1     110.905 127.868 137.936  0.00  0.00    +0.000 C 
ATOM      4  C   UNL     1     111.451 128.010 138.538  0.00  0.00    +0.000 C 
ATOM      5  C   UNL     1     111.436 128.724 138.951  0.00  0.00    +0.000 C 
ATOM      6  C   UNL     1     110.342 128.441 137.748  0.00  0.00    +0.000 C 
ATOM      7  C   UNL     1     110.872 129.297 138.763  0.00  0.00    +0.000 C 
ATOM      8  C   UNL     1     109.795 128.300 137.147  0.00  0.00    +0.000 C 
ENDROOT
BRANCH   3   9
ATOM      9  O   UNL     1     110.921 127.155 137.523  0.00  0.00    +0.000 OA
BRANCH   9  11
ATOM     10  O   UNL     1     112.200 127.147 136.887  0.00  0.00    +0.000 OA
ATOM     11  C   UNL     1     111.379 127.082 136.841  0.00  0.00    +0.000 C 
BRANCH  11  12
ATOM     12  C   UNL     1     111.017 126.945 136.113  0.00  0.00    +0.000 C 
ATOM     13  C   UNL     1     111.105 126.216 135.739  0.00  0.00    +0.000 C 
BRANCH  13  15
ATOM     14  O   UNL     1     112.912 123.844 137.155  0.00  0.00    +0.000 OA
ATOM     15  C   UNL     1     111.557 125.623 136.093  0.00  0.00    +0.000 A 
ATOM     16  C   UNL     1     112.378 125.621 136.004  0.00  0.00    +0.000 A 
ATOM     17  C   UNL     1     111.189 125.033 136.536  0.00  0.00    +0.000 A 
ATOM     18  C   UNL     1     112.829 125.028 136.358  0.00  0.00    +0.000 A 
ATOM     19  C   UNL     1     111.640 124.440 136.890  0.00  0.00    +0.000 A 
ATOM     20  C   UNL     1     112.460 124.438 136.801  0.00  0.00    +0.000 A 
ENDBRANCH  13  15
ENDBRANCH  11  12
ENDBRANCH   9  11
ENDBRANCH   3   9
BRANCH   5  21
ATOM     21  O   UNL     1     111.982 128.866 139.552  0.00  0.00    +0.000 OA
BRANCH  21  23
ATOM     22  O   UNL     1     111.363 128.240 140.678  0.00  0.00    +0.000 OA
ATOM     23  C   UNL     1     112.025 128.356 140.199  0.00  0.00    +0.000 C 
BRANCH  23  24
ATOM     24  C   UNL     1     112.729 127.961 140.368  0.00  0.00    +0.000 C 
ATOM     25  C   UNL     1     113.196 128.203 141.003  0.00  0.00    +0.000 C 
BRANCH  25  27
ATOM     26  O   UNL     1     112.251 130.756 142.868  0.00  0.00    +0.000 OA
ATOM     27  C   UNL     1     112.960 128.841 141.469  0.00  0.00    +0.000 A 
ATOM     28  C   UNL     1     113.266 129.593 141.324  0.00  0.00    +0.000 A 
ATOM     29  C   UNL     1     112.419 128.726 142.080  0.00  0.00    +0.000 A 
ATOM     30  C   UNL     1     113.030 130.231 141.790  0.00  0.00    +0.000 A 
ATOM     31  C   UNL     1     112.182 129.364 142.547  0.00  0.00    +0.000 A 
ATOM     32  C   UNL     1     112.487 130.117 142.402  0.00  0.00    +0.000 A 
ENDBRANCH  25  27
ENDBRANCH  23  24
ENDBRANCH  21  23
ENDBRANCH   5  21
BRANCH   7  33
ATOM     33  O   UNL     1     110.856 130.011 139.175  0.00  0.00    +0.000 OA
BRANCH  33  38
ATOM     34  O   UNL     1     109.898 131.890 138.611  0.00  0.00    +0.000 OA
ATOM     35  O   UNL     1     111.804 130.476 137.907  0.00  0.00    +0.000 OA
ATOM     36  O   UNL     1     112.141 131.405 136.856  0.00  0.00    +0.000 OA
ATOM     37  O   UNL     1     110.520 133.810 136.511  0.00  0.00    +0.000 OA
ATOM     38  C   UNL     1     110.694 130.715 138.776  0.00  0.00    +0.000 A 
ATOM     39  C   UNL     1     110.060 131.186 139.011  0.00  0.00    +0.000 A 
ATOM     40  C   UNL     1     111.168 130.947 138.142  0.00  0.00    +0.000 A 
ATOM     41  C   UNL     1     111.007 131.652 137.743  0.00  0.00    +0.000 A 
ATOM     42  C   UNL     1     110.372 132.123 137.977  0.00  0.00    +0.000 A 
ATOM     43  C   UNL     1     111.508 131.883 137.084  0.00  0.00    +0.000 A 
ATOM     44  C   UNL     1     110.194 132.858 137.570  0.00  0.00    +0.000 A 
ATOM     45  C   UNL     1     111.345 132.615 136.664  0.00  0.00    +0.000 A 
ATOM     46  C   UNL     1     110.684 133.106 136.908  0.00  0.00    +0.000 A 
BRANCH  39  48
ATOM     47  O   UNL     1     108.161 130.257 141.545  0.00  0.00    +0.000 OA
ATOM     48  C   UNL     1     109.585 130.954 139.645  0.00  0.00    +0.000 A 
ATOM     49  C   UNL     1     108.873 130.561 139.504  0.00  0.00    +0.000 A 
ATOM     50  C   UNL     1     109.822 131.114 140.418  0.00  0.00    +0.000 A 
ATOM     51  C   UNL     1     108.398 130.329 140.137  0.00  0.00    +0.000 A 
ATOM     52  C   UNL     1     109.348 130.882 141.052  0.00  0.00    +0.000 A 
ATOM     53  C   UNL     1     108.636 130.489 140.912  0.00  0.00    +0.000 A 
ENDBRANCH  39  48
ENDBRANCH  33  38
ENDBRANCH   7  33
TORSDOF 11
ENDMDL
MODEL 9
REMARK VINA RESULT:      -9.7      1.762      3.310
REMARK  Name = 44259013
REMARK  11 active torsions:
REMARK  status: ('A' for Active; 'I' for Inactive)
REMARK    1  A    between atoms: O_2  and  C_15
REMARK    2  A    between atoms: O_2  and  C_22
REMARK    3  A    between atoms: O_3  and  C_17
REMARK    4  A    between atoms: O_3  and  C_23
REMARK    5  A    between atoms: O_5  and  C_19
REMARK    6  A    between atoms: O_5  and  C_21
REMARK    7  A    between atoms: C_22  and  C_27
REMARK    8  A    between atoms: C_23  and  C_28
REMARK    9  A    between atoms: C_24  and  C_30
REMARK   10  A    between atoms: C_33  and  C_39
REMARK   11  A    between atoms: C_34  and  C_42
REMARK                            x       y       z     vdW  Elec       q    Type
REMARK                         _______ _______ _______ _____ _____    ______ ____
ROOT
ATOM      1  O   UNL     1     111.468 128.952 139.506  0.00  0.00    +0.000 OA
ATOM      2  O   UNL     1     111.625 129.829 137.197  0.00  0.00    +0.000 OA
ATOM      3  C   UNL     1     111.324 130.031 138.579  0.00  0.00    +0.000 C 
ATOM      4  C   UNL     1     111.573 129.537 137.966  0.00  0.00    +0.000 C 
ATOM      5  C   UNL     1     111.769 128.751 138.122  0.00  0.00    +0.000 C 
ATOM      6  C   UNL     1     111.272 129.738 139.348  0.00  0.00    +0.000 C 
ATOM      7  C   UNL     1     111.716 128.458 138.892  0.00  0.00    +0.000 C 
ATOM      8  C   UNL     1     111.024 130.231 139.962  0.00  0.00    +0.000 C 
ENDROOT
BRANCH   3   9
ATOM      9  O   UNL     1     111.128 130.816 138.422  0.00  0.00    +0.000 OA
BRANCH   9  11
ATOM     10  O   UNL     1     109.829 130.678 137.844  0.00  0.00    +0.000 OA
ATOM     11  C   UNL     1     110.336 131.044 138.381  0.00  0.00    +0.000 C 
BRANCH  11  12
ATOM     12  C   UNL     1     110.052 131.638 138.877  0.00  0.00    +0.000 C 
ATOM     13  C   UNL     1     109.755 132.337 138.556  0.00  0.00    +0.000 C 
BRANCH  13  15
ATOM     14  O   UNL     1     109.708 132.758 135.282  0.00  0.00    +0.000 OA
ATOM     15  C   UNL     1     109.743 132.442 137.738  0.00  0.00    +0.000 A 
ATOM     16  C   UNL     1     110.358 132.849 137.365  0.00  0.00    +0.000 A 
ATOM     17  C   UNL     1     109.118 132.141 137.292  0.00  0.00    +0.000 A 
ATOM     18  C   UNL     1     110.346 132.954 136.547  0.00  0.00    +0.000 A 
ATOM     19  C   UNL     1     109.107 132.247 136.473  0.00  0.00    +0.000 A 
ATOM     20  C   UNL     1     109.720 132.653 136.101  0.00  0.00    +0.000 A 
ENDBRANCH  13  15
ENDBRANCH  11  12
ENDBRANCH   9  11
ENDBRANCH   3   9
BRANCH   5  21
ATOM     21  O   UNL     1     112.017 128.258 137.510  0.00  0.00    +0.000 OA
BRANCH  21  23
ATOM     22  O   UNL     1     113.425 128.499 137.470  0.00  0.00    +0.000 OA
ATOM     23  C   UNL     1     112.699 128.441 137.084  0.00  0.00    +0.000 C 
BRANCH  23  24
ATOM     24  C   UNL     1     112.655 128.567 136.270  0.00  0.00    +0.000 C 
ATOM     25  C   UNL     1     112.897 127.976 135.747  0.00  0.00    +0.000 C 
BRANCH  25  27
ATOM     26  O   UNL     1     114.040 125.108 136.914  0.00  0.00    +0.000 OA
ATOM     27  C   UNL     1     113.182 127.259 136.038  0.00  0.00    +0.000 A 
ATOM     28  C   UNL     1     113.975 127.189 136.256  0.00  0.00    +0.000 A 
ATOM     29  C   UNL     1     112.676 126.613 136.113  0.00  0.00    +0.000 A 
ATOM     30  C   UNL     1     114.261 126.473 136.548  0.00  0.00    +0.000 A 
ATOM     31  C   UNL     1     112.961 125.896 136.404  0.00  0.00    +0.000 A 
ATOM     32  C   UNL     1     113.754 125.826 136.622  0.00  0.00    +0.000 A 
ENDBRANCH  25  27
ENDBRANCH  23  24
ENDBRANCH  21  23
ENDBRANCH   5  21
BRANCH   7  33
ATOM     33  O   UNL     1     111.912 127.673 139.050  0.00  0.00    +0.000 OA
BRANCH  33  38
ATOM     34  O   UNL     1     111.268 126.416 140.715  0.00  0.00    +0.000 OA
ATOM     35  O   UNL     1     110.318 127.458 138.681  0.00  0.00    +0.000 OA
ATOM     36  O   UNL     1     109.018 126.903 138.970  0.00  0.00    +0.000 OA
ATOM     37  O   UNL     1     108.673 125.263 141.362  0.00  0.00    +0.000 OA
ATOM     38  C   UNL     1     111.432 127.218 139.543  0.00  0.00    +0.000 A 
ATOM     39  C   UNL     1     111.749 126.871 140.221  0.00  0.00    +0.000 A 
ATOM     40  C   UNL     1     110.636 127.111 139.359  0.00  0.00    +0.000 A 
ATOM     41  C   UNL     1     110.155 126.656 139.853  0.00  0.00    +0.000 A 
ATOM     42  C   UNL     1     110.472 126.309 140.530  0.00  0.00    +0.000 A 
ATOM     43  C   UNL     1     109.327 126.552 139.650  0.00  0.00    +0.000 A 
ATOM     44  C   UNL     1     109.983 125.834 141.052  0.00  0.00    +0.000 A 
ATOM     45  C   UNL     1     108.821 126.080 140.160  0.00  0.00    +0.000 A 
ATOM     46  C   UNL     1     109.151 125.718 140.866  0.00  0.00    +0.000 A 
BRANCH  39  48
ATOM     47  O   UNL     1     114.936 127.300 140.962  0.00  0.00    +0.000 OA
ATOM     48  C   UNL     1     112.546 126.978 140.405  0.00  0.00    +0.000 A 
ATOM     49  C   UNL     1     112.764 127.513 140.995  0.00  0.00    +0.000 A 
ATOM     50  C   UNL     1     113.125 126.551 140.002  0.00  0.00    +0.000 A 
ATOM     51  C   UNL     1     113.561 127.620 141.181  0.00  0.00    +0.000 A 
ATOM     52  C   UNL     1     113.922 126.658 140.187  0.00  0.00    +0.000 A 
ATOM     53  C   UNL     1     114.140 127.193 140.776  0.00  0.00    +0.000 A 
ENDBRANCH  39  48
ENDBRANCH  33  38
ENDBRANCH   7  33
TORSDOF 11
ENDMDL
MODEL 10
REMARK VINA RESULT:      -9.6      1.856      5.792
REMARK  Name = 44259013
REMARK  11 active torsions:
REMARK  status: ('A' for Active; 'I' for Inactive)
REMARK    1  A    between atoms: O_2  and  C_15
REMARK    2  A    between atoms: O_2  and  C_22
REMARK    3  A    between atoms: O_3  and  C_17
REMARK    4  A    between atoms: O_3  and  C_23
REMARK    5  A    between atoms: O_5  and  C_19
REMARK    6  A    between atoms: O_5  and  C_21
REMARK    7  A    between atoms: C_22  and  C_27
REMARK    8  A    between atoms: C_23  and  C_28
REMARK    9  A    between atoms: C_24  and  C_30
REMARK   10  A    between atoms: C_33  and  C_39
REMARK   11  A    between atoms: C_34  and  C_42
REMARK                            x       y       z     vdW  Elec       q    Type
REMARK                         _______ _______ _______ _____ _____    ______ ____
ROOT
ATOM      1  O   UNL     1     112.432 128.174 138.643  0.00  0.00    +0.000 OA
ATOM      2  O   UNL     1     110.780 129.675 139.712  0.00  0.00    +0.000 OA
ATOM      3  C   UNL     1     112.000 128.934 139.774  0.00  0.00    +0.000 C 
ATOM      4  C   UNL     1     111.331 129.175 139.356  0.00  0.00    +0.000 C 
ATOM      5  C   UNL     1     111.212 128.915 138.582  0.00  0.00    +0.000 C 
ATOM      6  C   UNL     1     112.551 128.434 139.418  0.00  0.00    +0.000 C 
ATOM      7  C   UNL     1     111.763 128.415 138.225  0.00  0.00    +0.000 C 
ATOM      8  C   UNL     1     113.220 128.193 139.835  0.00  0.00    +0.000 C 
ENDROOT
BRANCH   3   9
ATOM      9  O   UNL     1     112.119 129.193 140.548  0.00  0.00    +0.000 OA
BRANCH   9  11
ATOM     10  O   UNL     1     110.996 128.649 141.244  0.00  0.00    +0.000 OA
ATOM     11  C   UNL     1     111.811 128.762 141.180  0.00  0.00    +0.000 C 
BRANCH  11  12
ATOM     12  C   UNL     1     112.316 128.444 141.748  0.00  0.00    +0.000 C 
ATOM     13  C   UNL     1     112.329 128.757 142.511  0.00  0.00    +0.000 C 
BRANCH  13  15
ATOM     14  O   UNL     1     110.355 131.285 143.290  0.00  0.00    +0.000 OA
ATOM     15  C   UNL     1     111.836 129.388 142.706  0.00  0.00    +0.000 A 
ATOM     16  C   UNL     1     112.116 130.163 142.651  0.00  0.00    +0.000 A 
ATOM     17  C   UNL     1     111.062 129.247 142.955  0.00  0.00    +0.000 A 
ATOM     18  C   UNL     1     111.622 130.795 142.846  0.00  0.00    +0.000 A 
ATOM     19  C   UNL     1     110.569 129.879 143.150  0.00  0.00    +0.000 A 
ATOM     20  C   UNL     1     110.849 130.652 143.095  0.00  0.00    +0.000 A 
ENDBRANCH  13  15
ENDBRANCH  11  12
ENDBRANCH   9  11
ENDBRANCH   3   9
BRANCH   5  21
ATOM     21  O   UNL     1     110.543 129.156 138.164  0.00  0.00    +0.000 OA
BRANCH  21  23
ATOM     22  O   UNL     1     110.911 130.451 137.685  0.00  0.00    +0.000 OA
ATOM     23  C   UNL     1     110.378 129.960 138.078  0.00  0.00    +0.000 C 
BRANCH  23  24
ATOM     24  C   UNL     1     109.679 130.273 138.384  0.00  0.00    +0.000 C 
ATOM     25  C   UNL     1     109.072 130.503 137.875  0.00  0.00    +0.000 C 
BRANCH  25  27
ATOM     26  O   UNL     1     109.441 130.175 134.612  0.00  0.00    +0.000 OA
ATOM     27  C   UNL     1     109.164 130.421 137.060  0.00  0.00    +0.000 A 
ATOM     28  C   UNL     1     109.554 131.005 136.628  0.00  0.00    +0.000 A 
ATOM     29  C   UNL     1     108.866 129.755 136.676  0.00  0.00    +0.000 A 
ATOM     30  C   UNL     1     109.647 130.924 135.812  0.00  0.00    +0.000 A 
ATOM     31  C   UNL     1     108.958 129.673 135.860  0.00  0.00    +0.000 A 
ATOM     32  C   UNL     1     109.348 130.257 135.428  0.00  0.00    +0.000 A 
ENDBRANCH  25  27
ENDBRANCH  23  24
ENDBRANCH  21  23
ENDBRANCH   5  21
BRANCH   7  33
ATOM     33  O   UNL     1     111.645 128.155 137.451  0.00  0.00    +0.000 OA
BRANCH  33  38
ATOM     34  O   UNL     1     112.583 126.476 136.419  0.00  0.00    +0.000 OA
ATOM     35  O   UNL     1     110.966 126.880 138.248  0.00  0.00    +0.000 OA
ATOM     36  O   UNL     1     110.806 125.461 138.458  0.00  0.00    +0.000 OA
ATOM     37  O   UNL     1     112.311 123.600 136.785  0.00  0.00    +0.000 OA
ATOM     38  C   UNL     1     111.844 127.383 137.240  0.00  0.00    +0.000 A 
ATOM     39  C   UNL     1     112.383 127.249 136.631  0.00  0.00    +0.000 A 
ATOM     40  C   UNL     1     111.505 126.746 137.638  0.00  0.00    +0.000 A 
ATOM     41  C   UNL     1     111.705 125.973 137.426  0.00  0.00    +0.000 A 
ATOM     42  C   UNL     1     112.244 125.839 136.817  0.00  0.00    +0.000 A 
ATOM     43  C   UNL     1     111.344 125.317 137.849  0.00  0.00    +0.000 A 
ATOM     44  C   UNL     1     112.460 125.040 136.588  0.00  0.00    +0.000 A 
ATOM     45  C   UNL     1     111.548 124.511 137.634  0.00  0.00    +0.000 A 
ATOM     46  C   UNL     1     112.110 124.371 136.999  0.00  0.00    +0.000 A 
BRANCH  39  48
ATOM     47  O   UNL     1     113.740 129.799 135.034  0.00  0.00    +0.000 OA
ATOM     48  C   UNL     1     112.723 127.887 136.232  0.00  0.00    +0.000 A 
ATOM     49  C   UNL     1     112.309 128.260 135.624  0.00  0.00    +0.000 A 
ATOM     50  C   UNL     1     113.476 128.150 136.440  0.00  0.00    +0.000 A 
ATOM     51  C   UNL     1     112.648 128.897 135.224  0.00  0.00    +0.000 A 
ATOM     52  C   UNL     1     113.815 128.788 136.042  0.00  0.00    +0.000 A 
ATOM     53  C   UNL     1     113.401 129.161 135.434  0.00  0.00    +0.000 A 
ENDBRANCH  39  48
ENDBRANCH  33  38
ENDBRANCH   7  33
TORSDOF 11
ENDMDL
