MODEL 1
REMARK VINA RESULT:      -8.0      0.000      0.000
REMARK  Name = 14375131
REMARK  10 active torsions:
REMARK  status: ('A' for Active; 'I' for Inactive)
REMARK    1  A    between atoms: O_2  and  C_19
REMARK    2  A    between atoms: O_2  and  C_21
REMARK    3  A    between atoms: O_9  and  C_27
REMARK    4  A    between atoms: O_10  and  C_28
REMARK    5  A    between atoms: O_11  and  C_29
REMARK    6  A    between atoms: O_12  and  C_30
REMARK    7  A    between atoms: O_13  and  C_33
REMARK    8  A    between atoms: O_14  and  C_35
REMARK    9  A    between atoms: C_18  and  C_20
REMARK   10  A    between atoms: C_22  and  C_26
REMARK                            x       y       z     vdW  Elec       q    Type
REMARK                         _______ _______ _______ _____ _____    ______ ____
ROOT
ATOM      1  O   UNL     1     112.359 128.457 138.365  0.00  0.00    +0.000 OA
ATOM      2  O   UNL     1     112.233 127.264 136.199  0.00  0.00    +0.000 OA
ATOM      3  C   UNL     1     111.980 127.307 137.605  0.00  0.00    +0.000 A 
ATOM      4  C   UNL     1     112.022 127.705 138.327  0.00  0.00    +0.000 A 
ATOM      5  C   UNL     1     112.275 127.662 136.922  0.00  0.00    +0.000 A 
ATOM      6  C   UNL     1     112.612 128.414 136.959  0.00  0.00    +0.000 A 
ATOM      7  C   UNL     1     112.654 128.811 137.681  0.00  0.00    +0.000 A 
ATOM      8  C   UNL     1     112.916 128.773 136.240  0.00  0.00    +0.000 A 
ATOM      9  C   UNL     1     113.003 129.596 137.734  0.00  0.00    +0.000 A 
ATOM     10  C   UNL     1     113.268 129.556 136.273  0.00  0.00    +0.000 A 
ATOM     11  C   UNL     1     113.312 129.970 137.025  0.00  0.00    +0.000 A 
ENDROOT
BRANCH   4  12
ATOM     12  C   UNL     1     111.727 127.350 139.011  0.00  0.00    +0.000 A 
ATOM     13  C   UNL     1     112.247 127.050 139.577  0.00  0.00    +0.000 A 
ATOM     14  C   UNL     1     110.912 127.294 139.128  0.00  0.00    +0.000 A 
ATOM     15  C   UNL     1     111.952 126.695 140.261  0.00  0.00    +0.000 A 
ATOM     16  C   UNL     1     110.618 126.939 139.813  0.00  0.00    +0.000 A 
ATOM     17  C   UNL     1     111.137 126.639 140.378  0.00  0.00    +0.000 A 
BRANCH  15  18
ATOM     18  O   UNL     1     112.473 126.395 140.827  0.00  0.00    +0.000 OA
ATOM     19  C   UNL     1     113.205 126.756 140.947  0.00  0.00    +0.000 C 
ENDBRANCH  15  18
BRANCH  17  20
ATOM     20  O   UNL     1     110.843 126.284 141.062  0.00  0.00    +0.000 OA
ATOM     21  C   UNL     1     110.029 126.228 141.180  0.00  0.00    +0.000 C 
ENDBRANCH  17  20
ENDBRANCH   4  12
BRANCH   8  22
ATOM     22  O   UNL     1     112.870 128.368 135.522  0.00  0.00    +0.000 OA
ATOM     23  C   UNL     1     112.238 128.508 135.010  0.00  0.00    +0.000 C 
ENDBRANCH   8  22
BRANCH   9  24
ATOM     24  O   UNL     1     113.041 129.985 138.460  0.00  0.00    +0.000 OA
ATOM     25  C   UNL     1     113.760 130.042 138.860  0.00  0.00    +0.000 C 
ENDBRANCH   9  24
BRANCH  10  26
ATOM     26  O   UNL     1     113.563 129.908 135.588  0.00  0.00    +0.000 OA
ATOM     27  C   UNL     1     114.353 129.805 135.376  0.00  0.00    +0.000 C 
ENDBRANCH  10  26
BRANCH  11  28
ATOM     28  O   UNL     1     113.649 130.722 137.066  0.00  0.00    +0.000 OA
ATOM     29  C   UNL     1     113.179 131.391 136.951  0.00  0.00    +0.000 C 
ENDBRANCH  11  28
BRANCH   3  30
ATOM     30  O   UNL     1     111.643 126.555 137.567  0.00  0.00    +0.000 OA
BRANCH  30  39
ATOM     31  O   UNL     1     112.900 125.894 137.413  0.00  0.00    +0.000 OA
ATOM     32  O   UNL     1     111.784 124.056 136.188  0.00  0.00    +0.000 OA
ATOM     33  O   UNL     1     113.413 124.008 136.442  0.00  0.00    +0.000 OA
ATOM     34  O   UNL     1     110.899 125.330 136.751  0.00  0.00    +0.000 OA
ATOM     35  C   UNL     1     112.156 124.669 136.596  0.00  0.00    +0.000 C 
ATOM     36  C   UNL     1     112.971 124.645 136.724  0.00  0.00    +0.000 C 
ATOM     37  C   UNL     1     111.713 125.306 136.878  0.00  0.00    +0.000 C 
ATOM     38  C   UNL     1     113.343 125.258 137.132  0.00  0.00    +0.000 C 
ATOM     39  C   UNL     1     112.085 125.919 137.286  0.00  0.00    +0.000 C 
BRANCH  38  41
ATOM     40  O   UNL     1     114.456 125.242 138.028  0.00  0.00    +0.000 OA
ATOM     41  C   UNL     1     114.157 125.234 137.259  0.00  0.00    +0.000 C 
ENDBRANCH  38  41
ENDBRANCH  30  39
ENDBRANCH   3  30
TORSDOF 10
ENDMDL
MODEL 2
REMARK VINA RESULT:      -7.9      0.860      3.641
REMARK  Name = 14375131
REMARK  10 active torsions:
REMARK  status: ('A' for Active; 'I' for Inactive)
REMARK    1  A    between atoms: O_2  and  C_19
REMARK    2  A    between atoms: O_2  and  C_21
REMARK    3  A    between atoms: O_9  and  C_27
REMARK    4  A    between atoms: O_10  and  C_28
REMARK    5  A    between atoms: O_11  and  C_29
REMARK    6  A    between atoms: O_12  and  C_30
REMARK    7  A    between atoms: O_13  and  C_33
REMARK    8  A    between atoms: O_14  and  C_35
REMARK    9  A    between atoms: C_18  and  C_20
REMARK   10  A    between atoms: C_22  and  C_26
REMARK                            x       y       z     vdW  Elec       q    Type
REMARK                         _______ _______ _______ _____ _____    ______ ____
ROOT
ATOM      1  O   UNL     1     112.874 127.459 136.665  0.00  0.00    +0.000 OA
ATOM      2  O   UNL     1     112.703 128.165 139.031  0.00  0.00    +0.000 OA
ATOM      3  C   UNL     1     112.583 127.152 138.030  0.00  0.00    +0.000 A 
ATOM      4  C   UNL     1     112.640 126.917 137.241  0.00  0.00    +0.000 A 
ATOM      5  C   UNL     1     112.760 127.930 138.242  0.00  0.00    +0.000 A 
ATOM      6  C   UNL     1     112.994 128.472 137.666  0.00  0.00    +0.000 A 
ATOM      7  C   UNL     1     113.051 128.236 136.878  0.00  0.00    +0.000 A 
ATOM      8  C   UNL     1     113.176 129.279 137.900  0.00  0.00    +0.000 A 
ATOM      9  C   UNL     1     113.294 128.791 136.267  0.00  0.00    +0.000 A 
ATOM     10  C   UNL     1     113.420 129.847 137.304  0.00  0.00    +0.000 A 
ATOM     11  C   UNL     1     113.479 129.602 136.482  0.00  0.00    +0.000 A 
ENDROOT
BRANCH   4  12
ATOM     12  C   UNL     1     112.463 126.140 137.029  0.00  0.00    +0.000 A 
ATOM     13  C   UNL     1     111.762 125.972 136.627  0.00  0.00    +0.000 A 
ATOM     14  C   UNL     1     112.986 125.530 137.220  0.00  0.00    +0.000 A 
ATOM     15  C   UNL     1     111.585 125.194 136.415  0.00  0.00    +0.000 A 
ATOM     16  C   UNL     1     112.808 124.753 137.007  0.00  0.00    +0.000 A 
ATOM     17  C   UNL     1     112.108 124.585 136.605  0.00  0.00    +0.000 A 
BRANCH  15  18
ATOM     18  O   UNL     1     110.884 125.026 136.012  0.00  0.00    +0.000 OA
ATOM     19  C   UNL     1     110.544 125.595 135.521  0.00  0.00    +0.000 C 
ENDBRANCH  15  18
BRANCH  17  20
ATOM     20  O   UNL     1     111.929 123.808 136.393  0.00  0.00    +0.000 OA
ATOM     21  C   UNL     1     112.254 123.180 136.818  0.00  0.00    +0.000 C 
ENDBRANCH  17  20
ENDBRANCH   4  12
BRANCH   8  22
ATOM     22  O   UNL     1     113.116 129.505 138.691  0.00  0.00    +0.000 OA
ATOM     23  C   UNL     1     113.788 129.508 139.171  0.00  0.00    +0.000 C 
ENDBRANCH   8  22
BRANCH   9  24
ATOM     24  O   UNL     1     113.348 128.547 135.481  0.00  0.00    +0.000 OA
ATOM     25  C   UNL     1     112.767 128.771 134.939  0.00  0.00    +0.000 C 
ENDBRANCH   9  24
BRANCH  10  26
ATOM     26  O   UNL     1     113.596 130.624 137.519  0.00  0.00    +0.000 OA
ATOM     27  C   UNL     1     113.013 131.206 137.479  0.00  0.00    +0.000 C 
ENDBRANCH  10  26
BRANCH  11  28
ATOM     28  O   UNL     1     113.713 130.142 135.904  0.00  0.00    +0.000 OA
ATOM     29  C   UNL     1     114.512 130.224 135.715  0.00  0.00    +0.000 C 
ENDBRANCH  11  28
BRANCH   3  30
ATOM     30  O   UNL     1     112.349 126.610 138.607  0.00  0.00    +0.000 OA
BRANCH  30  39
ATOM     31  O   UNL     1     111.040 127.165 138.747  0.00  0.00    +0.000 OA
ATOM     32  O   UNL     1     110.975 126.413 141.105  0.00  0.00    +0.000 OA
ATOM     33  O   UNL     1     109.688 127.218 140.459  0.00  0.00    +0.000 OA
ATOM     34  O   UNL     1     112.306 126.109 140.178  0.00  0.00    +0.000 OA
ATOM     35  C   UNL     1     110.996 126.664 140.319  0.00  0.00    +0.000 C 
ATOM     36  C   UNL     1     110.353 127.066 139.996  0.00  0.00    +0.000 C 
ATOM     37  C   UNL     1     111.662 126.512 139.855  0.00  0.00    +0.000 C 
ATOM     38  C   UNL     1     110.375 127.317 139.210  0.00  0.00    +0.000 C 
ATOM     39  C   UNL     1     111.684 126.762 139.069  0.00  0.00    +0.000 C 
BRANCH  38  41
ATOM     40  O   UNL     1     109.316 127.394 138.253  0.00  0.00    +0.000 OA
ATOM     41  C   UNL     1     109.731 127.719 138.888  0.00  0.00    +0.000 C 
ENDBRANCH  38  41
ENDBRANCH  30  39
ENDBRANCH   3  30
TORSDOF 10
ENDMDL
MODEL 3
REMARK VINA RESULT:      -7.9      1.781      4.272
REMARK  Name = 14375131
REMARK  10 active torsions:
REMARK  status: ('A' for Active; 'I' for Inactive)
REMARK    1  A    between atoms: O_2  and  C_19
REMARK    2  A    between atoms: O_2  and  C_21
REMARK    3  A    between atoms: O_9  and  C_27
REMARK    4  A    between atoms: O_10  and  C_28
REMARK    5  A    between atoms: O_11  and  C_29
REMARK    6  A    between atoms: O_12  and  C_30
REMARK    7  A    between atoms: O_13  and  C_33
REMARK    8  A    between atoms: O_14  and  C_35
REMARK    9  A    between atoms: C_18  and  C_20
REMARK   10  A    between atoms: C_22  and  C_26
REMARK                            x       y       z     vdW  Elec       q    Type
REMARK                         _______ _______ _______ _____ _____    ______ ____
ROOT
ATOM      1  O   UNL     1     111.414 126.985 136.741  0.00  0.00    +0.000 OA
ATOM      2  O   UNL     1     112.008 129.138 135.673  0.00  0.00    +0.000 OA
ATOM      3  C   UNL     1     112.404 127.926 136.319  0.00  0.00    +0.000 A 
ATOM      4  C   UNL     1     112.206 127.208 136.675  0.00  0.00    +0.000 A 
ATOM      5  C   UNL     1     111.810 128.420 136.029  0.00  0.00    +0.000 A 
ATOM      6  C   UNL     1     111.019 128.196 136.095  0.00  0.00    +0.000 A 
ATOM      7  C   UNL     1     110.821 127.479 136.451  0.00  0.00    +0.000 A 
ATOM      8  C   UNL     1     110.410 128.720 135.789  0.00  0.00    +0.000 A 
ATOM      9  C   UNL     1     110.000 127.235 136.526  0.00  0.00    +0.000 A 
ATOM     10  C   UNL     1     109.584 128.493 135.855  0.00  0.00    +0.000 A 
ATOM     11  C   UNL     1     109.377 127.745 136.226  0.00  0.00    +0.000 A 
ENDROOT
BRANCH   4  12
ATOM     12  C   UNL     1     112.800 126.714 136.964  0.00  0.00    +0.000 A 
ATOM     13  C   UNL     1     112.939 126.670 137.777  0.00  0.00    +0.000 A 
ATOM     14  C   UNL     1     113.254 126.265 136.443  0.00  0.00    +0.000 A 
ATOM     15  C   UNL     1     113.533 126.177 138.066  0.00  0.00    +0.000 A 
ATOM     16  C   UNL     1     113.848 125.771 136.733  0.00  0.00    +0.000 A 
ATOM     17  C   UNL     1     113.988 125.727 137.545  0.00  0.00    +0.000 A 
BRANCH  15  18
ATOM     18  O   UNL     1     113.673 126.133 138.879  0.00  0.00    +0.000 OA
ATOM     19  C   UNL     1     113.125 126.447 139.409  0.00  0.00    +0.000 C 
ENDBRANCH  15  18
BRANCH  17  20
ATOM     20  O   UNL     1     114.582 125.233 137.836  0.00  0.00    +0.000 OA
ATOM     21  C   UNL     1     114.950 124.692 137.334  0.00  0.00    +0.000 C 
ENDBRANCH  17  20
ENDBRANCH   4  12
BRANCH   8  22
ATOM     22  O   UNL     1     110.617 129.436 135.435  0.00  0.00    +0.000 OA
ATOM     23  C   UNL     1     110.657 129.492 134.612  0.00  0.00    +0.000 C 
ENDBRANCH   8  22
BRANCH   9  24
ATOM     24  O   UNL     1     109.811 126.516 136.883  0.00  0.00    +0.000 OA
ATOM     25  C   UNL     1     109.543 126.501 137.663  0.00  0.00    +0.000 C 
ENDBRANCH   9  24
BRANCH  10  26
ATOM     26  O   UNL     1     108.992 128.989 135.564  0.00  0.00    +0.000 OA
ATOM     27  C   UNL     1     108.648 129.554 136.057  0.00  0.00    +0.000 C 
ENDBRANCH  10  26
BRANCH  11  28
ATOM     28  O   UNL     1     108.587 127.520 136.293  0.00  0.00    +0.000 OA
ATOM     29  C   UNL     1     108.235 127.067 135.700  0.00  0.00    +0.000 C 
ENDBRANCH  11  28
BRANCH   3  30
ATOM     30  O   UNL     1     113.195 128.149 136.253  0.00  0.00    +0.000 OA
BRANCH  30  39
ATOM     31  O   UNL     1     113.121 129.156 137.264  0.00  0.00    +0.000 OA
ATOM     32  O   UNL     1     114.856 130.469 136.085  0.00  0.00    +0.000 OA
ATOM     33  O   UNL     1     114.203 131.037 137.489  0.00  0.00    +0.000 OA
ATOM     34  O   UNL     1     114.352 129.025 135.466  0.00  0.00    +0.000 OA
ATOM     35  C   UNL     1     114.278 130.032 136.478  0.00  0.00    +0.000 C 
ATOM     36  C   UNL     1     113.951 130.315 137.180  0.00  0.00    +0.000 C 
ATOM     37  C   UNL     1     114.025 129.309 136.169  0.00  0.00    +0.000 C 
ATOM     38  C   UNL     1     113.373 129.878 137.573  0.00  0.00    +0.000 C 
ATOM     39  C   UNL     1     113.447 128.871 136.562  0.00  0.00    +0.000 C 
BRANCH  38  41
ATOM     40  O   UNL     1     113.175 129.759 138.984  0.00  0.00    +0.000 OA
ATOM     41  C   UNL     1     113.047 130.162 138.275  0.00  0.00    +0.000 C 
ENDBRANCH  38  41
ENDBRANCH  30  39
ENDBRANCH   3  30
TORSDOF 10
ENDMDL
MODEL 4
REMARK VINA RESULT:      -7.9      1.983      4.976
REMARK  Name = 14375131
REMARK  10 active torsions:
REMARK  status: ('A' for Active; 'I' for Inactive)
REMARK    1  A    between atoms: O_2  and  C_19
REMARK    2  A    between atoms: O_2  and  C_21
REMARK    3  A    between atoms: O_9  and  C_27
REMARK    4  A    between atoms: O_10  and  C_28
REMARK    5  A    between atoms: O_11  and  C_29
REMARK    6  A    between atoms: O_12  and  C_30
REMARK    7  A    between atoms: O_13  and  C_33
REMARK    8  A    between atoms: O_14  and  C_35
REMARK    9  A    between atoms: C_18  and  C_20
REMARK   10  A    between atoms: C_22  and  C_26
REMARK                            x       y       z     vdW  Elec       q    Type
REMARK                         _______ _______ _______ _____ _____    ______ ____
ROOT
ATOM      1  O   UNL     1     113.406 127.536 136.536  0.00  0.00    +0.000 OA
ATOM      2  O   UNL     1     111.067 127.492 135.727  0.00  0.00    +0.000 OA
ATOM      3  C   UNL     1     112.292 128.199 135.934  0.00  0.00    +0.000 A 
ATOM      4  C   UNL     1     113.072 128.213 136.204  0.00  0.00    +0.000 A 
ATOM      5  C   UNL     1     111.847 127.507 135.997  0.00  0.00    +0.000 A 
ATOM      6  C   UNL     1     112.182 126.829 136.329  0.00  0.00    +0.000 A 
ATOM      7  C   UNL     1     112.961 126.845 136.598  0.00  0.00    +0.000 A 
ATOM      8  C   UNL     1     111.708 126.115 136.388  0.00  0.00    +0.000 A 
ATOM      9  C   UNL     1     113.322 126.146 136.946  0.00  0.00    +0.000 A 
ATOM     10  C   UNL     1     112.051 125.407 136.733  0.00  0.00    +0.000 A 
ATOM     11  C   UNL     1     112.863 125.422 137.014  0.00  0.00    +0.000 A 
ENDROOT
BRANCH   4  12
ATOM     12  C   UNL     1     113.516 128.905 136.142  0.00  0.00    +0.000 A 
ATOM     13  C   UNL     1     113.633 129.382 136.806  0.00  0.00    +0.000 A 
ATOM     14  C   UNL     1     113.844 129.122 135.416  0.00  0.00    +0.000 A 
ATOM     15  C   UNL     1     114.077 130.074 136.743  0.00  0.00    +0.000 A 
ATOM     16  C   UNL     1     114.288 129.815 135.355  0.00  0.00    +0.000 A 
ATOM     17  C   UNL     1     114.405 130.290 136.018  0.00  0.00    +0.000 A 
BRANCH  15  18
ATOM     18  O   UNL     1     114.194 130.550 137.408  0.00  0.00    +0.000 OA
ATOM     19  C   UNL     1     114.086 130.237 138.164  0.00  0.00    +0.000 C 
ENDBRANCH  15  18
BRANCH  17  20
ATOM     20  O   UNL     1     114.849 130.983 135.957  0.00  0.00    +0.000 OA
ATOM     21  C   UNL     1     115.286 131.133 135.273  0.00  0.00    +0.000 C 
ENDBRANCH  17  20
ENDBRANCH   4  12
BRANCH   8  22
ATOM     22  O   UNL     1     110.929 126.109 136.115  0.00  0.00    +0.000 OA
ATOM     23  C   UNL     1     110.758 125.815 135.363  0.00  0.00    +0.000 C 
ENDBRANCH   8  22
BRANCH   9  24
ATOM     24  O   UNL     1     114.101 126.170 137.213  0.00  0.00    +0.000 OA
ATOM     25  C   UNL     1     114.260 126.158 138.023  0.00  0.00    +0.000 C 
ENDBRANCH   9  24
BRANCH  10  26
ATOM     26  O   UNL     1     111.604 124.716 136.794  0.00  0.00    +0.000 OA
ATOM     27  C   UNL     1     111.205 124.542 137.495  0.00  0.00    +0.000 C 
ENDBRANCH  10  26
BRANCH  11  28
ATOM     28  O   UNL     1     113.200 124.747 137.346  0.00  0.00    +0.000 OA
ATOM     29  C   UNL     1     113.602 124.208 136.868  0.00  0.00    +0.000 C 
ENDBRANCH  11  28
BRANCH   3  30
ATOM     30  O   UNL     1     111.957 128.876 135.602  0.00  0.00    +0.000 OA
BRANCH  30  39
ATOM     31  O   UNL     1     111.130 129.156 136.733  0.00  0.00    +0.000 OA
ATOM     32  O   UNL     1     109.458 130.216 135.249  0.00  0.00    +0.000 OA
ATOM     33  O   UNL     1     109.189 130.142 136.875  0.00  0.00    +0.000 OA
ATOM     34  O   UNL     1     110.842 129.583 134.612  0.00  0.00    +0.000 OA
ATOM     35  C   UNL     1     110.015 129.863 135.744  0.00  0.00    +0.000 C 
ATOM     36  C   UNL     1     109.881 129.826 136.557  0.00  0.00    +0.000 C 
ATOM     37  C   UNL     1     110.708 129.546 135.426  0.00  0.00    +0.000 C 
ATOM     38  C   UNL     1     110.439 129.472 137.052  0.00  0.00    +0.000 C 
ATOM     39  C   UNL     1     111.266 129.192 135.920  0.00  0.00    +0.000 C 
BRANCH  38  41
ATOM     40  O   UNL     1     110.782 129.865 138.382  0.00  0.00    +0.000 OA
ATOM     41  C   UNL     1     110.304 129.435 137.864  0.00  0.00    +0.000 C 
ENDBRANCH  38  41
ENDBRANCH  30  39
ENDBRANCH   3  30
TORSDOF 10
ENDMDL
MODEL 5
REMARK VINA RESULT:      -7.7      1.647      3.982
REMARK  Name = 14375131
REMARK  10 active torsions:
REMARK  status: ('A' for Active; 'I' for Inactive)
REMARK    1  A    between atoms: O_2  and  C_19
REMARK    2  A    between atoms: O_2  and  C_21
REMARK    3  A    between atoms: O_9  and  C_27
REMARK    4  A    between atoms: O_10  and  C_28
REMARK    5  A    between atoms: O_11  and  C_29
REMARK    6  A    between atoms: O_12  and  C_30
REMARK    7  A    between atoms: O_13  and  C_33
REMARK    8  A    between atoms: O_14  and  C_35
REMARK    9  A    between atoms: C_18  and  C_20
REMARK   10  A    between atoms: C_22  and  C_26
REMARK                            x       y       z     vdW  Elec       q    Type
REMARK                         _______ _______ _______ _____ _____    ______ ____
ROOT
ATOM      1  O   UNL     1     111.756 127.588 136.328  0.00  0.00    +0.000 OA
ATOM      2  O   UNL     1     111.774 128.666 138.557  0.00  0.00    +0.000 OA
ATOM      3  C   UNL     1     112.252 127.655 137.668  0.00  0.00    +0.000 A 
ATOM      4  C   UNL     1     112.246 127.296 136.924  0.00  0.00    +0.000 A 
ATOM      5  C   UNL     1     111.768 128.307 137.814  0.00  0.00    +0.000 A 
ATOM      6  C   UNL     1     111.278 128.599 137.218  0.00  0.00    +0.000 A 
ATOM      7  C   UNL     1     111.272 128.240 136.476  0.00  0.00    +0.000 A 
ATOM      8  C   UNL     1     110.778 129.278 137.384  0.00  0.00    +0.000 A 
ATOM      9  C   UNL     1     110.766 128.535 135.846  0.00  0.00    +0.000 A 
ATOM     10  C   UNL     1     110.266 129.587 136.767  0.00  0.00    +0.000 A 
ATOM     11  C   UNL     1     110.260 129.214 135.993  0.00  0.00    +0.000 A 
ENDROOT
BRANCH   4  12
ATOM     12  C   UNL     1     112.731 126.645 136.778  0.00  0.00    +0.000 A 
ATOM     13  C   UNL     1     112.401 125.889 136.724  0.00  0.00    +0.000 A 
ATOM     14  C   UNL     1     113.544 126.747 136.685  0.00  0.00    +0.000 A 
ATOM     15  C   UNL     1     112.885 125.238 136.578  0.00  0.00    +0.000 A 
ATOM     16  C   UNL     1     114.028 126.095 136.539  0.00  0.00    +0.000 A 
ATOM     17  C   UNL     1     113.699 125.341 136.485  0.00  0.00    +0.000 A 
BRANCH  15  18
ATOM     18  O   UNL     1     112.556 124.483 136.524  0.00  0.00    +0.000 OA
ATOM     19  C   UNL     1     111.755 124.394 136.346  0.00  0.00    +0.000 C 
ENDBRANCH  15  18
BRANCH  17  20
ATOM     20  O   UNL     1     114.182 124.688 136.339  0.00  0.00    +0.000 OA
ATOM     21  C   UNL     1     115.003 124.774 136.346  0.00  0.00    +0.000 C 
ENDBRANCH  17  20
ENDBRANCH   4  12
BRANCH   8  22
ATOM     22  O   UNL     1     110.790 129.631 138.130  0.00  0.00    +0.000 OA
ATOM     23  C   UNL     1     111.275 130.284 138.269  0.00  0.00    +0.000 C 
ENDBRANCH   8  22
BRANCH   9  24
ATOM     24  O   UNL     1     110.767 128.170 135.107  0.00  0.00    +0.000 OA
ATOM     25  C   UNL     1     110.141 127.679 134.889  0.00  0.00    +0.000 C 
ENDBRANCH   9  24
BRANCH  10  26
ATOM     26  O   UNL     1     109.783 130.239 136.917  0.00  0.00    +0.000 OA
ATOM     27  C   UNL     1     109.011 130.128 137.186  0.00  0.00    +0.000 C 
ENDBRANCH  10  26
BRANCH  11  28
ATOM     28  O   UNL     1     109.771 129.504 135.396  0.00  0.00    +0.000 OA
ATOM     29  C   UNL     1     110.054 130.075 134.872  0.00  0.00    +0.000 C 
ENDBRANCH  11  28
BRANCH   3  30
ATOM     30  O   UNL     1     112.742 127.363 138.263  0.00  0.00    +0.000 OA
BRANCH  30  39
ATOM     31  O   UNL     1     111.668 126.755 138.983  0.00  0.00    +0.000 OA
ATOM     32  O   UNL     1     112.934 127.016 141.094  0.00  0.00    +0.000 OA
ATOM     33  O   UNL     1     111.438 126.322 141.110  0.00  0.00    +0.000 OA
ATOM     34  O   UNL     1     113.586 127.537 139.670  0.00  0.00    +0.000 OA
ATOM     35  C   UNL     1     112.512 126.929 140.390  0.00  0.00    +0.000 C 
ATOM     36  C   UNL     1     111.764 126.582 140.398  0.00  0.00    +0.000 C 
ATOM     37  C   UNL     1     112.838 127.190 139.678  0.00  0.00    +0.000 C 
ATOM     38  C   UNL     1     111.341 126.495 139.694  0.00  0.00    +0.000 C 
ATOM     39  C   UNL     1     112.416 127.103 138.974  0.00  0.00    +0.000 C 
BRANCH  38  41
ATOM     40  O   UNL     1     110.479 125.406 139.362  0.00  0.00    +0.000 OA
ATOM     41  C   UNL     1     110.594 126.148 139.703  0.00  0.00    +0.000 C 
ENDBRANCH  38  41
ENDBRANCH  30  39
ENDBRANCH   3  30
TORSDOF 10
ENDMDL
MODEL 6
REMARK VINA RESULT:      -7.6      1.693      4.801
REMARK  Name = 14375131
REMARK  10 active torsions:
REMARK  status: ('A' for Active; 'I' for Inactive)
REMARK    1  A    between atoms: O_2  and  C_19
REMARK    2  A    between atoms: O_2  and  C_21
REMARK    3  A    between atoms: O_9  and  C_27
REMARK    4  A    between atoms: O_10  and  C_28
REMARK    5  A    between atoms: O_11  and  C_29
REMARK    6  A    between atoms: O_12  and  C_30
REMARK    7  A    between atoms: O_13  and  C_33
REMARK    8  A    between atoms: O_14  and  C_35
REMARK    9  A    between atoms: C_18  and  C_20
REMARK   10  A    between atoms: C_22  and  C_26
REMARK                            x       y       z     vdW  Elec       q    Type
REMARK                         _______ _______ _______ _____ _____    ______ ____
ROOT
ATOM      1  O   UNL     1     111.137 127.037 136.815  0.00  0.00    +0.000 OA
ATOM      2  O   UNL     1     113.279 127.648 137.896  0.00  0.00    +0.000 OA
ATOM      3  C   UNL     1     111.988 128.020 137.408  0.00  0.00    +0.000 A 
ATOM      4  C   UNL     1     111.274 127.816 137.048  0.00  0.00    +0.000 A 
ATOM      5  C   UNL     1     112.565 127.444 137.535  0.00  0.00    +0.000 A 
ATOM      6  C   UNL     1     112.428 126.664 137.302  0.00  0.00    +0.000 A 
ATOM      7  C   UNL     1     111.715 126.461 136.943  0.00  0.00    +0.000 A 
ATOM      8  C   UNL     1     113.037 126.074 137.441  0.00  0.00    +0.000 A 
ATOM      9  C   UNL     1     111.560 125.652 136.695  0.00  0.00    +0.000 A 
ATOM     10  C   UNL     1     112.900 125.261 137.200  0.00  0.00    +0.000 A 
ATOM     11  C   UNL     1     112.157 125.048 136.825  0.00  0.00    +0.000 A 
ENDROOT
BRANCH   4  12
ATOM     12  C   UNL     1     110.698 128.392 136.921  0.00  0.00    +0.000 A 
ATOM     13  C   UNL     1     110.552 128.668 136.156  0.00  0.00    +0.000 A 
ATOM     14  C   UNL     1     110.267 128.693 137.557  0.00  0.00    +0.000 A 
ATOM     15  C   UNL     1     109.975 129.244 136.029  0.00  0.00    +0.000 A 
ATOM     16  C   UNL     1     109.691 129.269 137.429  0.00  0.00    +0.000 A 
ATOM     17  C   UNL     1     109.545 129.545 136.665  0.00  0.00    +0.000 A 
BRANCH  15  18
ATOM     18  O   UNL     1     109.830 129.520 135.265  0.00  0.00    +0.000 OA
ATOM     19  C   UNL     1     110.033 129.056 134.613  0.00  0.00    +0.000 C 
ENDBRANCH  15  18
BRANCH  17  20
ATOM     20  O   UNL     1     108.968 130.121 136.537  0.00  0.00    +0.000 OA
ATOM     21  C   UNL     1     108.720 130.601 137.160  0.00  0.00    +0.000 C 
ENDBRANCH  17  20
ENDBRANCH   4  12
BRANCH   8  22
ATOM     22  O   UNL     1     113.748 126.287 137.802  0.00  0.00    +0.000 OA
ATOM     23  C   UNL     1     113.845 126.182 138.614  0.00  0.00    +0.000 C 
ENDBRANCH   8  22
BRANCH   9  24
ATOM     24  O   UNL     1     110.843 125.458 136.336  0.00  0.00    +0.000 OA
ATOM     25  C   UNL     1     110.811 125.334 135.521  0.00  0.00    +0.000 C 
ENDBRANCH   9  24
BRANCH  10  26
ATOM     26  O   UNL     1     113.479 124.687 137.329  0.00  0.00    +0.000 OA
ATOM     27  C   UNL     1     114.049 124.539 136.752  0.00  0.00    +0.000 C 
ENDBRANCH  10  26
BRANCH  11  28
ATOM     28  O   UNL     1     112.017 124.269 136.591  0.00  0.00    +0.000 OA
ATOM     29  C   UNL     1     111.737 123.719 137.138  0.00  0.00    +0.000 C 
ENDBRANCH  11  28
BRANCH   3  30
ATOM     30  O   UNL     1     112.125 128.800 137.641  0.00  0.00    +0.000 OA
BRANCH  30  39
ATOM     31  O   UNL     1     113.027 129.070 136.566  0.00  0.00    +0.000 OA
ATOM     32  O   UNL     1     114.196 130.742 137.968  0.00  0.00    +0.000 OA
ATOM     33  O   UNL     1     114.708 130.455 136.427  0.00  0.00    +0.000 OA
ATOM     34  O   UNL     1     112.904 129.914 138.575  0.00  0.00    +0.000 OA
ATOM     35  C   UNL     1     113.806 130.185 137.501  0.00  0.00    +0.000 C 
ATOM     36  C   UNL     1     114.062 130.041 136.730  0.00  0.00    +0.000 C 
ATOM     37  C   UNL     1     113.160 129.770 137.805  0.00  0.00    +0.000 C 
ATOM     38  C   UNL     1     113.673 129.484 136.262  0.00  0.00    +0.000 C 
ATOM     39  C   UNL     1     112.770 129.213 137.337  0.00  0.00    +0.000 C 
BRANCH  38  41
ATOM     40  O   UNL     1     113.430 129.501 134.854  0.00  0.00    +0.000 OA
ATOM     41  C   UNL     1     113.929 129.341 135.492  0.00  0.00    +0.000 C 
ENDBRANCH  38  41
ENDBRANCH  30  39
ENDBRANCH   3  30
TORSDOF 10
ENDMDL
MODEL 7
REMARK VINA RESULT:      -7.6      1.563      2.428
REMARK  Name = 14375131
REMARK  10 active torsions:
REMARK  status: ('A' for Active; 'I' for Inactive)
REMARK    1  A    between atoms: O_2  and  C_19
REMARK    2  A    between atoms: O_2  and  C_21
REMARK    3  A    between atoms: O_9  and  C_27
REMARK    4  A    between atoms: O_10  and  C_28
REMARK    5  A    between atoms: O_11  and  C_29
REMARK    6  A    between atoms: O_12  and  C_30
REMARK    7  A    between atoms: O_13  and  C_33
REMARK    8  A    between atoms: O_14  and  C_35
REMARK    9  A    between atoms: C_18  and  C_20
REMARK   10  A    between atoms: C_22  and  C_26
REMARK                            x       y       z     vdW  Elec       q    Type
REMARK                         _______ _______ _______ _____ _____    ______ ____
ROOT
ATOM      1  O   UNL     1     111.620 128.290 138.382  0.00  0.00    +0.000 OA
ATOM      2  O   UNL     1     112.290 127.284 136.221  0.00  0.00    +0.000 OA
ATOM      3  C   UNL     1     112.475 127.424 137.631  0.00  0.00    +0.000 A 
ATOM      4  C   UNL     1     112.251 127.759 138.352  0.00  0.00    +0.000 A 
ATOM      5  C   UNL     1     112.066 127.620 136.942  0.00  0.00    +0.000 A 
ATOM      6  C   UNL     1     111.435 128.150 136.972  0.00  0.00    +0.000 A 
ATOM      7  C   UNL     1     111.213 128.485 137.692  0.00  0.00    +0.000 A 
ATOM      8  C   UNL     1     111.018 128.346 136.247  0.00  0.00    +0.000 A 
ATOM      9  C   UNL     1     110.556 129.039 137.738  0.00  0.00    +0.000 A 
ATOM     10  C   UNL     1     110.360 128.897 136.272  0.00  0.00    +0.000 A 
ATOM     11  C   UNL     1     110.128 129.246 137.022  0.00  0.00    +0.000 A 
ENDROOT
BRANCH   4  12
ATOM     12  C   UNL     1     112.660 127.563 139.042  0.00  0.00    +0.000 A 
ATOM     13  C   UNL     1     112.306 127.075 139.605  0.00  0.00    +0.000 A 
ATOM     14  C   UNL     1     113.421 127.855 139.168  0.00  0.00    +0.000 A 
ATOM     15  C   UNL     1     112.715 126.879 140.295  0.00  0.00    +0.000 A 
ATOM     16  C   UNL     1     113.828 127.659 139.858  0.00  0.00    +0.000 A 
ATOM     17  C   UNL     1     113.476 127.171 140.421  0.00  0.00    +0.000 A 
BRANCH  15  18
ATOM     18  O   UNL     1     112.361 126.390 140.858  0.00  0.00    +0.000 OA
ATOM     19  C   UNL     1     111.551 126.447 141.004  0.00  0.00    +0.000 C 
ENDBRANCH  15  18
BRANCH  17  20
ATOM     20  O   UNL     1     113.883 126.974 141.111  0.00  0.00    +0.000 OA
ATOM     21  C   UNL     1     114.699 127.089 141.155  0.00  0.00    +0.000 C 
ENDBRANCH  17  20
ENDBRANCH   4  12
BRANCH   8  22
ATOM     22  O   UNL     1     111.249 128.006 135.531  0.00  0.00    +0.000 OA
ATOM     23  C   UNL     1     111.746 128.420 135.019  0.00  0.00    +0.000 C 
ENDBRANCH   8  22
BRANCH   9  24
ATOM     24  O   UNL     1     110.340 129.369 138.462  0.00  0.00    +0.000 OA
ATOM     25  C   UNL     1     109.671 129.093 138.857  0.00  0.00    +0.000 C 
ENDBRANCH   9  24
BRANCH  10  26
ATOM     26  O   UNL     1     109.954 129.091 135.581  0.00  0.00    +0.000 OA
ATOM     27  C   UNL     1     109.288 128.659 135.358  0.00  0.00    +0.000 C 
ENDBRANCH  10  26
BRANCH  11  28
ATOM     28  O   UNL     1     109.497 129.777 137.056  0.00  0.00    +0.000 OA
ATOM     29  C   UNL     1     109.633 130.586 136.966  0.00  0.00    +0.000 C 
ENDBRANCH  11  28
BRANCH   3  30
ATOM     30  O   UNL     1     113.106 126.893 137.601  0.00  0.00    +0.000 OA
BRANCH  30  39
ATOM     31  O   UNL     1     112.286 125.731 137.471  0.00  0.00    +0.000 OA
ATOM     32  O   UNL     1     114.048 124.639 136.119  0.00  0.00    +0.000 OA
ATOM     33  O   UNL     1     112.641 123.841 136.439  0.00  0.00    +0.000 OA
ATOM     34  O   UNL     1     114.281 126.166 136.700  0.00  0.00    +0.000 OA
ATOM     35  C   UNL     1     113.461 125.003 136.569  0.00  0.00    +0.000 C 
ATOM     36  C   UNL     1     112.757 124.604 136.730  0.00  0.00    +0.000 C 
ATOM     37  C   UNL     1     113.577 125.767 136.860  0.00  0.00    +0.000 C 
ATOM     38  C   UNL     1     112.169 124.968 137.180  0.00  0.00    +0.000 C 
ATOM     39  C   UNL     1     112.990 126.131 137.311  0.00  0.00    +0.000 C 
BRANCH  38  41
ATOM     40  O   UNL     1     111.277 124.359 138.116  0.00  0.00    +0.000 OA
ATOM     41  C   UNL     1     111.466 124.569 137.340  0.00  0.00    +0.000 C 
ENDBRANCH  38  41
ENDBRANCH  30  39
ENDBRANCH   3  30
TORSDOF 10
ENDMDL
MODEL 8
REMARK VINA RESULT:      -7.6      1.440      3.700
REMARK  Name = 14375131
REMARK  10 active torsions:
REMARK  status: ('A' for Active; 'I' for Inactive)
REMARK    1  A    between atoms: O_2  and  C_19
REMARK    2  A    between atoms: O_2  and  C_21
REMARK    3  A    between atoms: O_9  and  C_27
REMARK    4  A    between atoms: O_10  and  C_28
REMARK    5  A    between atoms: O_11  and  C_29
REMARK    6  A    between atoms: O_12  and  C_30
REMARK    7  A    between atoms: O_13  and  C_33
REMARK    8  A    between atoms: O_14  and  C_35
REMARK    9  A    between atoms: C_18  and  C_20
REMARK   10  A    between atoms: C_22  and  C_26
REMARK                            x       y       z     vdW  Elec       q    Type
REMARK                         _______ _______ _______ _____ _____    ______ ____
ROOT
ATOM      1  O   UNL     1     112.501 126.717 138.978  0.00  0.00    +0.000 OA
ATOM      2  O   UNL     1     111.439 128.598 137.768  0.00  0.00    +0.000 OA
ATOM      3  C   UNL     1     111.887 127.242 137.798  0.00  0.00    +0.000 A 
ATOM      4  C   UNL     1     112.241 126.614 138.202  0.00  0.00    +0.000 A 
ATOM      5  C   UNL     1     111.793 127.971 138.172  0.00  0.00    +0.000 A 
ATOM      6  C   UNL     1     112.053 128.074 138.948  0.00  0.00    +0.000 A 
ATOM      7  C   UNL     1     112.407 127.448 139.351  0.00  0.00    +0.000 A 
ATOM      8  C   UNL     1     111.950 128.839 139.326  0.00  0.00    +0.000 A 
ATOM      9  C   UNL     1     112.683 127.542 140.160  0.00  0.00    +0.000 A 
ATOM     10  C   UNL     1     112.219 128.952 140.134  0.00  0.00    +0.000 A 
ATOM     11  C   UNL     1     112.587 128.300 140.554  0.00  0.00    +0.000 A 
ENDROOT
BRANCH   4  12
ATOM     12  C   UNL     1     112.335 125.885 137.828  0.00  0.00    +0.000 A 
ATOM     13  C   UNL     1     113.080 125.653 137.558  0.00  0.00    +0.000 A 
ATOM     14  C   UNL     1     111.685 125.387 137.725  0.00  0.00    +0.000 A 
ATOM     15  C   UNL     1     113.174 124.924 137.185  0.00  0.00    +0.000 A 
ATOM     16  C   UNL     1     111.780 124.658 137.351  0.00  0.00    +0.000 A 
ATOM     17  C   UNL     1     112.524 124.426 137.081  0.00  0.00    +0.000 A 
BRANCH  15  18
ATOM     18  O   UNL     1     113.918 124.692 136.914  0.00  0.00    +0.000 OA
ATOM     19  C   UNL     1     114.599 124.994 137.270  0.00  0.00    +0.000 C 
ENDBRANCH  15  18
BRANCH  17  20
ATOM     20  O   UNL     1     112.619 123.697 136.707  0.00  0.00    +0.000 OA
ATOM     21  C   UNL     1     111.982 123.175 136.655  0.00  0.00    +0.000 C 
ENDBRANCH  17  20
ENDBRANCH   4  12
BRANCH   8  22
ATOM     22  O   UNL     1     111.594 129.461 138.915  0.00  0.00    +0.000 OA
ATOM     23  C   UNL     1     110.789 129.612 139.013  0.00  0.00    +0.000 C 
ENDBRANCH   8  22
BRANCH   9  24
ATOM     24  O   UNL     1     113.035 126.910 140.555  0.00  0.00    +0.000 OA
ATOM     25  C   UNL     1     113.853 126.895 140.662  0.00  0.00    +0.000 C 
ENDBRANCH   9  24
BRANCH  10  26
ATOM     26  O   UNL     1     112.123 129.683 140.504  0.00  0.00    +0.000 OA
ATOM     27  C   UNL     1     112.729 130.242 140.478  0.00  0.00    +0.000 C 
ENDBRANCH  10  26
BRANCH  11  28
ATOM     28  O   UNL     1     112.848 128.400 141.330  0.00  0.00    +0.000 OA
ATOM     29  C   UNL     1     112.333 128.261 141.959  0.00  0.00    +0.000 C 
ENDBRANCH  11  28
BRANCH   3  30
ATOM     30  O   UNL     1     111.627 127.139 137.022  0.00  0.00    +0.000 OA
BRANCH  30  39
ATOM     31  O   UNL     1     112.689 127.893 136.435  0.00  0.00    +0.000 OA
ATOM     32  O   UNL     1     111.174 128.606 134.612  0.00  0.00    +0.000 OA
ATOM     33  O   UNL     1     112.741 129.122 134.632  0.00  0.00    +0.000 OA
ATOM     34  O   UNL     1     110.617 127.614 135.807  0.00  0.00    +0.000 OA
ATOM     35  C   UNL     1     111.679 128.368 135.220  0.00  0.00    +0.000 C 
ATOM     36  C   UNL     1     112.463 128.626 135.230  0.00  0.00    +0.000 C 
ATOM     37  C   UNL     1     111.401 127.872 135.818  0.00  0.00    +0.000 C 
ATOM     38  C   UNL     1     112.968 128.388 135.838  0.00  0.00    +0.000 C 
ATOM     39  C   UNL     1     111.905 127.634 136.425  0.00  0.00    +0.000 C 
BRANCH  38  41
ATOM     40  O   UNL     1     114.365 128.105 135.745  0.00  0.00    +0.000 OA
ATOM     41  C   UNL     1     113.750 128.646 135.847  0.00  0.00    +0.000 C 
ENDBRANCH  38  41
ENDBRANCH  30  39
ENDBRANCH   3  30
TORSDOF 10
ENDMDL
MODEL 9
REMARK VINA RESULT:      -7.6      1.219      3.561
REMARK  Name = 14375131
REMARK  10 active torsions:
REMARK  status: ('A' for Active; 'I' for Inactive)
REMARK    1  A    between atoms: O_2  and  C_19
REMARK    2  A    between atoms: O_2  and  C_21
REMARK    3  A    between atoms: O_9  and  C_27
REMARK    4  A    between atoms: O_10  and  C_28
REMARK    5  A    between atoms: O_11  and  C_29
REMARK    6  A    between atoms: O_12  and  C_30
REMARK    7  A    between atoms: O_13  and  C_33
REMARK    8  A    between atoms: O_14  and  C_35
REMARK    9  A    between atoms: C_18  and  C_20
REMARK   10  A    between atoms: C_22  and  C_26
REMARK                            x       y       z     vdW  Elec       q    Type
REMARK                         _______ _______ _______ _____ _____    ______ ____
ROOT
ATOM      1  O   UNL     1     112.548 128.842 138.052  0.00  0.00    +0.000 OA
ATOM      2  O   UNL     1     112.347 126.482 138.774  0.00  0.00    +0.000 OA
ATOM      3  C   UNL     1     112.094 127.507 137.811  0.00  0.00    +0.000 A 
ATOM      4  C   UNL     1     112.161 128.294 137.571  0.00  0.00    +0.000 A 
ATOM      5  C   UNL     1     112.414 127.269 138.533  0.00  0.00    +0.000 A 
ATOM      6  C   UNL     1     112.801 127.816 139.015  0.00  0.00    +0.000 A 
ATOM      7  C   UNL     1     112.867 128.602 138.774  0.00  0.00    +0.000 A 
ATOM      8  C   UNL     1     113.129 127.554 139.765  0.00  0.00    +0.000 A 
ATOM      9  C   UNL     1     113.268 129.182 139.267  0.00  0.00    +0.000 A 
ATOM     10  C   UNL     1     113.533 128.120 140.270  0.00  0.00    +0.000 A 
ATOM     11  C   UNL     1     113.603 128.939 140.020  0.00  0.00    +0.000 A 
ENDROOT
BRANCH   4  12
ATOM     12  C   UNL     1     111.841 128.533 136.849  0.00  0.00    +0.000 A 
ATOM     13  C   UNL     1     112.337 128.659 136.200  0.00  0.00    +0.000 A 
ATOM     14  C   UNL     1     111.027 128.645 136.775  0.00  0.00    +0.000 A 
ATOM     15  C   UNL     1     112.017 128.898 135.479  0.00  0.00    +0.000 A 
ATOM     16  C   UNL     1     110.709 128.884 136.052  0.00  0.00    +0.000 A 
ATOM     17  C   UNL     1     111.203 129.010 135.404  0.00  0.00    +0.000 A 
BRANCH  15  18
ATOM     18  O   UNL     1     112.512 129.024 134.830  0.00  0.00    +0.000 OA
ATOM     19  C   UNL     1     113.311 129.193 134.948  0.00  0.00    +0.000 C 
ENDBRANCH  15  18
BRANCH  17  20
ATOM     20  O   UNL     1     110.884 129.249 134.681  0.00  0.00    +0.000 OA
ATOM     21  C   UNL     1     110.073 129.382 134.613  0.00  0.00    +0.000 C 
ENDBRANCH  17  20
ENDBRANCH   4  12
BRANCH   8  22
ATOM     22  O   UNL     1     113.058 126.765 139.997  0.00  0.00    +0.000 OA
ATOM     23  C   UNL     1     112.434 126.535 140.487  0.00  0.00    +0.000 C 
ENDBRANCH   8  22
BRANCH   9  24
ATOM     24  O   UNL     1     113.330 129.966 139.019  0.00  0.00    +0.000 OA
ATOM     25  C   UNL     1     114.049 130.252 138.733  0.00  0.00    +0.000 C 
ENDBRANCH   9  24
BRANCH  10  26
ATOM     26  O   UNL     1     113.852 127.878 140.992  0.00  0.00    +0.000 OA
ATOM     27  C   UNL     1     114.603 127.538 141.018  0.00  0.00    +0.000 C 
ENDBRANCH  10  26
BRANCH  11  28
ATOM     28  O   UNL     1     113.989 129.488 140.499  0.00  0.00    +0.000 OA
ATOM     29  C   UNL     1     113.562 129.917 141.061  0.00  0.00    +0.000 C 
ENDBRANCH  11  28
BRANCH   3  30
ATOM     30  O   UNL     1     111.708 126.960 137.330  0.00  0.00    +0.000 OA
BRANCH  30  39
ATOM     31  O   UNL     1     112.918 126.290 136.972  0.00  0.00    +0.000 OA
ATOM     32  O   UNL     1     111.644 124.207 136.567  0.00  0.00    +0.000 OA
ATOM     33  O   UNL     1     113.278 124.231 136.344  0.00  0.00    +0.000 OA
ATOM     34  O   UNL     1     110.858 125.571 137.060  0.00  0.00    +0.000 OA
ATOM     35  C   UNL     1     112.068 124.901 136.702  0.00  0.00    +0.000 C 
ATOM     36  C   UNL     1     112.886 124.914 136.590  0.00  0.00    +0.000 C 
ATOM     37  C   UNL     1     111.676 125.584 136.949  0.00  0.00    +0.000 C 
ATOM     38  C   UNL     1     113.310 125.608 136.725  0.00  0.00    +0.000 C 
ATOM     39  C   UNL     1     112.100 126.278 137.084  0.00  0.00    +0.000 C 
BRANCH  38  41
ATOM     40  O   UNL     1     114.470 126.193 136.129  0.00  0.00    +0.000 OA
ATOM     41  C   UNL     1     114.127 125.620 136.614  0.00  0.00    +0.000 C 
ENDBRANCH  38  41
ENDBRANCH  30  39
ENDBRANCH   3  30
TORSDOF 10
ENDMDL
MODEL 10
REMARK VINA RESULT:      -7.5      1.204      4.191
REMARK  Name = 14375131
REMARK  10 active torsions:
REMARK  status: ('A' for Active; 'I' for Inactive)
REMARK    1  A    between atoms: O_2  and  C_19
REMARK    2  A    between atoms: O_2  and  C_21
REMARK    3  A    between atoms: O_9  and  C_27
REMARK    4  A    between atoms: O_10  and  C_28
REMARK    5  A    between atoms: O_11  and  C_29
REMARK    6  A    between atoms: O_12  and  C_30
REMARK    7  A    between atoms: O_13  and  C_33
REMARK    8  A    between atoms: O_14  and  C_35
REMARK    9  A    between atoms: C_18  and  C_20
REMARK   10  A    between atoms: C_22  and  C_26
REMARK                            x       y       z     vdW  Elec       q    Type
REMARK                         _______ _______ _______ _____ _____    ______ ____
ROOT
ATOM      1  O   UNL     1     111.741 128.610 137.784  0.00  0.00    +0.000 OA
ATOM      2  O   UNL     1     112.352 126.402 138.722  0.00  0.00    +0.000 OA
ATOM      3  C   UNL     1     112.513 127.408 137.720  0.00  0.00    +0.000 A 
ATOM      4  C   UNL     1     112.309 128.144 137.408  0.00  0.00    +0.000 A 
ATOM      5  C   UNL     1     112.148 127.138 138.409  0.00  0.00    +0.000 A 
ATOM      6  C   UNL     1     111.581 127.604 138.786  0.00  0.00    +0.000 A 
ATOM      7  C   UNL     1     111.377 128.339 138.473  0.00  0.00    +0.000 A 
ATOM      8  C   UNL     1     111.209 127.311 139.503  0.00  0.00    +0.000 A 
ATOM      9  C   UNL     1     110.787 128.834 138.856  0.00  0.00    +0.000 A 
ATOM     10  C   UNL     1     110.617 127.791 139.900  0.00  0.00    +0.000 A 
ATOM     11  C   UNL     1     110.405 128.558 139.574  0.00  0.00    +0.000 A 
ENDROOT
BRANCH   4  12
ATOM     12  C   UNL     1     112.673 128.414 136.718  0.00  0.00    +0.000 A 
ATOM     13  C   UNL     1     112.250 128.436 136.010  0.00  0.00    +0.000 A 
ATOM     14  C   UNL     1     113.460 128.662 136.737  0.00  0.00    +0.000 A 
ATOM     15  C   UNL     1     112.614 128.706 135.321  0.00  0.00    +0.000 A 
ATOM     16  C   UNL     1     113.823 128.931 136.047  0.00  0.00    +0.000 A 
ATOM     17  C   UNL     1     113.401 128.953 135.339  0.00  0.00    +0.000 A 
BRANCH  15  18
ATOM     18  O   UNL     1     112.191 128.728 134.612  0.00  0.00    +0.000 OA
ATOM     19  C   UNL     1     111.366 128.737 134.624  0.00  0.00    +0.000 C 
ENDBRANCH  15  18
BRANCH  17  20
ATOM     20  O   UNL     1     113.764 129.223 134.649  0.00  0.00    +0.000 OA
ATOM     21  C   UNL     1     114.558 129.448 134.662  0.00  0.00    +0.000 C 
ENDBRANCH  17  20
ENDBRANCH   4  12
BRANCH   8  22
ATOM     22  O   UNL     1     111.419 126.573 139.809  0.00  0.00    +0.000 OA
ATOM     23  C   UNL     1     111.984 126.521 140.408  0.00  0.00    +0.000 C 
ENDBRANCH   8  22
BRANCH   9  24
ATOM     24  O   UNL     1     110.590 129.568 138.537  0.00  0.00    +0.000 OA
ATOM     25  C   UNL     1     109.884 129.660 138.119  0.00  0.00    +0.000 C 
ENDBRANCH   9  24
BRANCH  10  26
ATOM     26  O   UNL     1     110.255 127.518 140.589  0.00  0.00    +0.000 OA
ATOM     27  C   UNL     1     109.546 127.098 140.545  0.00  0.00    +0.000 C 
ENDBRANCH  10  26
BRANCH  11  28
ATOM     28  O   UNL     1     109.838 129.025 139.949  0.00  0.00    +0.000 OA
ATOM     29  C   UNL     1     110.069 129.582 140.511  0.00  0.00    +0.000 C 
ENDBRANCH  11  28
BRANCH   3  30
ATOM     30  O   UNL     1     113.080 126.942 137.344  0.00  0.00    +0.000 OA
BRANCH  30  39
ATOM     31  O   UNL     1     112.139 126.014 136.802  0.00  0.00    +0.000 OA
ATOM     32  O   UNL     1     113.825 124.209 136.965  0.00  0.00    +0.000 OA
ATOM     33  O   UNL     1     112.323 123.883 136.369  0.00  0.00    +0.000 OA
ATOM     34  O   UNL     1     114.205 125.740 137.452  0.00  0.00    +0.000 OA
ATOM     35  C   UNL     1     113.263 124.811 136.911  0.00  0.00    +0.000 C 
ATOM     36  C   UNL     1     112.511 124.648 136.613  0.00  0.00    +0.000 C 
ATOM     37  C   UNL     1     113.453 125.577 137.155  0.00  0.00    +0.000 C 
ATOM     38  C   UNL     1     111.949 125.249 136.559  0.00  0.00    +0.000 C 
ATOM     39  C   UNL     1     112.891 126.178 137.100  0.00  0.00    +0.000 C 
BRANCH  38  41
ATOM     40  O   UNL     1     110.949 125.431 135.554  0.00  0.00    +0.000 OA
ATOM     41  C   UNL     1     111.198 125.085 136.261  0.00  0.00    +0.000 C 
ENDBRANCH  38  41
ENDBRANCH  30  39
ENDBRANCH   3  30
TORSDOF 10
ENDMDL
