MODEL 1
REMARK VINA RESULT:     -10.0      0.000      0.000
REMARK  Name = 44257842
REMARK  10 active torsions:
REMARK  status: ('A' for Active; 'I' for Inactive)
REMARK    1  A    between atoms: O_1  and  C_18
REMARK    2  A    between atoms: O_1  and  C_21
REMARK    3  A    between atoms: O_5  and  C_23
REMARK    4  A    between atoms: O_5  and  C_30
REMARK    5  A    between atoms: O_10  and  C_28
REMARK    6  A    between atoms: O_10  and  C_33
REMARK    7  A    between atoms: C_22  and  C_28
REMARK    8  A    between atoms: C_33  and  C_37
REMARK    9  A    between atoms: C_37  and  C_41
REMARK   10  A    between atoms: C_39  and  C_42
REMARK                            x       y       z     vdW  Elec       q    Type
REMARK                         _______ _______ _______ _____ _____    ______ ____
ROOT
ATOM      1  O   UNL     1     105.648 126.965 143.564  0.00  0.00    +0.000 OA
ATOM      2  O   UNL     1     106.423 127.476 145.858  0.00  0.00    +0.000 OA
ATOM      3  O   UNL     1     105.673 128.641 144.962  0.00  0.00    +0.000 OA
ATOM      4  C   UNL     1     106.282 126.552 144.777  0.00  0.00    +0.000 C 
ATOM      5  C   UNL     1     106.165 127.306 145.094  0.00  0.00    +0.000 C 
ATOM      6  C   UNL     1     105.790 127.887 144.645  0.00  0.00    +0.000 C 
ATOM      7  C   UNL     1     105.531 127.717 143.881  0.00  0.00    +0.000 C 
ATOM      8  C   UNL     1     106.023 126.382 144.012  0.00  0.00    +0.000 C 
ENDROOT
BRANCH   4   9
ATOM      9  O   UNL     1     106.657 125.970 145.225  0.00  0.00    +0.000 OA
BRANCH   9  14
ATOM     10  O   UNL     1     105.414 125.513 145.765  0.00  0.00    +0.000 OA
ATOM     11  O   UNL     1     107.462 125.266 146.482  0.00  0.00    +0.000 OA
ATOM     12  O   UNL     1     106.622 124.458 147.650  0.00  0.00    +0.000 OA
ATOM     13  O   UNL     1     104.978 124.353 147.562  0.00  0.00    +0.000 OA
ATOM     14  C   UNL     1     106.236 125.566 145.810  0.00  0.00    +0.000 C 
ATOM     15  C   UNL     1     106.639 125.214 146.438  0.00  0.00    +0.000 C 
ATOM     16  C   UNL     1     106.219 124.810 147.022  0.00  0.00    +0.000 C 
ATOM     17  C   UNL     1     105.397 124.757 146.978  0.00  0.00    +0.000 C 
ATOM     18  C   UNL     1     104.995 125.110 146.349  0.00  0.00    +0.000 C 
ATOM     19  C   UNL     1     104.173 125.057 146.305  0.00  0.00    +0.000 C 
ENDBRANCH   9  14
ENDBRANCH   4   9
BRANCH   8  20
ATOM     20  O   UNL     1     106.140 125.629 143.696  0.00  0.00    +0.000 OA
BRANCH  20  24
ATOM     21  O   UNL     1     105.362 124.846 141.000  0.00  0.00    +0.000 OA
ATOM     22  O   UNL     1     108.022 125.873 141.475  0.00  0.00    +0.000 OA
ATOM     23  O   UNL     1     107.601 125.475 140.153  0.00  0.00    +0.000 OA
ATOM     24  C   UNL     1     106.321 125.542 142.896  0.00  0.00    +0.000 A 
ATOM     25  C   UNL     1     105.733 125.232 142.350  0.00  0.00    +0.000 A 
ATOM     26  C   UNL     1     107.098 125.760 142.601  0.00  0.00    +0.000 A 
ATOM     27  C   UNL     1     105.930 125.144 141.519  0.00  0.00    +0.000 A 
ATOM     28  C   UNL     1     107.277 125.665 141.766  0.00  0.00    +0.000 A 
ATOM     29  C   UNL     1     106.677 125.354 141.237  0.00  0.00    +0.000 A 
ATOM     30  C   UNL     1     106.855 125.265 140.436  0.00  0.00    +0.000 A 
ATOM     31  C   UNL     1     105.540 124.757 140.199  0.00  0.00    +0.000 A 
ATOM     32  C   UNL     1     106.287 124.967 139.917  0.00  0.00    +0.000 A 
BRANCH  31  34
ATOM     33  O   UNL     1     103.268 123.566 138.125  0.00  0.00    +0.000 OA
ATOM     34  C   UNL     1     104.972 124.459 139.681  0.00  0.00    +0.000 A 
ATOM     35  C   UNL     1     104.954 123.653 139.508  0.00  0.00    +0.000 A 
ATOM     36  C   UNL     1     104.422 124.969 139.335  0.00  0.00    +0.000 A 
ATOM     37  C   UNL     1     104.386 123.356 138.990  0.00  0.00    +0.000 A 
ATOM     38  C   UNL     1     103.854 124.670 138.816  0.00  0.00    +0.000 A 
ATOM     39  C   UNL     1     103.836 123.864 138.644  0.00  0.00    +0.000 A 
ENDBRANCH  31  34
ENDBRANCH  20  24
ENDBRANCH   8  20
BRANCH   7  40
ATOM     40  C   UNL     1     105.156 128.300 143.433  0.00  0.00    +0.000 C 
BRANCH  40  41
ATOM     41  O   UNL     1     104.823 128.110 142.703  0.00  0.00    +0.000 OA
BRANCH  41  43
ATOM     42  O   UNL     1     105.115 129.322 142.006  0.00  0.00    +0.000 OA
ATOM     43  C   UNL     1     104.593 128.709 142.185  0.00  0.00    +0.000 C 
BRANCH  43  44
ATOM     44  C   UNL     1     103.841 128.696 141.846  0.00  0.00    +0.000 C 
BRANCH  44  47
ATOM     45  O   UNL     1     103.445 129.355 140.641  0.00  0.00    +0.000 OA
ATOM     46  O   UNL     1     103.991 128.035 140.589  0.00  0.00    +0.000 OA
ATOM     47  C   UNL     1     103.759 128.695 141.026  0.00  0.00    +0.000 C 
ENDBRANCH  44  47
ENDBRANCH  43  44
ENDBRANCH  41  43
ENDBRANCH  40  41
ENDBRANCH   7  40
TORSDOF 10
ENDMDL
MODEL 2
REMARK VINA RESULT:     -10.0      7.834      9.817
REMARK  Name = 44257842
REMARK  10 active torsions:
REMARK  status: ('A' for Active; 'I' for Inactive)
REMARK    1  A    between atoms: O_1  and  C_18
REMARK    2  A    between atoms: O_1  and  C_21
REMARK    3  A    between atoms: O_5  and  C_23
REMARK    4  A    between atoms: O_5  and  C_30
REMARK    5  A    between atoms: O_10  and  C_28
REMARK    6  A    between atoms: O_10  and  C_33
REMARK    7  A    between atoms: C_22  and  C_28
REMARK    8  A    between atoms: C_33  and  C_37
REMARK    9  A    between atoms: C_37  and  C_41
REMARK   10  A    between atoms: C_39  and  C_42
REMARK                            x       y       z     vdW  Elec       q    Type
REMARK                         _______ _______ _______ _____ _____    ______ ____
ROOT
ATOM      1  O   UNL     1     113.333 128.047 139.011  0.00  0.00    +0.000 OA
ATOM      2  O   UNL     1     112.301 125.937 139.791  0.00  0.00    +0.000 OA
ATOM      3  O   UNL     1     113.187 126.857 140.835  0.00  0.00    +0.000 OA
ATOM      4  C   UNL     1     112.546 126.884 138.748  0.00  0.00    +0.000 C 
ATOM      5  C   UNL     1     112.645 126.641 139.531  0.00  0.00    +0.000 C 
ATOM      6  C   UNL     1     113.088 127.101 140.053  0.00  0.00    +0.000 C 
ATOM      7  C   UNL     1     113.432 127.804 139.793  0.00  0.00    +0.000 C 
ATOM      8  C   UNL     1     112.890 127.588 138.488  0.00  0.00    +0.000 C 
ENDROOT
BRANCH   4   9
ATOM      9  O   UNL     1     112.103 126.424 138.227  0.00  0.00    +0.000 OA
BRANCH   9  14
ATOM     10  O   UNL     1     113.275 125.708 137.830  0.00  0.00    +0.000 OA
ATOM     11  O   UNL     1     111.159 125.286 137.493  0.00  0.00    +0.000 OA
ATOM     12  O   UNL     1     111.859 124.001 136.730  0.00  0.00    +0.000 OA
ATOM     13  O   UNL     1     113.503 123.855 136.700  0.00  0.00    +0.000 OA
ATOM     14  C   UNL     1     112.453 125.781 137.845  0.00  0.00    +0.000 C 
ATOM     15  C   UNL     1     111.981 125.212 137.478  0.00  0.00    +0.000 C 
ATOM     16  C   UNL     1     112.331 124.570 137.096  0.00  0.00    +0.000 C 
ATOM     17  C   UNL     1     113.153 124.496 137.081  0.00  0.00    +0.000 C 
ATOM     18  C   UNL     1     113.624 125.066 137.448  0.00  0.00    +0.000 C 
ATOM     19  C   UNL     1     114.446 124.993 137.433  0.00  0.00    +0.000 C 
ENDBRANCH   9  14
ENDBRANCH   4   9
BRANCH   8  20
ATOM     20  O   UNL     1     112.791 127.830 137.707  0.00  0.00    +0.000 OA
BRANCH  20  24
ATOM     21  O   UNL     1     110.994 130.121 137.612  0.00  0.00    +0.000 OA
ATOM     22  O   UNL     1     113.738 130.426 136.758  0.00  0.00    +0.000 OA
ATOM     23  O   UNL     1     112.820 131.538 136.725  0.00  0.00    +0.000 OA
ATOM     24  C   UNL     1     112.654 128.626 137.537  0.00  0.00    +0.000 A 
ATOM     25  C   UNL     1     111.875 128.969 137.666  0.00  0.00    +0.000 A 
ATOM     26  C   UNL     1     113.287 129.118 137.229  0.00  0.00    +0.000 A 
ATOM     27  C   UNL     1     111.742 129.798 137.486  0.00  0.00    +0.000 A 
ATOM     28  C   UNL     1     113.135 129.946 137.054  0.00  0.00    +0.000 A 
ATOM     29  C   UNL     1     112.351 130.270 137.190  0.00  0.00    +0.000 A 
ATOM     30  C   UNL     1     112.211 131.065 137.021  0.00  0.00    +0.000 A 
ATOM     31  C   UNL     1     110.854 130.917 137.442  0.00  0.00    +0.000 A 
ATOM     32  C   UNL     1     111.463 131.388 137.147  0.00  0.00    +0.000 A 
BRANCH  31  34
ATOM     33  O   UNL     1     107.860 132.209 137.946  0.00  0.00    +0.000 OA
ATOM     34  C   UNL     1     110.105 131.240 137.568  0.00  0.00    +0.000 A 
ATOM     35  C   UNL     1     109.906 131.542 138.310  0.00  0.00    +0.000 A 
ATOM     36  C   UNL     1     109.557 131.261 136.952  0.00  0.00    +0.000 A 
ATOM     37  C   UNL     1     109.158 131.864 138.435  0.00  0.00    +0.000 A 
ATOM     38  C   UNL     1     108.808 131.584 137.078  0.00  0.00    +0.000 A 
ATOM     39  C   UNL     1     108.608 131.886 137.820  0.00  0.00    +0.000 A 
ENDBRANCH  31  34
ENDBRANCH  20  24
ENDBRANCH   8  20
BRANCH   7  40
ATOM     40  C   UNL     1     113.875 128.264 140.315  0.00  0.00    +0.000 C 
BRANCH  40  41
ATOM     41  O   UNL     1     113.802 129.085 140.307  0.00  0.00    +0.000 OA
BRANCH  41  43
ATOM     42  O   UNL     1     115.135 129.283 140.780  0.00  0.00    +0.000 OA
ATOM     43  C   UNL     1     114.361 129.554 140.692  0.00  0.00    +0.000 C 
BRANCH  43  44
ATOM     44  C   UNL     1     114.147 130.293 140.989  0.00  0.00    +0.000 C 
BRANCH  44  47
ATOM     45  O   UNL     1     114.603 131.184 139.970  0.00  0.00    +0.000 OA
ATOM     46  O   UNL     1     114.952 131.420 141.335  0.00  0.00    +0.000 OA
ATOM     47  C   UNL     1     114.567 130.965 140.764  0.00  0.00    +0.000 C 
ENDBRANCH  44  47
ENDBRANCH  43  44
ENDBRANCH  41  43
ENDBRANCH  40  41
ENDBRANCH   7  40
TORSDOF 10
ENDMDL
MODEL 3
REMARK VINA RESULT:      -9.8      2.486      4.892
REMARK  Name = 44257842
REMARK  10 active torsions:
REMARK  status: ('A' for Active; 'I' for Inactive)
REMARK    1  A    between atoms: O_1  and  C_18
REMARK    2  A    between atoms: O_1  and  C_21
REMARK    3  A    between atoms: O_5  and  C_23
REMARK    4  A    between atoms: O_5  and  C_30
REMARK    5  A    between atoms: O_10  and  C_28
REMARK    6  A    between atoms: O_10  and  C_33
REMARK    7  A    between atoms: C_22  and  C_28
REMARK    8  A    between atoms: C_33  and  C_37
REMARK    9  A    between atoms: C_37  and  C_41
REMARK   10  A    between atoms: C_39  and  C_42
REMARK                            x       y       z     vdW  Elec       q    Type
REMARK                         _______ _______ _______ _____ _____    ______ ____
ROOT
ATOM      1  O   UNL     1     106.046 128.953 142.956  0.00  0.00    +0.000 OA
ATOM      2  O   UNL     1     107.677 127.127 143.318  0.00  0.00    +0.000 OA
ATOM      3  O   UNL     1     108.205 128.679 143.133  0.00  0.00    +0.000 OA
ATOM      4  C   UNL     1     106.325 127.568 143.169  0.00  0.00    +0.000 C 
ATOM      5  C   UNL     1     107.133 127.736 143.197  0.00  0.00    +0.000 C 
ATOM      6  C   UNL     1     107.396 128.512 143.105  0.00  0.00    +0.000 C 
ATOM      7  C   UNL     1     106.853 129.121 142.984  0.00  0.00    +0.000 C 
ATOM      8  C   UNL     1     105.782 128.177 143.048  0.00  0.00    +0.000 C 
ENDROOT
BRANCH   4   9
ATOM      9  O   UNL     1     106.062 126.792 143.261  0.00  0.00    +0.000 OA
BRANCH   9  14
ATOM     10  O   UNL     1     105.897 126.949 144.673  0.00  0.00    +0.000 OA
ATOM     11  O   UNL     1     106.181 125.158 143.457  0.00  0.00    +0.000 OA
ATOM     12  O   UNL     1     106.077 124.498 144.965  0.00  0.00    +0.000 OA
ATOM     13  O   UNL     1     105.852 125.471 146.278  0.00  0.00    +0.000 OA
ATOM     14  C   UNL     1     106.009 126.462 144.016  0.00  0.00    +0.000 C 
ATOM     15  C   UNL     1     106.069 125.645 144.113  0.00  0.00    +0.000 C 
ATOM     16  C   UNL     1     106.017 125.315 144.868  0.00  0.00    +0.000 C 
ATOM     17  C   UNL     1     105.905 125.801 145.525  0.00  0.00    +0.000 C 
ATOM     18  C   UNL     1     105.845 126.619 145.426  0.00  0.00    +0.000 C 
ATOM     19  C   UNL     1     105.733 127.106 146.083  0.00  0.00    +0.000 C 
ENDBRANCH   9  14
ENDBRANCH   4   9
BRANCH   8  20
ATOM     20  O   UNL     1     104.975 128.010 143.020  0.00  0.00    +0.000 OA
BRANCH  20  24
ATOM     21  O   UNL     1     103.168 130.109 142.119  0.00  0.00    +0.000 OA
ATOM     22  O   UNL     1     103.891 127.976 140.308  0.00  0.00    +0.000 OA
ATOM     23  O   UNL     1     102.998 129.032 139.896  0.00  0.00    +0.000 OA
ATOM     24  C   UNL     1     104.505 128.345 142.431  0.00  0.00    +0.000 A 
ATOM     25  C   UNL     1     104.070 129.071 142.585  0.00  0.00    +0.000 A 
ATOM     26  C   UNL     1     104.445 127.972 141.659  0.00  0.00    +0.000 A 
ATOM     27  C   UNL     1     103.583 129.412 141.965  0.00  0.00    +0.000 A 
ATOM     28  C   UNL     1     103.953 128.328 141.052  0.00  0.00    +0.000 A 
ATOM     29  C   UNL     1     103.526 129.053 141.225  0.00  0.00    +0.000 A 
ATOM     30  C   UNL     1     103.055 129.391 140.637  0.00  0.00    +0.000 A 
ATOM     31  C   UNL     1     102.697 130.446 141.531  0.00  0.00    +0.000 A 
ATOM     32  C   UNL     1     102.640 130.087 140.791  0.00  0.00    +0.000 A 
BRANCH  31  34
ATOM     33  O   UNL     1     101.038 133.233 142.145  0.00  0.00    +0.000 OA
ATOM     34  C   UNL     1     102.282 131.143 141.685  0.00  0.00    +0.000 A 
ATOM     35  C   UNL     1     101.487 131.110 141.903  0.00  0.00    +0.000 A 
ATOM     36  C   UNL     1     102.663 131.872 141.620  0.00  0.00    +0.000 A 
ATOM     37  C   UNL     1     101.073 131.807 142.056  0.00  0.00    +0.000 A 
ATOM     38  C   UNL     1     102.248 132.569 141.774  0.00  0.00    +0.000 A 
ATOM     39  C   UNL     1     101.453 132.536 141.991  0.00  0.00    +0.000 A 
ENDBRANCH  31  34
ENDBRANCH  20  24
ENDBRANCH   8  20
BRANCH   7  40
ATOM     40  C   UNL     1     107.118 129.897 142.892  0.00  0.00    +0.000 C 
BRANCH  40  41
ATOM     41  O   UNL     1     106.696 130.520 143.229  0.00  0.00    +0.000 OA
BRANCH  41  43
ATOM     42  O   UNL     1     107.657 131.571 143.116  0.00  0.00    +0.000 OA
ATOM     43  C   UNL     1     106.882 131.299 143.033  0.00  0.00    +0.000 C 
BRANCH  43  44
ATOM     44  C   UNL     1     106.295 131.806 142.754  0.00  0.00    +0.000 C 
BRANCH  44  47
ATOM     45  O   UNL     1     105.417 132.311 143.762  0.00  0.00    +0.000 OA
ATOM     46  O   UNL     1     106.381 133.174 143.156  0.00  0.00    +0.000 OA
ATOM     47  C   UNL     1     106.031 132.430 143.224  0.00  0.00    +0.000 C 
ENDBRANCH  44  47
ENDBRANCH  43  44
ENDBRANCH  41  43
ENDBRANCH  40  41
ENDBRANCH   7  40
TORSDOF 10
ENDMDL
MODEL 4
REMARK VINA RESULT:      -9.8      7.565      9.594
REMARK  Name = 44257842
REMARK  10 active torsions:
REMARK  status: ('A' for Active; 'I' for Inactive)
REMARK    1  A    between atoms: O_1  and  C_18
REMARK    2  A    between atoms: O_1  and  C_21
REMARK    3  A    between atoms: O_5  and  C_23
REMARK    4  A    between atoms: O_5  and  C_30
REMARK    5  A    between atoms: O_10  and  C_28
REMARK    6  A    between atoms: O_10  and  C_33
REMARK    7  A    between atoms: C_22  and  C_28
REMARK    8  A    between atoms: C_33  and  C_37
REMARK    9  A    between atoms: C_37  and  C_41
REMARK   10  A    between atoms: C_39  and  C_42
REMARK                            x       y       z     vdW  Elec       q    Type
REMARK                         _______ _______ _______ _____ _____    ______ ____
ROOT
ATOM      1  O   UNL     1     111.182 129.721 138.138  0.00  0.00    +0.000 OA
ATOM      2  O   UNL     1     108.767 130.053 138.568  0.00  0.00    +0.000 OA
ATOM      3  O   UNL     1     109.849 130.168 139.808  0.00  0.00    +0.000 OA
ATOM      4  C   UNL     1     109.837 129.775 137.660  0.00  0.00    +0.000 C 
ATOM      5  C   UNL     1     109.572 129.943 138.424  0.00  0.00    +0.000 C 
ATOM      6  C   UNL     1     110.114 130.000 139.044  0.00  0.00    +0.000 C 
ATOM      7  C   UNL     1     110.919 129.889 138.901  0.00  0.00    +0.000 C 
ATOM      8  C   UNL     1     110.642 129.664 137.517  0.00  0.00    +0.000 C 
ENDROOT
BRANCH   4   9
ATOM      9  O   UNL     1     109.295 129.718 137.041  0.00  0.00    +0.000 OA
BRANCH   9  14
ATOM     10  O   UNL     1     109.451 131.108 136.744  0.00  0.00    +0.000 OA
ATOM     11  O   UNL     1     107.937 129.670 136.105  0.00  0.00    +0.000 OA
ATOM     12  O   UNL     1     107.413 131.035 135.341  0.00  0.00    +0.000 OA
ATOM     13  O   UNL     1     108.248 132.448 135.512  0.00  0.00    +0.000 OA
ATOM     14  C   UNL     1     109.033 130.401 136.658  0.00  0.00    +0.000 C 
ATOM     15  C   UNL     1     108.354 130.377 136.191  0.00  0.00    +0.000 C 
ATOM     16  C   UNL     1     108.092 131.060 135.808  0.00  0.00    +0.000 C 
ATOM     17  C   UNL     1     108.510 131.766 135.894  0.00  0.00    +0.000 C 
ATOM     18  C   UNL     1     109.189 131.790 136.362  0.00  0.00    +0.000 C 
ATOM     19  C   UNL     1     109.606 132.496 136.447  0.00  0.00    +0.000 C 
ENDBRANCH   9  14
ENDBRANCH   4   9
BRANCH   8  20
ATOM     20  O   UNL     1     110.905 129.496 136.754  0.00  0.00    +0.000 OA
BRANCH  20  24
ATOM     21  O   UNL     1     111.915 126.764 136.712  0.00  0.00    +0.000 OA
ATOM     22  O   UNL     1     113.699 128.953 136.095  0.00  0.00    +0.000 OA
ATOM     23  O   UNL     1     114.163 127.587 136.084  0.00  0.00    +0.000 OA
ATOM     24  C   UNL     1     111.525 128.964 136.640  0.00  0.00    +0.000 A 
ATOM     25  C   UNL     1     111.394 128.120 136.738  0.00  0.00    +0.000 A 
ATOM     26  C   UNL     1     112.306 129.249 136.422  0.00  0.00    +0.000 A 
ATOM     27  C   UNL     1     112.046 127.573 136.617  0.00  0.00    +0.000 A 
ATOM     28  C   UNL     1     112.945 128.687 136.305  0.00  0.00    +0.000 A 
ATOM     29  C   UNL     1     112.795 127.848 136.407  0.00  0.00    +0.000 A 
ATOM     30  C   UNL     1     113.413 127.313 136.294  0.00  0.00    +0.000 A 
ATOM     31  C   UNL     1     112.533 126.230 136.598  0.00  0.00    +0.000 A 
ATOM     32  C   UNL     1     113.282 126.504 136.389  0.00  0.00    +0.000 A 
BRANCH  31  34
ATOM     33  O   UNL     1     112.008 122.994 136.980  0.00  0.00    +0.000 OA
ATOM     34  C   UNL     1     112.401 125.421 136.693  0.00  0.00    +0.000 A 
ATOM     35  C   UNL     1     111.828 125.040 136.239  0.00  0.00    +0.000 A 
ATOM     36  C   UNL     1     112.845 124.994 137.243  0.00  0.00    +0.000 A 
ATOM     37  C   UNL     1     111.697 124.231 136.335  0.00  0.00    +0.000 A 
ATOM     38  C   UNL     1     112.713 124.185 137.339  0.00  0.00    +0.000 A 
ATOM     39  C   UNL     1     112.140 123.803 136.885  0.00  0.00    +0.000 A 
ENDBRANCH  31  34
ENDBRANCH  20  24
ENDBRANCH   8  20
BRANCH   7  40
ATOM     40  C   UNL     1     111.459 129.946 139.522  0.00  0.00    +0.000 C 
BRANCH  40  41
ATOM     41  O   UNL     1     112.195 130.296 139.398  0.00  0.00    +0.000 OA
BRANCH  41  43
ATOM     42  O   UNL     1     112.608 130.614 140.728  0.00  0.00    +0.000 OA
ATOM     43  C   UNL     1     112.767 130.278 139.992  0.00  0.00    +0.000 C 
BRANCH  43  44
ATOM     44  C   UNL     1     113.498 129.924 139.850  0.00  0.00    +0.000 C 
BRANCH  44  47
ATOM     45  O   UNL     1     114.451 130.946 139.553  0.00  0.00    +0.000 OA
ATOM     46  O   UNL     1     114.634 130.110 140.696  0.00  0.00    +0.000 OA
ATOM     47  C   UNL     1     114.194 130.326 140.033  0.00  0.00    +0.000 C 
ENDBRANCH  44  47
ENDBRANCH  43  44
ENDBRANCH  41  43
ENDBRANCH  40  41
ENDBRANCH   7  40
TORSDOF 10
ENDMDL
MODEL 5
REMARK VINA RESULT:      -9.8      6.630     10.130
REMARK  Name = 44257842
REMARK  10 active torsions:
REMARK  status: ('A' for Active; 'I' for Inactive)
REMARK    1  A    between atoms: O_1  and  C_18
REMARK    2  A    between atoms: O_1  and  C_21
REMARK    3  A    between atoms: O_5  and  C_23
REMARK    4  A    between atoms: O_5  and  C_30
REMARK    5  A    between atoms: O_10  and  C_28
REMARK    6  A    between atoms: O_10  and  C_33
REMARK    7  A    between atoms: C_22  and  C_28
REMARK    8  A    between atoms: C_33  and  C_37
REMARK    9  A    between atoms: C_37  and  C_41
REMARK   10  A    between atoms: C_39  and  C_42
REMARK                            x       y       z     vdW  Elec       q    Type
REMARK                         _______ _______ _______ _____ _____    ______ ____
ROOT
ATOM      1  O   UNL     1     110.995 125.889 136.927  0.00  0.00    +0.000 OA
ATOM      2  O   UNL     1     109.635 125.865 134.860  0.00  0.00    +0.000 OA
ATOM      3  O   UNL     1     110.929 124.852 135.007  0.00  0.00    +0.000 OA
ATOM      4  C   UNL     1     109.895 126.388 136.165  0.00  0.00    +0.000 C 
ATOM      5  C   UNL     1     110.088 125.873 135.549  0.00  0.00    +0.000 C 
ATOM      6  C   UNL     1     110.736 125.367 135.623  0.00  0.00    +0.000 C 
ATOM      7  C   UNL     1     111.189 125.375 136.312  0.00  0.00    +0.000 C 
ATOM      8  C   UNL     1     110.348 126.396 136.854  0.00  0.00    +0.000 C 
ENDROOT
BRANCH   4   9
ATOM      9  O   UNL     1     109.248 126.894 136.090  0.00  0.00    +0.000 OA
BRANCH   9  14
ATOM     10  O   UNL     1     110.054 127.839 135.383  0.00  0.00    +0.000 OA
ATOM     11  O   UNL     1     108.035 128.007 136.197  0.00  0.00    +0.000 OA
ATOM     12  O   UNL     1     108.234 129.509 135.543  0.00  0.00    +0.000 OA
ATOM     13  O   UNL     1     109.646 129.897 134.783  0.00  0.00    +0.000 OA
ATOM     14  C   UNL     1     109.348 127.645 135.763  0.00  0.00    +0.000 C 
ATOM     15  C   UNL     1     108.741 128.201 135.817  0.00  0.00    +0.000 C 
ATOM     16  C   UNL     1     108.841 128.953 135.490  0.00  0.00    +0.000 C 
ATOM     17  C   UNL     1     109.547 129.147 135.110  0.00  0.00    +0.000 C 
ATOM     18  C   UNL     1     110.153 128.590 135.057  0.00  0.00    +0.000 C 
ATOM     19  C   UNL     1     110.859 128.784 134.677  0.00  0.00    +0.000 C 
ENDBRANCH   9  14
ENDBRANCH   4   9
BRANCH   8  20
ATOM     20  O   UNL     1     110.155 126.910 137.469  0.00  0.00    +0.000 OA
BRANCH  20  24
ATOM     21  O   UNL     1     112.189 127.723 139.388  0.00  0.00    +0.000 OA
ATOM     22  O   UNL     1     110.356 125.595 140.069  0.00  0.00    +0.000 OA
ATOM     23  O   UNL     1     111.376 126.025 140.995  0.00  0.00    +0.000 OA
ATOM     24  C   UNL     1     110.518 126.827 138.205  0.00  0.00    +0.000 A 
ATOM     25  C   UNL     1     111.181 127.331 138.419  0.00  0.00    +0.000 A 
ATOM     26  C   UNL     1     110.236 126.238 138.763  0.00  0.00    +0.000 A 
ATOM     27  C   UNL     1     111.553 127.237 139.188  0.00  0.00    +0.000 A 
ATOM     28  C   UNL     1     110.620 126.159 139.527  0.00  0.00    +0.000 A 
ATOM     29  C   UNL     1     111.282 126.671 139.723  0.00  0.00    +0.000 A 
ATOM     30  C   UNL     1     111.646 126.591 140.459  0.00  0.00    +0.000 A 
ATOM     31  C   UNL     1     112.553 127.643 140.124  0.00  0.00    +0.000 A 
ATOM     32  C   UNL     1     112.282 127.077 140.659  0.00  0.00    +0.000 A 
BRANCH  31  34
ATOM     33  O   UNL     1     115.096 129.587 140.925  0.00  0.00    +0.000 OA
ATOM     34  C   UNL     1     113.189 128.129 140.324  0.00  0.00    +0.000 A 
ATOM     35  C   UNL     1     113.941 127.804 140.427  0.00  0.00    +0.000 A 
ATOM     36  C   UNL     1     113.073 128.940 140.422  0.00  0.00    +0.000 A 
ATOM     37  C   UNL     1     114.576 128.290 140.627  0.00  0.00    +0.000 A 
ATOM     38  C   UNL     1     113.709 129.426 140.622  0.00  0.00    +0.000 A 
ATOM     39  C   UNL     1     114.461 129.101 140.725  0.00  0.00    +0.000 A 
ENDBRANCH  31  34
ENDBRANCH  20  24
ENDBRANCH   8  20
BRANCH   7  40
ATOM     40  C   UNL     1     111.836 124.868 136.385  0.00  0.00    +0.000 C 
BRANCH  40  41
ATOM     41  O   UNL     1     112.575 125.169 136.592  0.00  0.00    +0.000 OA
BRANCH  41  43
ATOM     42  O   UNL     1     113.023 123.882 137.021  0.00  0.00    +0.000 OA
ATOM     43  C   UNL     1     113.190 124.656 136.790  0.00  0.00    +0.000 C 
BRANCH  43  44
ATOM     44  C   UNL     1     113.972 124.916 136.757  0.00  0.00    +0.000 C 
BRANCH  44  47
ATOM     45  O   UNL     1     114.973 124.264 137.541  0.00  0.00    +0.000 OA
ATOM     46  O   UNL     1     114.390 125.486 137.998  0.00  0.00    +0.000 OA
ATOM     47  C   UNL     1     114.445 124.889 137.431  0.00  0.00    +0.000 C 
ENDBRANCH  44  47
ENDBRANCH  43  44
ENDBRANCH  41  43
ENDBRANCH  40  41
ENDBRANCH   7  40
TORSDOF 10
ENDMDL
MODEL 6
REMARK VINA RESULT:      -9.7      2.741      4.260
REMARK  Name = 44257842
REMARK  10 active torsions:
REMARK  status: ('A' for Active; 'I' for Inactive)
REMARK    1  A    between atoms: O_1  and  C_18
REMARK    2  A    between atoms: O_1  and  C_21
REMARK    3  A    between atoms: O_5  and  C_23
REMARK    4  A    between atoms: O_5  and  C_30
REMARK    5  A    between atoms: O_10  and  C_28
REMARK    6  A    between atoms: O_10  and  C_33
REMARK    7  A    between atoms: C_22  and  C_28
REMARK    8  A    between atoms: C_33  and  C_37
REMARK    9  A    between atoms: C_37  and  C_41
REMARK   10  A    between atoms: C_39  and  C_42
REMARK                            x       y       z     vdW  Elec       q    Type
REMARK                         _______ _______ _______ _____ _____    ______ ____
ROOT
ATOM      1  O   UNL     1     106.751 126.844 141.446  0.00  0.00    +0.000 OA
ATOM      2  O   UNL     1     108.881 127.438 142.558  0.00  0.00    +0.000 OA
ATOM      3  O   UNL     1     107.506 128.282 142.904  0.00  0.00    +0.000 OA
ATOM      4  C   UNL     1     108.149 126.620 141.643  0.00  0.00    +0.000 C 
ATOM      5  C   UNL     1     108.171 127.240 142.187  0.00  0.00    +0.000 C 
ATOM      6  C   UNL     1     107.483 127.662 142.360  0.00  0.00    +0.000 C 
ATOM      7  C   UNL     1     106.774 127.464 141.989  0.00  0.00    +0.000 C 
ATOM      8  C   UNL     1     107.439 126.422 141.273  0.00  0.00    +0.000 C 
ENDROOT
BRANCH   4   9
ATOM      9  O   UNL     1     108.836 126.198 141.471  0.00  0.00    +0.000 OA
BRANCH   9  14
ATOM     10  O   UNL     1     109.179 127.144 140.456  0.00  0.00    +0.000 OA
ATOM     11  O   UNL     1     110.342 125.533 141.359  0.00  0.00    +0.000 OA
ATOM     12  O   UNL     1     111.438 126.146 140.288  0.00  0.00    +0.000 OA
ATOM     13  O   UNL     1     111.027 127.425 139.330  0.00  0.00    +0.000 OA
ATOM     14  C   UNL     1     109.384 126.505 140.935  0.00  0.00    +0.000 C 
ATOM     15  C   UNL     1     110.137 126.172 140.880  0.00  0.00    +0.000 C 
ATOM     16  C   UNL     1     110.685 126.479 140.344  0.00  0.00    +0.000 C 
ATOM     17  C   UNL     1     110.480 127.118 139.864  0.00  0.00    +0.000 C 
ATOM     18  C   UNL     1     109.727 127.451 139.921  0.00  0.00    +0.000 C 
ATOM     19  C   UNL     1     109.522 128.090 139.441  0.00  0.00    +0.000 C 
ENDBRANCH   9  14
ENDBRANCH   4   9
BRANCH   8  20
ATOM     20  O   UNL     1     107.416 125.802 140.729  0.00  0.00    +0.000 OA
BRANCH  20  24
ATOM     21  O   UNL     1     105.157 124.447 139.487  0.00  0.00    +0.000 OA
ATOM     22  O   UNL     1     105.942 123.737 142.177  0.00  0.00    +0.000 OA
ATOM     23  O   UNL     1     104.828 123.087 141.529  0.00  0.00    +0.000 OA
ATOM     24  C   UNL     1     106.809 125.245 140.764  0.00  0.00    +0.000 A 
ATOM     25  C   UNL     1     106.286 125.132 140.091  0.00  0.00    +0.000 A 
ATOM     26  C   UNL     1     106.694 124.773 141.472  0.00  0.00    +0.000 A 
ATOM     27  C   UNL     1     105.656 124.550 140.136  0.00  0.00    +0.000 A 
ATOM     28  C   UNL     1     106.059 124.195 141.499  0.00  0.00    +0.000 A 
ATOM     29  C   UNL     1     105.546 124.097 140.817  0.00  0.00    +0.000 A 
ATOM     30  C   UNL     1     104.938 123.541 140.849  0.00  0.00    +0.000 A 
ATOM     31  C   UNL     1     104.549 123.890 139.519  0.00  0.00    +0.000 A 
ATOM     32  C   UNL     1     104.439 123.437 140.200  0.00  0.00    +0.000 A 
BRANCH  31  34
ATOM     33  O   UNL     1     102.553 123.477 136.924  0.00  0.00    +0.000 OA
ATOM     34  C   UNL     1     104.050 123.787 138.870  0.00  0.00    +0.000 A 
ATOM     35  C   UNL     1     104.346 123.472 138.168  0.00  0.00    +0.000 A 
ATOM     36  C   UNL     1     103.254 123.999 138.924  0.00  0.00    +0.000 A 
ATOM     37  C   UNL     1     103.847 123.369 137.519  0.00  0.00    +0.000 A 
ATOM     38  C   UNL     1     102.755 123.896 138.275  0.00  0.00    +0.000 A 
ATOM     39  C   UNL     1     103.051 123.581 137.573  0.00  0.00    +0.000 A 
ENDBRANCH  31  34
ENDBRANCH  20  24
ENDBRANCH   8  20
BRANCH   7  40
ATOM     40  C   UNL     1     106.086 127.886 142.163  0.00  0.00    +0.000 C 
BRANCH  40  41
ATOM     41  O   UNL     1     105.505 127.984 141.586  0.00  0.00    +0.000 OA
BRANCH  41  43
ATOM     42  O   UNL     1     104.309 127.895 142.363  0.00  0.00    +0.000 OA
ATOM     43  C   UNL     1     104.764 128.281 141.793  0.00  0.00    +0.000 C 
BRANCH  43  44
ATOM     44  C   UNL     1     104.477 128.964 141.431  0.00  0.00    +0.000 C 
BRANCH  44  47
ATOM     45  O   UNL     1     103.150 129.452 141.640  0.00  0.00    +0.000 OA
ATOM     46  O   UNL     1     103.434 128.607 140.524  0.00  0.00    +0.000 OA
ATOM     47  C   UNL     1     103.688 129.008 141.199  0.00  0.00    +0.000 C 
ENDBRANCH  44  47
ENDBRANCH  43  44
ENDBRANCH  41  43
ENDBRANCH  40  41
ENDBRANCH   7  40
TORSDOF 10
ENDMDL
MODEL 7
REMARK VINA RESULT:      -9.7      7.606      9.285
REMARK  Name = 44257842
REMARK  10 active torsions:
REMARK  status: ('A' for Active; 'I' for Inactive)
REMARK    1  A    between atoms: O_1  and  C_18
REMARK    2  A    between atoms: O_1  and  C_21
REMARK    3  A    between atoms: O_5  and  C_23
REMARK    4  A    between atoms: O_5  and  C_30
REMARK    5  A    between atoms: O_10  and  C_28
REMARK    6  A    between atoms: O_10  and  C_33
REMARK    7  A    between atoms: C_22  and  C_28
REMARK    8  A    between atoms: C_33  and  C_37
REMARK    9  A    between atoms: C_37  and  C_41
REMARK   10  A    between atoms: C_39  and  C_42
REMARK                            x       y       z     vdW  Elec       q    Type
REMARK                         _______ _______ _______ _____ _____    ______ ____
ROOT
ATOM      1  O   UNL     1     112.658 127.984 139.100  0.00  0.00    +0.000 OA
ATOM      2  O   UNL     1     114.236 127.762 140.993  0.00  0.00    +0.000 OA
ATOM      3  O   UNL     1     113.150 126.561 140.680  0.00  0.00    +0.000 OA
ATOM      4  C   UNL     1     113.727 128.511 139.887  0.00  0.00    +0.000 C 
ATOM      5  C   UNL     1     113.710 127.836 140.362  0.00  0.00    +0.000 C 
ATOM      6  C   UNL     1     113.167 127.236 140.205  0.00  0.00    +0.000 C 
ATOM      7  C   UNL     1     112.641 127.310 139.574  0.00  0.00    +0.000 C 
ATOM      8  C   UNL     1     113.201 128.585 139.256  0.00  0.00    +0.000 C 
ENDROOT
BRANCH   4   9
ATOM      9  O   UNL     1     114.271 129.112 140.044  0.00  0.00    +0.000 OA
BRANCH   9  14
ATOM     10  O   UNL     1     113.357 129.695 140.977  0.00  0.00    +0.000 OA
ATOM     11  O   UNL     1     115.324 130.356 140.298  0.00  0.00    +0.000 OA
ATOM     12  O   UNL     1     114.938 131.561 141.357  0.00  0.00    +0.000 OA
ATOM     13  O   UNL     1     113.498 131.521 142.163  0.00  0.00    +0.000 OA
ATOM     14  C   UNL     1     114.077 129.715 140.574  0.00  0.00    +0.000 C 
ATOM     15  C   UNL     1     114.604 130.336 140.701  0.00  0.00    +0.000 C 
ATOM     16  C   UNL     1     114.411 130.939 141.231  0.00  0.00    +0.000 C 
ATOM     17  C   UNL     1     113.691 130.919 141.634  0.00  0.00    +0.000 C 
ATOM     18  C   UNL     1     113.165 130.297 141.506  0.00  0.00    +0.000 C 
ATOM     19  C   UNL     1     112.445 130.277 141.909  0.00  0.00    +0.000 C 
ENDBRANCH   9  14
ENDBRANCH   4   9
BRANCH   8  20
ATOM     20  O   UNL     1     113.218 129.260 138.782  0.00  0.00    +0.000 OA
BRANCH  20  24
ATOM     21  O   UNL     1     111.066 129.722 136.874  0.00  0.00    +0.000 OA
ATOM     22  O   UNL     1     113.572 128.612 135.956  0.00  0.00    +0.000 OA
ATOM     23  O   UNL     1     112.484 128.855 135.039  0.00  0.00    +0.000 OA
ATOM     24  C   UNL     1     112.927 129.229 138.011  0.00  0.00    +0.000 A 
ATOM     25  C   UNL     1     112.128 129.498 137.839  0.00  0.00    +0.000 A 
ATOM     26  C   UNL     1     113.418 128.928 137.374  0.00  0.00    +0.000 A 
ATOM     27  C   UNL     1     111.833 129.462 137.033  0.00  0.00    +0.000 A 
ATOM     28  C   UNL     1     113.106 128.900 136.574  0.00  0.00    +0.000 A 
ATOM     29  C   UNL     1     112.306 129.173 136.422  0.00  0.00    +0.000 A 
ATOM     30  C   UNL     1     112.011 129.144 135.652  0.00  0.00    +0.000 A 
ATOM     31  C   UNL     1     110.772 129.693 136.104  0.00  0.00    +0.000 A 
ATOM     32  C   UNL     1     111.245 129.404 135.493  0.00  0.00    +0.000 A 
BRANCH  31  34
ATOM     33  O   UNL     1     107.705 130.730 135.469  0.00  0.00    +0.000 OA
ATOM     34  C   UNL     1     110.005 129.952 135.945  0.00  0.00    +0.000 A 
ATOM     35  C   UNL     1     109.880 130.710 135.643  0.00  0.00    +0.000 A 
ATOM     36  C   UNL     1     109.363 129.453 136.088  0.00  0.00    +0.000 A 
ATOM     37  C   UNL     1     109.114 130.969 135.485  0.00  0.00    +0.000 A 
ATOM     38  C   UNL     1     108.596 129.713 135.929  0.00  0.00    +0.000 A 
ATOM     39  C   UNL     1     108.471 130.471 135.628  0.00  0.00    +0.000 A 
ENDBRANCH  31  34
ENDBRANCH  20  24
ENDBRANCH   8  20
BRANCH   7  40
ATOM     40  C   UNL     1     112.097 126.709 139.418  0.00  0.00    +0.000 C 
BRANCH  40  41
ATOM     41  O   UNL     1     112.084 126.346 138.678  0.00  0.00    +0.000 OA
BRANCH  41  43
ATOM     42  O   UNL     1     111.161 125.309 139.016  0.00  0.00    +0.000 OA
ATOM     43  C   UNL     1     111.455 125.854 138.470  0.00  0.00    +0.000 C 
BRANCH  43  44
ATOM     44  C   UNL     1     111.121 125.905 137.718  0.00  0.00    +0.000 C 
BRANCH  44  47
ATOM     45  O   UNL     1     111.788 125.680 136.475  0.00  0.00    +0.000 OA
ATOM     46  O   UNL     1     111.190 124.587 137.173  0.00  0.00    +0.000 OA
ATOM     47  C   UNL     1     111.366 125.391 137.122  0.00  0.00    +0.000 C 
ENDBRANCH  44  47
ENDBRANCH  43  44
ENDBRANCH  41  43
ENDBRANCH  40  41
ENDBRANCH   7  40
TORSDOF 10
ENDMDL
MODEL 8
REMARK VINA RESULT:      -9.5      6.986      9.580
REMARK  Name = 44257842
REMARK  10 active torsions:
REMARK  status: ('A' for Active; 'I' for Inactive)
REMARK    1  A    between atoms: O_1  and  C_18
REMARK    2  A    between atoms: O_1  and  C_21
REMARK    3  A    between atoms: O_5  and  C_23
REMARK    4  A    between atoms: O_5  and  C_30
REMARK    5  A    between atoms: O_10  and  C_28
REMARK    6  A    between atoms: O_10  and  C_33
REMARK    7  A    between atoms: C_22  and  C_28
REMARK    8  A    between atoms: C_33  and  C_37
REMARK    9  A    between atoms: C_37  and  C_41
REMARK   10  A    between atoms: C_39  and  C_42
REMARK                            x       y       z     vdW  Elec       q    Type
REMARK                         _______ _______ _______ _____ _____    ______ ____
ROOT
ATOM      1  O   UNL     1     110.180 128.945 136.507  0.00  0.00    +0.000 OA
ATOM      2  O   UNL     1     108.605 130.847 136.673  0.00  0.00    +0.000 OA
ATOM      3  O   UNL     1     108.161 129.476 135.868  0.00  0.00    +0.000 OA
ATOM      4  C   UNL     1     109.877 130.264 136.965  0.00  0.00    +0.000 C 
ATOM      5  C   UNL     1     109.130 130.213 136.618  0.00  0.00    +0.000 C 
ATOM      6  C   UNL     1     108.909 129.527 136.215  0.00  0.00    +0.000 C 
ATOM      7  C   UNL     1     109.434 128.893 136.160  0.00  0.00    +0.000 C 
ATOM      8  C   UNL     1     110.402 129.630 136.909  0.00  0.00    +0.000 C 
ENDROOT
BRANCH   4   9
ATOM      9  O   UNL     1     110.098 130.950 137.367  0.00  0.00    +0.000 OA
BRANCH   9  14
ATOM     10  O   UNL     1     109.510 130.436 138.564  0.00  0.00    +0.000 OA
ATOM     11  O   UNL     1     110.584 132.298 138.184  0.00  0.00    +0.000 OA
ATOM     12  O   UNL     1     110.239 132.459 139.790  0.00  0.00    +0.000 OA
ATOM     13  O   UNL     1     109.407 131.272 140.578  0.00  0.00    +0.000 OA
ATOM     14  C   UNL     1     109.925 131.030 138.170  0.00  0.00    +0.000 C 
ATOM     15  C   UNL     1     110.169 131.704 138.578  0.00  0.00    +0.000 C 
ATOM     16  C   UNL     1     109.996 131.785 139.382  0.00  0.00    +0.000 C 
ATOM     17  C   UNL     1     109.580 131.191 139.776  0.00  0.00    +0.000 C 
ATOM     18  C   UNL     1     109.337 130.517 139.366  0.00  0.00    +0.000 C 
ATOM     19  C   UNL     1     108.921 129.923 139.760  0.00  0.00    +0.000 C 
ENDBRANCH   9  14
ENDBRANCH   4   9
BRANCH   8  20
ATOM     20  O   UNL     1     111.148 129.682 137.256  0.00  0.00    +0.000 OA
BRANCH  20  24
ATOM     21  O   UNL     1     113.023 127.469 136.985  0.00  0.00    +0.000 OA
ATOM     22  O   UNL     1     113.276 129.771 135.256  0.00  0.00    +0.000 OA
ATOM     23  O   UNL     1     114.186 128.657 135.151  0.00  0.00    +0.000 OA
ATOM     24  C   UNL     1     111.800 129.337 136.886  0.00  0.00    +0.000 A 
ATOM     25  C   UNL     1     112.080 128.563 137.134  0.00  0.00    +0.000 A 
ATOM     26  C   UNL     1     112.204 129.749 136.249  0.00  0.00    +0.000 A 
ATOM     27  C   UNL     1     112.759 128.212 136.742  0.00  0.00    +0.000 A 
ATOM     28  C   UNL     1     112.882 129.382 135.869  0.00  0.00    +0.000 A 
ATOM     29  C   UNL     1     113.146 128.608 136.131  0.00  0.00    +0.000 A 
ATOM     30  C   UNL     1     113.798 128.261 135.762  0.00  0.00    +0.000 A 
ATOM     31  C   UNL     1     113.674 127.121 136.616  0.00  0.00    +0.000 A 
ATOM     32  C   UNL     1     114.062 127.518 136.005  0.00  0.00    +0.000 A 
BRANCH  31  34
ATOM     33  O   UNL     1     114.729 124.149 137.586  0.00  0.00    +0.000 OA
ATOM     34  C   UNL     1     113.938 126.378 136.858  0.00  0.00    +0.000 A 
ATOM     35  C   UNL     1     114.189 125.827 136.298  0.00  0.00    +0.000 A 
ATOM     36  C   UNL     1     113.951 126.187 137.661  0.00  0.00    +0.000 A 
ATOM     37  C   UNL     1     114.452 125.084 136.542  0.00  0.00    +0.000 A 
ATOM     38  C   UNL     1     114.215 125.444 137.904  0.00  0.00    +0.000 A 
ATOM     39  C   UNL     1     114.465 124.893 137.344  0.00  0.00    +0.000 A 
ENDBRANCH  31  34
ENDBRANCH  20  24
ENDBRANCH   8  20
BRANCH   7  40
ATOM     40  C   UNL     1     109.212 128.208 135.758  0.00  0.00    +0.000 C 
BRANCH  40  41
ATOM     41  O   UNL     1     109.555 127.485 135.953  0.00  0.00    +0.000 OA
BRANCH  41  43
ATOM     42  O   UNL     1     108.622 126.504 135.495  0.00  0.00    +0.000 OA
ATOM     43  C   UNL     1     109.387 126.813 135.504  0.00  0.00    +0.000 C 
BRANCH  43  44
ATOM     44  C   UNL     1     109.983 126.450 135.065  0.00  0.00    +0.000 C 
BRANCH  44  47
ATOM     45  O   UNL     1     110.228 125.536 136.136  0.00  0.00    +0.000 OA
ATOM     46  O   UNL     1     110.872 125.348 134.874  0.00  0.00    +0.000 OA
ATOM     47  C   UNL     1     110.361 125.778 135.359  0.00  0.00    +0.000 C 
ENDBRANCH  44  47
ENDBRANCH  43  44
ENDBRANCH  41  43
ENDBRANCH  40  41
ENDBRANCH   7  40
TORSDOF 10
ENDMDL
MODEL 9
REMARK VINA RESULT:      -9.5      1.701      4.204
REMARK  Name = 44257842
REMARK  10 active torsions:
REMARK  status: ('A' for Active; 'I' for Inactive)
REMARK    1  A    between atoms: O_1  and  C_18
REMARK    2  A    between atoms: O_1  and  C_21
REMARK    3  A    between atoms: O_5  and  C_23
REMARK    4  A    between atoms: O_5  and  C_30
REMARK    5  A    between atoms: O_10  and  C_28
REMARK    6  A    between atoms: O_10  and  C_33
REMARK    7  A    between atoms: C_22  and  C_28
REMARK    8  A    between atoms: C_33  and  C_37
REMARK    9  A    between atoms: C_37  and  C_41
REMARK   10  A    between atoms: C_39  and  C_42
REMARK                            x       y       z     vdW  Elec       q    Type
REMARK                         _______ _______ _______ _____ _____    ______ ____
ROOT
ATOM      1  O   UNL     1     106.143 126.061 143.121  0.00  0.00    +0.000 OA
ATOM      2  O   UNL     1     105.326 128.347 143.602  0.00  0.00    +0.000 OA
ATOM      3  O   UNL     1     105.246 127.179 144.766  0.00  0.00    +0.000 OA
ATOM      4  C   UNL     1     105.912 127.406 142.699  0.00  0.00    +0.000 C 
ATOM      5  C   UNL     1     105.599 127.585 143.442  0.00  0.00    +0.000 C 
ATOM      6  C   UNL     1     105.559 127.001 144.023  0.00  0.00    +0.000 C 
ATOM      7  C   UNL     1     105.831 126.239 143.862  0.00  0.00    +0.000 C 
ATOM      8  C   UNL     1     106.184 126.644 142.538  0.00  0.00    +0.000 C 
ENDROOT
BRANCH   4   9
ATOM      9  O   UNL     1     105.952 127.990 142.118  0.00  0.00    +0.000 OA
BRANCH   9  14
ATOM     10  O   UNL     1     107.268 128.365 142.530  0.00  0.00    +0.000 OA
ATOM     11  O   UNL     1     105.792 129.426 141.320  0.00  0.00    +0.000 OA
ATOM     12  O   UNL     1     107.029 130.519 141.334  0.00  0.00    +0.000 OA
ATOM     13  O   UNL     1     108.424 130.176 142.145  0.00  0.00    +0.000 OA
ATOM     14  C   UNL     1     106.570 128.537 142.125  0.00  0.00    +0.000 C 
ATOM     15  C   UNL     1     106.490 129.254 141.726  0.00  0.00    +0.000 C 
ATOM     16  C   UNL     1     107.109 129.801 141.733  0.00  0.00    +0.000 C 
ATOM     17  C   UNL     1     107.806 129.630 142.138  0.00  0.00    +0.000 C 
ATOM     18  C   UNL     1     107.885 128.911 142.537  0.00  0.00    +0.000 C 
ATOM     19  C   UNL     1     108.583 128.740 142.943  0.00  0.00    +0.000 C 
ENDBRANCH   9  14
ENDBRANCH   4   9
BRANCH   8  20
ATOM     20  O   UNL     1     106.496 126.466 141.796  0.00  0.00    +0.000 OA
BRANCH  20  24
ATOM     21  O   UNL     1     104.907 124.677 140.135  0.00  0.00    +0.000 OA
ATOM     22  O   UNL     1     107.303 123.685 141.410  0.00  0.00    +0.000 OA
ATOM     23  O   UNL     1     106.491 122.828 140.580  0.00  0.00    +0.000 OA
ATOM     24  C   UNL     1     106.370 125.722 141.464  0.00  0.00    +0.000 A 
ATOM     25  C   UNL     1     105.687 125.583 140.960  0.00  0.00    +0.000 A 
ATOM     26  C   UNL     1     106.919 125.079 141.618  0.00  0.00    +0.000 A 
ATOM     27  C   UNL     1     105.564 124.804 140.618  0.00  0.00    +0.000 A 
ATOM     28  C   UNL     1     106.780 124.308 141.267  0.00  0.00    +0.000 A 
ATOM     29  C   UNL     1     106.092 124.188 140.766  0.00  0.00    +0.000 A 
ATOM     30  C   UNL     1     105.963 123.445 140.432  0.00  0.00    +0.000 A 
ATOM     31  C   UNL     1     104.778 123.934 139.801  0.00  0.00    +0.000 A 
ATOM     32  C   UNL     1     105.306 123.318 139.950  0.00  0.00    +0.000 A 
BRANCH  31  34
ATOM     33  O   UNL     1     102.151 123.426 137.870  0.00  0.00    +0.000 OA
ATOM     34  C   UNL     1     104.121 123.807 139.318  0.00  0.00    +0.000 A 
ATOM     35  C   UNL     1     103.411 123.545 139.648  0.00  0.00    +0.000 A 
ATOM     36  C   UNL     1     104.174 123.942 138.506  0.00  0.00    +0.000 A 
ATOM     37  C   UNL     1     102.755 123.418 139.165  0.00  0.00    +0.000 A 
ATOM     38  C   UNL     1     103.517 123.815 138.023  0.00  0.00    +0.000 A 
ATOM     39  C   UNL     1     102.808 123.553 138.353  0.00  0.00    +0.000 A 
ENDBRANCH  31  34
ENDBRANCH  20  24
ENDBRANCH   8  20
BRANCH   7  40
ATOM     40  C   UNL     1     105.790 125.655 144.445  0.00  0.00    +0.000 C 
BRANCH  40  41
ATOM     41  O   UNL     1     105.217 125.065 144.398  0.00  0.00    +0.000 OA
BRANCH  41  43
ATOM     42  O   UNL     1     105.974 124.089 145.116  0.00  0.00    +0.000 OA
ATOM     43  C   UNL     1     105.247 124.419 144.911  0.00  0.00    +0.000 C 
BRANCH  43  44
ATOM     44  C   UNL     1     104.550 124.104 145.219  0.00  0.00    +0.000 C 
BRANCH  44  47
ATOM     45  O   UNL     1     104.011 123.114 144.340  0.00  0.00    +0.000 OA
ATOM     46  O   UNL     1     104.484 122.739 145.635  0.00  0.00    +0.000 OA
ATOM     47  C   UNL     1     104.348 123.320 145.064  0.00  0.00    +0.000 C 
ENDBRANCH  44  47
ENDBRANCH  43  44
ENDBRANCH  41  43
ENDBRANCH  40  41
ENDBRANCH   7  40
TORSDOF 10
ENDMDL
MODEL 10
REMARK VINA RESULT:      -9.5      5.885      8.726
REMARK  Name = 44257842
REMARK  10 active torsions:
REMARK  status: ('A' for Active; 'I' for Inactive)
REMARK    1  A    between atoms: O_1  and  C_18
REMARK    2  A    between atoms: O_1  and  C_21
REMARK    3  A    between atoms: O_5  and  C_23
REMARK    4  A    between atoms: O_5  and  C_30
REMARK    5  A    between atoms: O_10  and  C_28
REMARK    6  A    between atoms: O_10  and  C_33
REMARK    7  A    between atoms: C_22  and  C_28
REMARK    8  A    between atoms: C_33  and  C_37
REMARK    9  A    between atoms: C_37  and  C_41
REMARK   10  A    between atoms: C_39  and  C_42
REMARK                            x       y       z     vdW  Elec       q    Type
REMARK                         _______ _______ _______ _____ _____    ______ ____
ROOT
ATOM      1  O   UNL     1     110.238 127.271 138.589  0.00  0.00    +0.000 OA
ATOM      2  O   UNL     1     110.705 124.860 138.896  0.00  0.00    +0.000 OA
ATOM      3  O   UNL     1     110.081 125.745 140.141  0.00  0.00    +0.000 OA
ATOM      4  C   UNL     1     110.706 126.026 138.068  0.00  0.00    +0.000 C 
ATOM      5  C   UNL     1     110.549 125.664 138.793  0.00  0.00    +0.000 C 
ATOM      6  C   UNL     1     110.237 126.106 139.416  0.00  0.00    +0.000 C 
ATOM      7  C   UNL     1     110.081 126.910 139.313  0.00  0.00    +0.000 C 
ATOM      8  C   UNL     1     110.550 126.829 137.966  0.00  0.00    +0.000 C 
ENDROOT
BRANCH   4   9
ATOM      9  O   UNL     1     111.018 125.583 137.446  0.00  0.00    +0.000 OA
BRANCH   9  14
ATOM     10  O   UNL     1     112.349 125.848 137.894  0.00  0.00    +0.000 OA
ATOM     11  O   UNL     1     111.588 124.393 136.455  0.00  0.00    +0.000 OA
ATOM     12  O   UNL     1     113.205 124.063 136.408  0.00  0.00    +0.000 OA
ATOM     13  O   UNL     1     114.250 124.923 137.352  0.00  0.00    +0.000 OA
ATOM     14  C   UNL     1     111.827 125.418 137.422  0.00  0.00    +0.000 C 
ATOM     15  C   UNL     1     112.111 124.823 136.927  0.00  0.00    +0.000 C 
ATOM     16  C   UNL     1     112.920 124.658 136.904  0.00  0.00    +0.000 C 
ATOM     17  C   UNL     1     113.443 125.088 137.375  0.00  0.00    +0.000 C 
ATOM     18  C   UNL     1     113.157 125.683 137.871  0.00  0.00    +0.000 C 
ATOM     19  C   UNL     1     113.679 126.113 138.342  0.00  0.00    +0.000 C 
ENDBRANCH   9  14
ENDBRANCH   4   9
BRANCH   8  20
ATOM     20  O   UNL     1     110.706 127.190 137.241  0.00  0.00    +0.000 OA
BRANCH  20  24
ATOM     21  O   UNL     1     110.113 130.015 136.846  0.00  0.00    +0.000 OA
ATOM     22  O   UNL     1     108.240 128.021 135.914  0.00  0.00    +0.000 OA
ATOM     23  O   UNL     1     107.979 129.429 135.736  0.00  0.00    +0.000 OA
ATOM     24  C   UNL     1     110.207 127.784 136.960  0.00  0.00    +0.000 A 
ATOM     25  C   UNL     1     110.425 128.611 137.051  0.00  0.00    +0.000 A 
ATOM     26  C   UNL     1     109.467 127.582 136.575  0.00  0.00    +0.000 A 
ATOM     27  C   UNL     1     109.899 129.223 136.756  0.00  0.00    +0.000 A 
ATOM     28  C   UNL     1     108.954 128.207 136.286  0.00  0.00    +0.000 A 
ATOM     29  C   UNL     1     109.188 129.027 136.386  0.00  0.00    +0.000 A 
ATOM     30  C   UNL     1     108.691 129.624 136.106  0.00  0.00    +0.000 A 
ATOM     31  C   UNL     1     109.616 130.611 136.566  0.00  0.00    +0.000 A 
ATOM     32  C   UNL     1     108.905 130.415 136.196  0.00  0.00    +0.000 A 
BRANCH  31  34
ATOM     33  O   UNL     1     110.472 133.777 136.925  0.00  0.00    +0.000 OA
ATOM     34  C   UNL     1     109.830 131.403 136.656  0.00  0.00    +0.000 A 
ATOM     35  C   UNL     1     109.995 131.703 137.406  0.00  0.00    +0.000 A 
ATOM     36  C   UNL     1     109.879 131.894 135.994  0.00  0.00    +0.000 A 
ATOM     37  C   UNL     1     110.209 132.494 137.495  0.00  0.00    +0.000 A 
ATOM     38  C   UNL     1     110.094 132.686 136.084  0.00  0.00    +0.000 A 
ATOM     39  C   UNL     1     110.258 132.986 136.835  0.00  0.00    +0.000 A 
ENDBRANCH  31  34
ENDBRANCH  20  24
ENDBRANCH   8  20
BRANCH   7  40
ATOM     40  C   UNL     1     109.769 127.352 139.936  0.00  0.00    +0.000 C 
BRANCH  40  41
ATOM     41  O   UNL     1     109.269 127.988 139.781  0.00  0.00    +0.000 OA
BRANCH  41  43
ATOM     42  O   UNL     1     108.521 128.149 140.988  0.00  0.00    +0.000 OA
ATOM     43  C   UNL     1     109.004 128.467 140.400  0.00  0.00    +0.000 C 
BRANCH  43  44
ATOM     44  C   UNL     1     109.223 129.261 140.430  0.00  0.00    +0.000 C 
BRANCH  44  47
ATOM     45  O   UNL     1     108.235 130.084 139.808  0.00  0.00    +0.000 OA
ATOM     46  O   UNL     1     108.477 130.194 141.212  0.00  0.00    +0.000 OA
ATOM     47  C   UNL     1     108.645 129.846 140.483  0.00  0.00    +0.000 C 
ENDBRANCH  44  47
ENDBRANCH  43  44
ENDBRANCH  41  43
ENDBRANCH  40  41
ENDBRANCH   7  40
TORSDOF 10
ENDMDL
