MODEL 1
REMARK VINA RESULT:      -9.8      0.000      0.000
REMARK  Name = 22846027
REMARK  4 active torsions:
REMARK  status: ('A' for Active; 'I' for Inactive)
REMARK    1  A    between atoms: O_2  and  C_16
REMARK    2  A    between atoms: O_2  and  C_19
REMARK    3  A    between atoms: C_17  and  C_18
REMARK    4  A    between atoms: C_20  and  C_24
REMARK                            x       y       z     vdW  Elec       q    Type
REMARK                         _______ _______ _______ _____ _____    ______ ____
ROOT
ATOM      1  O   UNL     1     105.647 124.469 147.827  0.00  0.00    +0.000 OA
ATOM      2  O   UNL     1     107.025 125.645 146.139  0.00  0.00    +0.000 OA
ATOM      3  O   UNL     1     108.183 125.579 146.997  0.00  0.00    +0.000 OA
ATOM      4  O   UNL     1     107.941 124.299 149.612  0.00  0.00    +0.000 OA
ATOM      5  C   UNL     1     105.770 125.096 146.548  0.00  0.00    +0.000 A 
ATOM      6  C   UNL     1     105.311 124.704 147.111  0.00  0.00    +0.000 A 
ATOM      7  C   UNL     1     106.565 125.252 146.702  0.00  0.00    +0.000 A 
ATOM      8  C   UNL     1     106.901 125.017 147.418  0.00  0.00    +0.000 A 
ATOM      9  C   UNL     1     106.442 124.626 147.980  0.00  0.00    +0.000 A 
ATOM     10  C   UNL     1     107.731 125.186 147.566  0.00  0.00    +0.000 A 
ATOM     11  C   UNL     1     106.780 124.376 148.729  0.00  0.00    +0.000 A 
ATOM     12  C   UNL     1     108.086 124.944 148.309  0.00  0.00    +0.000 A 
ATOM     13  C   UNL     1     107.608 124.536 148.895  0.00  0.00    +0.000 A 
ENDROOT
BRANCH   6  15
ATOM     14  O   UNL     1     102.129 124.081 146.496  0.00  0.00    +0.000 OA
ATOM     15  C   UNL     1     104.515 124.548 146.957  0.00  0.00    +0.000 A 
ATOM     16  C   UNL     1     104.307 123.956 146.421  0.00  0.00    +0.000 A 
ATOM     17  C   UNL     1     103.928 124.984 147.340  0.00  0.00    +0.000 A 
ATOM     18  C   UNL     1     103.511 123.801 146.268  0.00  0.00    +0.000 A 
ATOM     19  C   UNL     1     103.133 124.827 147.186  0.00  0.00    +0.000 A 
ATOM     20  C   UNL     1     102.925 124.236 146.650  0.00  0.00    +0.000 A 
ENDBRANCH   6  15
BRANCH   5  21
ATOM     21  O   UNL     1     105.434 125.331 145.832  0.00  0.00    +0.000 OA
BRANCH  21  29
ATOM     22  O   UNL     1     105.341 126.709 146.201  0.00  0.00    +0.000 OA
ATOM     23  O   UNL     1     105.592 127.362 143.827  0.00  0.00    +0.000 OA
ATOM     24  O   UNL     1     105.602 125.767 144.250  0.00  0.00    +0.000 OA
ATOM     25  O   UNL     1     105.415 128.520 144.987  0.00  0.00    +0.000 OA
ATOM     26  C   UNL     1     105.509 127.144 144.619  0.00  0.00    +0.000 C 
ATOM     27  C   UNL     1     105.513 126.346 144.830  0.00  0.00    +0.000 C 
ATOM     28  C   UNL     1     105.420 127.723 145.199  0.00  0.00    +0.000 C 
ATOM     29  C   UNL     1     105.429 126.128 145.621  0.00  0.00    +0.000 C 
ATOM     30  C   UNL     1     105.336 127.506 145.990  0.00  0.00    +0.000 C 
BRANCH  30  33
ATOM     31  O   UNL     1     104.497 128.272 146.856  0.00  0.00    +0.000 OA
ATOM     32  O   UNL     1     105.911 128.479 146.864  0.00  0.00    +0.000 OA
ATOM     33  C   UNL     1     105.248 128.085 146.570  0.00  0.00    +0.000 C 
ENDBRANCH  30  33
ENDBRANCH  21  29
ENDBRANCH   5  21
TORSDOF 4
ENDMDL
MODEL 2
REMARK VINA RESULT:      -9.5      1.403      3.803
REMARK  Name = 22846027
REMARK  4 active torsions:
REMARK  status: ('A' for Active; 'I' for Inactive)
REMARK    1  A    between atoms: O_2  and  C_16
REMARK    2  A    between atoms: O_2  and  C_19
REMARK    3  A    between atoms: C_17  and  C_18
REMARK    4  A    between atoms: C_20  and  C_24
REMARK                            x       y       z     vdW  Elec       q    Type
REMARK                         _______ _______ _______ _____ _____    ______ ____
ROOT
ATOM      1  O   UNL     1     102.746 124.880 147.392  0.00  0.00    +0.000 OA
ATOM      2  O   UNL     1     104.639 123.618 146.415  0.00  0.00    +0.000 OA
ATOM      3  O   UNL     1     103.731 122.739 145.719  0.00  0.00    +0.000 OA
ATOM      4  O   UNL     1     100.854 123.145 146.016  0.00  0.00    +0.000 OA
ATOM      5  C   UNL     1     104.153 124.677 147.243  0.00  0.00    +0.000 A 
ATOM      6  C   UNL     1     103.522 125.098 147.568  0.00  0.00    +0.000 A 
ATOM      7  C   UNL     1     104.008 124.039 146.741  0.00  0.00    +0.000 A 
ATOM      8  C   UNL     1     103.232 123.821 146.564  0.00  0.00    +0.000 A 
ATOM      9  C   UNL     1     102.602 124.241 146.889  0.00  0.00    +0.000 A 
ATOM     10  C   UNL     1     103.094 123.154 146.040  0.00  0.00    +0.000 A 
ATOM     11  C   UNL     1     101.789 124.025 146.713  0.00  0.00    +0.000 A 
ATOM     12  C   UNL     1     102.288 122.923 145.852  0.00  0.00    +0.000 A 
ATOM     13  C   UNL     1     101.631 123.361 146.191  0.00  0.00    +0.000 A 
ENDROOT
BRANCH   6  15
ATOM     14  O   UNL     1     104.103 127.652 149.575  0.00  0.00    +0.000 OA
ATOM     15  C   UNL     1     103.667 125.736 148.070  0.00  0.00    +0.000 A 
ATOM     16  C   UNL     1     103.954 125.605 148.833  0.00  0.00    +0.000 A 
ATOM     17  C   UNL     1     103.526 126.506 147.809  0.00  0.00    +0.000 A 
ATOM     18  C   UNL     1     104.099 126.244 149.334  0.00  0.00    +0.000 A 
ATOM     19  C   UNL     1     103.671 127.144 148.311  0.00  0.00    +0.000 A 
ATOM     20  C   UNL     1     103.958 127.013 149.074  0.00  0.00    +0.000 A 
ENDBRANCH   6  15
BRANCH   5  21
ATOM     21  O   UNL     1     104.929 124.895 147.420  0.00  0.00    +0.000 OA
BRANCH  21  29
ATOM     22  O   UNL     1     105.125 125.520 146.150  0.00  0.00    +0.000 OA
ATOM     23  O   UNL     1     107.566 125.160 146.349  0.00  0.00    +0.000 OA
ATOM     24  O   UNL     1     106.556 124.655 147.553  0.00  0.00    +0.000 OA
ATOM     25  O   UNL     1     106.948 125.905 145.014  0.00  0.00    +0.000 OA
ATOM     26  C   UNL     1     106.752 125.280 146.283  0.00  0.00    +0.000 C 
ATOM     27  C   UNL     1     106.247 125.028 146.885  0.00  0.00    +0.000 C 
ATOM     28  C   UNL     1     106.443 125.653 145.615  0.00  0.00    +0.000 C 
ATOM     29  C   UNL     1     105.433 125.147 146.818  0.00  0.00    +0.000 C 
ATOM     30  C   UNL     1     105.629 125.772 145.548  0.00  0.00    +0.000 C 
BRANCH  30  33
ATOM     31  O   UNL     1     105.175 125.709 144.195  0.00  0.00    +0.000 OA
ATOM     32  O   UNL     1     105.158 126.953 144.897  0.00  0.00    +0.000 OA
ATOM     33  C   UNL     1     105.321 126.145 144.880  0.00  0.00    +0.000 C 
ENDBRANCH  30  33
ENDBRANCH  21  29
ENDBRANCH   5  21
TORSDOF 4
ENDMDL
MODEL 3
REMARK VINA RESULT:      -9.4     10.517     12.613
REMARK  Name = 22846027
REMARK  4 active torsions:
REMARK  status: ('A' for Active; 'I' for Inactive)
REMARK    1  A    between atoms: O_2  and  C_16
REMARK    2  A    between atoms: O_2  and  C_19
REMARK    3  A    between atoms: C_17  and  C_18
REMARK    4  A    between atoms: C_20  and  C_24
REMARK                            x       y       z     vdW  Elec       q    Type
REMARK                         _______ _______ _______ _____ _____    ______ ____
ROOT
ATOM      1  O   UNL     1     111.902 125.793 136.036  0.00  0.00    +0.000 OA
ATOM      2  O   UNL     1     111.855 128.239 135.656  0.00  0.00    +0.000 OA
ATOM      3  O   UNL     1     110.593 128.135 134.963  0.00  0.00    +0.000 OA
ATOM      4  O   UNL     1     109.357 125.507 134.649  0.00  0.00    +0.000 OA
ATOM      5  C   UNL     1     112.503 127.081 136.186  0.00  0.00    +0.000 A 
ATOM      6  C   UNL     1     112.519 126.265 136.313  0.00  0.00    +0.000 A 
ATOM      7  C   UNL     1     111.870 127.423 135.782  0.00  0.00    +0.000 A 
ATOM      8  C   UNL     1     111.254 126.950 135.505  0.00  0.00    +0.000 A 
ATOM      9  C   UNL     1     111.270 126.136 135.631  0.00  0.00    +0.000 A 
ATOM     10  C   UNL     1     110.601 127.319 135.085  0.00  0.00    +0.000 A 
ATOM     11  C   UNL     1     110.634 125.632 135.348  0.00  0.00    +0.000 A 
ATOM     12  C   UNL     1     109.956 126.832 134.794  0.00  0.00    +0.000 A 
ATOM     13  C   UNL     1     109.972 125.983 134.926  0.00  0.00    +0.000 A 
ENDROOT
BRANCH   6  15
ATOM     14  O   UNL     1     115.052 124.899 137.928  0.00  0.00    +0.000 OA
ATOM     15  C   UNL     1     113.152 125.924 136.717  0.00  0.00    +0.000 A 
ATOM     16  C   UNL     1     113.055 125.667 137.495  0.00  0.00    +0.000 A 
ATOM     17  C   UNL     1     113.882 125.839 136.342  0.00  0.00    +0.000 A 
ATOM     18  C   UNL     1     113.689 125.326 137.898  0.00  0.00    +0.000 A 
ATOM     19  C   UNL     1     114.515 125.497 136.746  0.00  0.00    +0.000 A 
ATOM     20  C   UNL     1     114.418 125.240 137.524  0.00  0.00    +0.000 A 
ENDBRANCH   6  15
BRANCH   5  21
ATOM     21  O   UNL     1     113.120 127.554 136.464  0.00  0.00    +0.000 OA
BRANCH  21  29
ATOM     22  O   UNL     1     112.392 128.075 137.578  0.00  0.00    +0.000 OA
ATOM     23  O   UNL     1     113.634 130.207 137.393  0.00  0.00    +0.000 OA
ATOM     24  O   UNL     1     113.948 128.976 136.340  0.00  0.00    +0.000 OA
ATOM     25  O   UNL     1     112.492 130.017 138.568  0.00  0.00    +0.000 OA
ATOM     26  C   UNL     1     113.220 129.496 137.454  0.00  0.00    +0.000 C 
ATOM     27  C   UNL     1     113.377 128.880 136.928  0.00  0.00    +0.000 C 
ATOM     28  C   UNL     1     112.649 129.401 138.042  0.00  0.00    +0.000 C 
ATOM     29  C   UNL     1     112.963 128.169 136.990  0.00  0.00    +0.000 C 
ATOM     30  C   UNL     1     112.235 128.690 138.104  0.00  0.00    +0.000 C 
BRANCH  30  33
ATOM     31  O   UNL     1     110.895 128.867 138.568  0.00  0.00    +0.000 OA
ATOM     32  O   UNL     1     111.862 128.227 139.403  0.00  0.00    +0.000 OA
ATOM     33  C   UNL     1     111.664 128.595 138.691  0.00  0.00    +0.000 C 
ENDBRANCH  30  33
ENDBRANCH  21  29
ENDBRANCH   5  21
TORSDOF 4
ENDMDL
MODEL 4
REMARK VINA RESULT:      -9.2      1.379      3.680
REMARK  Name = 22846027
REMARK  4 active torsions:
REMARK  status: ('A' for Active; 'I' for Inactive)
REMARK    1  A    between atoms: O_2  and  C_16
REMARK    2  A    between atoms: O_2  and  C_19
REMARK    3  A    between atoms: C_17  and  C_18
REMARK    4  A    between atoms: C_20  and  C_24
REMARK                            x       y       z     vdW  Elec       q    Type
REMARK                         _______ _______ _______ _____ _____    ______ ____
ROOT
ATOM      1  O   UNL     1     105.658 126.673 148.773  0.00  0.00    +0.000 OA
ATOM      2  O   UNL     1     105.591 126.952 146.313  0.00  0.00    +0.000 OA
ATOM      3  O   UNL     1     104.790 128.145 146.442  0.00  0.00    +0.000 OA
ATOM      4  O   UNL     1     104.044 129.074 149.109  0.00  0.00    +0.000 OA
ATOM      5  C   UNL     1     106.020 126.223 147.465  0.00  0.00    +0.000 A 
ATOM      6  C   UNL     1     106.042 126.130 148.285  0.00  0.00    +0.000 A 
ATOM      7  C   UNL     1     105.613 126.859 147.134  0.00  0.00    +0.000 A 
ATOM      8  C   UNL     1     105.228 127.402 147.621  0.00  0.00    +0.000 A 
ATOM      9  C   UNL     1     105.251 127.309 148.440  0.00  0.00    +0.000 A 
ATOM     10  C   UNL     1     104.807 128.060 147.263  0.00  0.00    +0.000 A 
ATOM     11  C   UNL     1     104.854 127.867 148.959  0.00  0.00    +0.000 A 
ATOM     12  C   UNL     1     104.405 128.629 147.765  0.00  0.00    +0.000 A 
ATOM     13  C   UNL     1     104.428 128.532 148.619  0.00  0.00    +0.000 A 
ENDROOT
BRANCH   6  15
ATOM     14  O   UNL     1     107.669 123.584 149.612  0.00  0.00    +0.000 OA
ATOM     15  C   UNL     1     106.450 125.494 148.617  0.00  0.00    +0.000 A 
ATOM     16  C   UNL     1     107.272 125.455 148.560  0.00  0.00    +0.000 A 
ATOM     17  C   UNL     1     106.034 124.895 149.005  0.00  0.00    +0.000 A 
ATOM     18  C   UNL     1     107.678 124.818 148.892  0.00  0.00    +0.000 A 
ATOM     19  C   UNL     1     106.441 124.259 149.336  0.00  0.00    +0.000 A 
ATOM     20  C   UNL     1     107.263 124.221 149.280  0.00  0.00    +0.000 A 
ENDBRANCH   6  15
BRANCH   5  21
ATOM     21  O   UNL     1     106.405 125.680 146.978  0.00  0.00    +0.000 OA
BRANCH  21  29
ATOM     22  O   UNL     1     105.245 124.936 146.600  0.00  0.00    +0.000 OA
ATOM     23  O   UNL     1     106.165 124.658 144.319  0.00  0.00    +0.000 OA
ATOM     24  O   UNL     1     107.019 125.495 145.457  0.00  0.00    +0.000 OA
ATOM     25  O   UNL     1     104.699 124.007 144.702  0.00  0.00    +0.000 OA
ATOM     26  C   UNL     1     105.859 124.751 145.079  0.00  0.00    +0.000 C 
ATOM     27  C   UNL     1     106.285 125.169 145.649  0.00  0.00    +0.000 C 
ATOM     28  C   UNL     1     105.125 124.425 145.271  0.00  0.00    +0.000 C 
ATOM     29  C   UNL     1     105.979 125.262 146.409  0.00  0.00    +0.000 C 
ATOM     30  C   UNL     1     104.819 124.518 146.031  0.00  0.00    +0.000 C 
BRANCH  30  33
ATOM     31  O   UNL     1     103.396 124.630 146.106  0.00  0.00    +0.000 OA
ATOM     32  O   UNL     1     104.042 123.428 146.530  0.00  0.00    +0.000 OA
ATOM     33  C   UNL     1     104.086 124.192 146.222  0.00  0.00    +0.000 C 
ENDBRANCH  30  33
ENDBRANCH  21  29
ENDBRANCH   5  21
TORSDOF 4
ENDMDL
MODEL 5
REMARK VINA RESULT:      -9.2      9.972     11.971
REMARK  Name = 22846027
REMARK  4 active torsions:
REMARK  status: ('A' for Active; 'I' for Inactive)
REMARK    1  A    between atoms: O_2  and  C_16
REMARK    2  A    between atoms: O_2  and  C_19
REMARK    3  A    between atoms: C_17  and  C_18
REMARK    4  A    between atoms: C_20  and  C_24
REMARK                            x       y       z     vdW  Elec       q    Type
REMARK                         _______ _______ _______ _____ _____    ______ ____
ROOT
ATOM      1  O   UNL     1     113.583 127.320 136.712  0.00  0.00    +0.000 OA
ATOM      2  O   UNL     1     112.075 128.138 138.497  0.00  0.00    +0.000 OA
ATOM      3  O   UNL     1     112.152 129.485 137.985  0.00  0.00    +0.000 OA
ATOM      4  O   UNL     1     113.786 130.013 135.622  0.00  0.00    +0.000 OA
ATOM      5  C   UNL     1     112.782 127.067 137.869  0.00  0.00    +0.000 A 
ATOM      6  C   UNL     1     113.285 126.794 137.274  0.00  0.00    +0.000 A 
ATOM      7  C   UNL     1     112.578 127.865 137.902  0.00  0.00    +0.000 A 
ATOM      8  C   UNL     1     112.876 128.391 137.341  0.00  0.00    +0.000 A 
ATOM      9  C   UNL     1     113.378 128.119 136.746  0.00  0.00    +0.000 A 
ATOM     10  C   UNL     1     112.656 129.221 137.386  0.00  0.00    +0.000 A 
ATOM     11  C   UNL     1     113.696 128.656 136.156  0.00  0.00    +0.000 A 
ATOM     12  C   UNL     1     112.963 129.773 136.804  0.00  0.00    +0.000 A 
ATOM     13  C   UNL     1     113.486 129.489 136.185  0.00  0.00    +0.000 A 
ENDROOT
BRANCH   6  15
ATOM     14  O   UNL     1     114.098 123.599 137.141  0.00  0.00    +0.000 OA
ATOM     15  C   UNL     1     113.489 125.996 137.241  0.00  0.00    +0.000 A 
ATOM     16  C   UNL     1     114.245 125.753 137.465  0.00  0.00    +0.000 A 
ATOM     17  C   UNL     1     112.936 125.439 136.983  0.00  0.00    +0.000 A 
ATOM     18  C   UNL     1     114.447 124.954 137.432  0.00  0.00    +0.000 A 
ATOM     19  C   UNL     1     113.140 124.641 136.950  0.00  0.00    +0.000 A 
ATOM     20  C   UNL     1     113.896 124.398 137.175  0.00  0.00    +0.000 A 
ENDBRANCH   6  15
BRANCH   5  21
ATOM     21  O   UNL     1     112.484 126.541 138.430  0.00  0.00    +0.000 OA
BRANCH  21  29
ATOM     22  O   UNL     1     113.354 126.984 139.474  0.00  0.00    +0.000 OA
ATOM     23  O   UNL     1     111.632 126.405 141.155  0.00  0.00    +0.000 OA
ATOM     24  O   UNL     1     111.336 126.155 139.551  0.00  0.00    +0.000 OA
ATOM     25  O   UNL     1     113.075 127.041 141.637  0.00  0.00    +0.000 OA
ATOM     26  C   UNL     1     112.206 126.598 140.595  0.00  0.00    +0.000 C 
ATOM     27  C   UNL     1     112.058 126.473 139.792  0.00  0.00    +0.000 C 
ATOM     28  C   UNL     1     112.928 126.916 140.836  0.00  0.00    +0.000 C 
ATOM     29  C   UNL     1     112.632 126.666 139.232  0.00  0.00    +0.000 C 
ATOM     30  C   UNL     1     113.502 127.109 140.275  0.00  0.00    +0.000 C 
BRANCH  30  33
ATOM     31  O   UNL     1     114.295 128.238 140.648  0.00  0.00    +0.000 OA
ATOM     32  O   UNL     1     114.875 126.932 140.628  0.00  0.00    +0.000 OA
ATOM     33  C   UNL     1     114.223 127.426 140.517  0.00  0.00    +0.000 C 
ENDBRANCH  30  33
ENDBRANCH  21  29
ENDBRANCH   5  21
TORSDOF 4
ENDMDL
MODEL 6
REMARK VINA RESULT:      -9.2     10.293     12.230
REMARK  Name = 22846027
REMARK  4 active torsions:
REMARK  status: ('A' for Active; 'I' for Inactive)
REMARK    1  A    between atoms: O_2  and  C_16
REMARK    2  A    between atoms: O_2  and  C_19
REMARK    3  A    between atoms: C_17  and  C_18
REMARK    4  A    between atoms: C_20  and  C_24
REMARK                            x       y       z     vdW  Elec       q    Type
REMARK                         _______ _______ _______ _____ _____    ______ ____
ROOT
ATOM      1  O   UNL     1     113.126 128.382 138.283  0.00  0.00    +0.000 OA
ATOM      2  O   UNL     1     112.166 126.139 138.702  0.00  0.00    +0.000 OA
ATOM      3  O   UNL     1     112.495 126.229 140.104  0.00  0.00    +0.000 OA
ATOM      4  O   UNL     1     113.820 128.634 141.100  0.00  0.00    +0.000 OA
ATOM      5  C   UNL     1     112.478 127.202 137.801  0.00  0.00    +0.000 A 
ATOM      6  C   UNL     1     112.798 127.950 137.661  0.00  0.00    +0.000 A 
ATOM      7  C   UNL     1     112.486 126.887 138.563  0.00  0.00    +0.000 A 
ATOM      8  C   UNL     1     112.815 127.318 139.185  0.00  0.00    +0.000 A 
ATOM      9  C   UNL     1     113.134 128.065 139.045  0.00  0.00    +0.000 A 
ATOM     10  C   UNL     1     112.817 126.977 139.974  0.00  0.00    +0.000 A 
ATOM     11  C   UNL     1     113.479 128.524 139.683  0.00  0.00    +0.000 A 
ATOM     12  C   UNL     1     113.158 127.422 140.625  0.00  0.00    +0.000 A 
ATOM     13  C   UNL     1     113.491 128.200 140.480  0.00  0.00    +0.000 A 
ENDROOT
BRANCH   6  15
ATOM     14  O   UNL     1     112.760 129.214 134.612  0.00  0.00    +0.000 OA
ATOM     15  C   UNL     1     112.789 128.266 136.899  0.00  0.00    +0.000 A 
ATOM     16  C   UNL     1     113.489 128.317 136.465  0.00  0.00    +0.000 A 
ATOM     17  C   UNL     1     112.079 128.531 136.570  0.00  0.00    +0.000 A 
ATOM     18  C   UNL     1     113.479 128.633 135.702  0.00  0.00    +0.000 A 
ATOM     19  C   UNL     1     112.071 128.847 135.808  0.00  0.00    +0.000 A 
ATOM     20  C   UNL     1     112.771 128.898 135.374  0.00  0.00    +0.000 A 
ENDBRANCH   6  15
BRANCH   5  21
ATOM     21  O   UNL     1     112.149 126.771 137.179  0.00  0.00    +0.000 OA
BRANCH  21  29
ATOM     22  O   UNL     1     113.264 125.888 137.038  0.00  0.00    +0.000 OA
ATOM     23  O   UNL     1     111.740 124.081 136.306  0.00  0.00    +0.000 OA
ATOM     24  O   UNL     1     111.133 125.566 136.690  0.00  0.00    +0.000 OA
ATOM     25  O   UNL     1     113.361 123.801 136.410  0.00  0.00    +0.000 OA
ATOM     26  C   UNL     1     112.248 124.683 136.550  0.00  0.00    +0.000 C 
ATOM     27  C   UNL     1     111.944 125.427 136.742  0.00  0.00    +0.000 C 
ATOM     28  C   UNL     1     113.059 124.543 136.602  0.00  0.00    +0.000 C 
ATOM     29  C   UNL     1     112.453 126.029 136.987  0.00  0.00    +0.000 C 
ATOM     30  C   UNL     1     113.567 125.146 136.846  0.00  0.00    +0.000 C 
BRANCH  30  33
ATOM     31  O   UNL     1     114.695 124.659 137.577  0.00  0.00    +0.000 OA
ATOM     32  O   UNL     1     114.873 125.211 136.271  0.00  0.00    +0.000 OA
ATOM     33  C   UNL     1     114.378 125.005 136.898  0.00  0.00    +0.000 C 
ENDBRANCH  30  33
ENDBRANCH  21  29
ENDBRANCH   5  21
TORSDOF 4
ENDMDL
MODEL 7
REMARK VINA RESULT:      -9.2     10.211     12.227
REMARK  Name = 22846027
REMARK  4 active torsions:
REMARK  status: ('A' for Active; 'I' for Inactive)
REMARK    1  A    between atoms: O_2  and  C_16
REMARK    2  A    between atoms: O_2  and  C_19
REMARK    3  A    between atoms: C_17  and  C_18
REMARK    4  A    between atoms: C_20  and  C_24
REMARK                            x       y       z     vdW  Elec       q    Type
REMARK                         _______ _______ _______ _____ _____    ______ ____
ROOT
ATOM      1  O   UNL     1     113.502 126.796 136.823  0.00  0.00    +0.000 OA
ATOM      2  O   UNL     1     111.581 125.502 135.948  0.00  0.00    +0.000 OA
ATOM      3  O   UNL     1     112.223 124.258 136.299  0.00  0.00    +0.000 OA
ATOM      4  O   UNL     1     114.857 124.326 137.560  0.00  0.00    +0.000 OA
ATOM      5  C   UNL     1     112.213 126.758 136.206  0.00  0.00    +0.000 A 
ATOM      6  C   UNL     1     112.853 127.189 136.498  0.00  0.00    +0.000 A 
ATOM      7  C   UNL     1     112.222 125.933 136.239  0.00  0.00    +0.000 A 
ATOM      8  C   UNL     1     112.871 125.541 136.564  0.00  0.00    +0.000 A 
ATOM      9  C   UNL     1     113.510 125.972 136.856  0.00  0.00    +0.000 A 
ATOM     10  C   UNL     1     112.868 124.682 136.593  0.00  0.00    +0.000 A 
ATOM     11  C   UNL     1     114.191 125.575 137.197  0.00  0.00    +0.000 A 
ATOM     12  C   UNL     1     113.540 124.267 136.931  0.00  0.00    +0.000 A 
ATOM     13  C   UNL     1     114.207 124.716 137.234  0.00  0.00    +0.000 A 
ENDROOT
BRANCH   6  15
ATOM     14  O   UNL     1     112.815 130.487 136.366  0.00  0.00    +0.000 OA
ATOM     15  C   UNL     1     112.844 128.013 136.464  0.00  0.00    +0.000 A 
ATOM     16  C   UNL     1     112.949 128.399 135.743  0.00  0.00    +0.000 A 
ATOM     17  C   UNL     1     112.728 128.453 137.154  0.00  0.00    +0.000 A 
ATOM     18  C   UNL     1     112.940 129.223 135.710  0.00  0.00    +0.000 A 
ATOM     19  C   UNL     1     112.719 129.277 137.120  0.00  0.00    +0.000 A 
ATOM     20  C   UNL     1     112.825 129.662 136.399  0.00  0.00    +0.000 A 
ENDBRANCH   6  15
BRANCH   5  21
ATOM     21  O   UNL     1     111.564 127.150 135.881  0.00  0.00    +0.000 OA
BRANCH  21  29
ATOM     22  O   UNL     1     110.713 126.971 137.015  0.00  0.00    +0.000 OA
ATOM     23  O   UNL     1     108.748 126.824 135.518  0.00  0.00    +0.000 OA
ATOM     24  O   UNL     1     110.254 127.052 134.883  0.00  0.00    +0.000 OA
ATOM     25  O   UNL     1     108.553 126.695 137.151  0.00  0.00    +0.000 OA
ATOM     26  C   UNL     1     109.403 126.873 136.017  0.00  0.00    +0.000 C 
ATOM     27  C   UNL     1     110.157 126.987 135.700  0.00  0.00    +0.000 C 
ATOM     28  C   UNL     1     109.306 126.808 136.834  0.00  0.00    +0.000 C 
ATOM     29  C   UNL     1     110.812 127.036 136.199  0.00  0.00    +0.000 C 
ATOM     30  C   UNL     1     109.961 126.858 137.333  0.00  0.00    +0.000 C 
BRANCH  30  33
ATOM     31  O   UNL     1     109.871 126.050 138.508  0.00  0.00    +0.000 OA
ATOM     32  O   UNL     1     109.758 127.471 138.607  0.00  0.00    +0.000 OA
ATOM     33  C   UNL     1     109.864 126.793 138.149  0.00  0.00    +0.000 C 
ENDBRANCH  30  33
ENDBRANCH  21  29
ENDBRANCH   5  21
TORSDOF 4
ENDMDL
MODEL 8
REMARK VINA RESULT:      -9.2      9.902     11.853
REMARK  Name = 22846027
REMARK  4 active torsions:
REMARK  status: ('A' for Active; 'I' for Inactive)
REMARK    1  A    between atoms: O_2  and  C_16
REMARK    2  A    between atoms: O_2  and  C_19
REMARK    3  A    between atoms: C_17  and  C_18
REMARK    4  A    between atoms: C_20  and  C_24
REMARK                            x       y       z     vdW  Elec       q    Type
REMARK                         _______ _______ _______ _____ _____    ______ ____
ROOT
ATOM      1  O   UNL     1     111.786 125.601 136.146  0.00  0.00    +0.000 OA
ATOM      2  O   UNL     1     110.654 126.476 138.167  0.00  0.00    +0.000 OA
ATOM      3  O   UNL     1     109.420 126.643 137.438  0.00  0.00    +0.000 OA
ATOM      4  O   UNL     1     109.330 125.911 134.612  0.00  0.00    +0.000 OA
ATOM      5  C   UNL     1     111.825 125.961 137.529  0.00  0.00    +0.000 A 
ATOM      6  C   UNL     1     112.202 125.670 136.855  0.00  0.00    +0.000 A 
ATOM      7  C   UNL     1     111.032 126.184 137.493  0.00  0.00    +0.000 A 
ATOM      8  C   UNL     1     110.616 126.116 136.784  0.00  0.00    +0.000 A 
ATOM      9  C   UNL     1     110.993 125.825 136.111  0.00  0.00    +0.000 A 
ATOM     10  C   UNL     1     109.789 126.352 136.760  0.00  0.00    +0.000 A 
ATOM     11  C   UNL     1     110.571 125.749 135.367  0.00  0.00    +0.000 A 
ATOM     12  C   UNL     1     109.351 126.284 136.024  0.00  0.00    +0.000 A 
ATOM     13  C   UNL     1     109.744 125.980 135.323  0.00  0.00    +0.000 A 
ENDROOT
BRANCH   6  15
ATOM     14  O   UNL     1     115.377 124.779 136.999  0.00  0.00    +0.000 OA
ATOM     15  C   UNL     1     112.996 125.446 136.891  0.00  0.00    +0.000 A 
ATOM     16  C   UNL     1     113.210 124.742 137.263  0.00  0.00    +0.000 A 
ATOM     17  C   UNL     1     113.575 125.929 136.555  0.00  0.00    +0.000 A 
ATOM     18  C   UNL     1     114.004 124.520 137.299  0.00  0.00    +0.000 A 
ATOM     19  C   UNL     1     114.369 125.706 136.591  0.00  0.00    +0.000 A 
ATOM     20  C   UNL     1     114.583 125.001 136.963  0.00  0.00    +0.000 A 
ENDBRANCH   6  15
BRANCH   5  21
ATOM     21  O   UNL     1     112.241 126.029 138.238  0.00  0.00    +0.000 OA
BRANCH  21  29
ATOM     22  O   UNL     1     112.397 127.447 138.147  0.00  0.00    +0.000 OA
ATOM     23  O   UNL     1     112.373 127.609 140.616  0.00  0.00    +0.000 OA
ATOM     24  O   UNL     1     112.225 126.137 139.885  0.00  0.00    +0.000 OA
ATOM     25  O   UNL     1     112.537 128.971 139.702  0.00  0.00    +0.000 OA
ATOM     26  C   UNL     1     112.381 127.555 139.793  0.00  0.00    +0.000 C 
ATOM     27  C   UNL     1     112.307 126.818 139.427  0.00  0.00    +0.000 C 
ATOM     28  C   UNL     1     112.463 128.236 139.335  0.00  0.00    +0.000 C 
ATOM     29  C   UNL     1     112.315 126.764 138.604  0.00  0.00    +0.000 C 
ATOM     30  C   UNL     1     112.471 128.182 138.512  0.00  0.00    +0.000 C 
BRANCH  30  33
ATOM     31  O   UNL     1     111.890 129.317 137.868  0.00  0.00    +0.000 OA
ATOM     32  O   UNL     1     113.298 129.092 137.786  0.00  0.00    +0.000 OA
ATOM     33  C   UNL     1     112.553 128.863 138.055  0.00  0.00    +0.000 C 
ENDBRANCH  30  33
ENDBRANCH  21  29
ENDBRANCH   5  21
TORSDOF 4
ENDMDL
MODEL 9
REMARK VINA RESULT:      -9.1      9.224     11.063
REMARK  Name = 22846027
REMARK  4 active torsions:
REMARK  status: ('A' for Active; 'I' for Inactive)
REMARK    1  A    between atoms: O_2  and  C_16
REMARK    2  A    between atoms: O_2  and  C_19
REMARK    3  A    between atoms: C_17  and  C_18
REMARK    4  A    between atoms: C_20  and  C_24
REMARK                            x       y       z     vdW  Elec       q    Type
REMARK                         _______ _______ _______ _____ _____    ______ ____
ROOT
ATOM      1  O   UNL     1     113.804 126.202 138.379  0.00  0.00    +0.000 OA
ATOM      2  O   UNL     1     111.710 124.974 137.896  0.00  0.00    +0.000 OA
ATOM      3  O   UNL     1     112.332 124.291 136.788  0.00  0.00    +0.000 OA
ATOM      4  O   UNL     1     115.126 124.862 136.156  0.00  0.00    +0.000 OA
ATOM      5  C   UNL     1     112.437 125.919 138.684  0.00  0.00    +0.000 A 
ATOM      6  C   UNL     1     113.135 126.329 138.844  0.00  0.00    +0.000 A 
ATOM      7  C   UNL     1     112.408 125.383 138.057  0.00  0.00    +0.000 A 
ATOM      8  C   UNL     1     113.078 125.257 137.591  0.00  0.00    +0.000 A 
ATOM      9  C   UNL     1     113.775 125.666 137.752  0.00  0.00    +0.000 A 
ATOM     10  C   UNL     1     113.035 124.696 136.942  0.00  0.00    +0.000 A 
ATOM     11  C   UNL     1     114.479 125.544 137.275  0.00  0.00    +0.000 A 
ATOM     12  C   UNL     1     113.728 124.560 136.453  0.00  0.00    +0.000 A 
ATOM     13  C   UNL     1     114.455 124.987 136.621  0.00  0.00    +0.000 A 
ENDROOT
BRANCH   6  15
ATOM     14  O   UNL     1     113.248 128.474 141.349  0.00  0.00    +0.000 OA
ATOM     15  C   UNL     1     113.163 126.865 139.471  0.00  0.00    +0.000 A 
ATOM     16  C   UNL     1     113.170 126.590 140.249  0.00  0.00    +0.000 A 
ATOM     17  C   UNL     1     113.184 127.676 139.319  0.00  0.00    +0.000 A 
ATOM     18  C   UNL     1     113.199 127.127 140.875  0.00  0.00    +0.000 A 
ATOM     19  C   UNL     1     113.212 128.212 139.945  0.00  0.00    +0.000 A 
ATOM     20  C   UNL     1     113.220 127.937 140.723  0.00  0.00    +0.000 A 
ENDBRANCH   6  15
BRANCH   5  21
ATOM     21  O   UNL     1     111.767 126.046 139.149  0.00  0.00    +0.000 OA
BRANCH  21  29
ATOM     22  O   UNL     1     111.102 126.854 138.177  0.00  0.00    +0.000 OA
ATOM     23  O   UNL     1     108.913 126.064 139.019  0.00  0.00    +0.000 OA
ATOM     24  O   UNL     1     110.308 125.519 139.710  0.00  0.00    +0.000 OA
ATOM     25  O   UNL     1     108.977 127.136 137.767  0.00  0.00    +0.000 OA
ATOM     26  C   UNL     1     109.642 126.328 138.738  0.00  0.00    +0.000 C 
ATOM     27  C   UNL     1     110.341 126.055 139.084  0.00  0.00    +0.000 C 
ATOM     28  C   UNL     1     109.675 126.864 138.112  0.00  0.00    +0.000 C 
ATOM     29  C   UNL     1     111.070 126.318 138.804  0.00  0.00    +0.000 C 
ATOM     30  C   UNL     1     110.405 127.127 137.832  0.00  0.00    +0.000 C 
BRANCH  30  33
ATOM     31  O   UNL     1     110.394 127.392 136.428  0.00  0.00    +0.000 OA
ATOM     32  O   UNL     1     110.512 128.470 137.358  0.00  0.00    +0.000 OA
ATOM     33  C   UNL     1     110.437 127.663 137.206  0.00  0.00    +0.000 C 
ENDBRANCH  30  33
ENDBRANCH  21  29
ENDBRANCH   5  21
TORSDOF 4
ENDMDL
MODEL 10
REMARK VINA RESULT:      -9.1     10.799     12.969
REMARK  Name = 22846027
REMARK  4 active torsions:
REMARK  status: ('A' for Active; 'I' for Inactive)
REMARK    1  A    between atoms: O_2  and  C_16
REMARK    2  A    between atoms: O_2  and  C_19
REMARK    3  A    between atoms: C_17  and  C_18
REMARK    4  A    between atoms: C_20  and  C_24
REMARK                            x       y       z     vdW  Elec       q    Type
REMARK                         _______ _______ _______ _____ _____    ______ ____
ROOT
ATOM      1  O   UNL     1     114.096 127.511 136.110  0.00  0.00    +0.000 OA
ATOM      2  O   UNL     1     111.895 128.427 136.781  0.00  0.00    +0.000 OA
ATOM      3  O   UNL     1     112.158 129.655 136.071  0.00  0.00    +0.000 OA
ATOM      4  O   UNL     1     114.695 129.963 134.656  0.00  0.00    +0.000 OA
ATOM      5  C   UNL     1     112.852 127.366 136.801  0.00  0.00    +0.000 A 
ATOM      6  C   UNL     1     113.586 127.061 136.577  0.00  0.00    +0.000 A 
ATOM      7  C   UNL     1     112.629 128.122 136.557  0.00  0.00    +0.000 A 
ATOM      8  C   UNL     1     113.138 128.572 136.090  0.00  0.00    +0.000 A 
ATOM      9  C   UNL     1     113.871 128.267 135.867  0.00  0.00    +0.000 A 
ATOM     10  C   UNL     1     112.894 129.358 135.843  0.00  0.00    +0.000 A 
ATOM     11  C   UNL     1     114.411 128.726 135.381  0.00  0.00    +0.000 A 
ATOM     12  C   UNL     1     113.420 129.832 135.356  0.00  0.00    +0.000 A 
ATOM     13  C   UNL     1     114.184 129.514 135.123  0.00  0.00    +0.000 A 
ENDROOT
BRANCH   6  15
ATOM     14  O   UNL     1     114.479 124.037 137.551  0.00  0.00    +0.000 OA
ATOM     15  C   UNL     1     113.809 126.305 136.821  0.00  0.00    +0.000 A 
ATOM     16  C   UNL     1     113.996 126.165 137.613  0.00  0.00    +0.000 A 
ATOM     17  C   UNL     1     113.846 125.689 136.273  0.00  0.00    +0.000 A 
ATOM     18  C   UNL     1     114.219 125.408 137.856  0.00  0.00    +0.000 A 
ATOM     19  C   UNL     1     114.069 124.933 136.517  0.00  0.00    +0.000 A 
ATOM     20  C   UNL     1     114.256 124.793 137.308  0.00  0.00    +0.000 A 
ENDBRANCH   6  15
BRANCH   5  21
ATOM     21  O   UNL     1     112.343 126.916 137.268  0.00  0.00    +0.000 OA
BRANCH  21  29
ATOM     22  O   UNL     1     111.462 126.566 136.199  0.00  0.00    +0.000 OA
ATOM     23  O   UNL     1     109.556 126.537 137.778  0.00  0.00    +0.000 OA
ATOM     24  O   UNL     1     111.073 126.896 138.321  0.00  0.00    +0.000 OA
ATOM     25  O   UNL     1     109.311 126.198 136.183  0.00  0.00    +0.000 OA
ATOM     26  C   UNL     1     110.192 126.547 137.252  0.00  0.00    +0.000 C 
ATOM     27  C   UNL     1     110.950 126.727 137.523  0.00  0.00    +0.000 C 
ATOM     28  C   UNL     1     110.069 126.377 136.454  0.00  0.00    +0.000 C 
ATOM     29  C   UNL     1     111.585 126.736 136.997  0.00  0.00    +0.000 C 
ATOM     30  C   UNL     1     110.704 126.387 135.928  0.00  0.00    +0.000 C 
BRANCH  30  33
ATOM     31  O   UNL     1     110.339 126.813 134.613  0.00  0.00    +0.000 OA
ATOM     32  O   UNL     1     110.700 125.450 134.849  0.00  0.00    +0.000 OA
ATOM     33  C   UNL     1     110.581 126.217 135.130  0.00  0.00    +0.000 C 
ENDBRANCH  30  33
ENDBRANCH  21  29
ENDBRANCH   5  21
TORSDOF 4
ENDMDL
