MODEL 1
REMARK VINA RESULT:      -7.9      0.000      0.000
REMARK  Name = 44259960
REMARK  6 active torsions:
REMARK  status: ('A' for Active; 'I' for Inactive)
REMARK    1  A    between atoms: O_2  and  C_11
REMARK    2  A    between atoms: O_3  and  C_14
REMARK    3  A    between atoms: O_4  and  C_20
REMARK    4  A    between atoms: O_4  and  C_23
REMARK    5  A    between atoms: C_10  and  C_12
REMARK    6  A    between atoms: C_23  and  C_26
REMARK                            x       y       z     vdW  Elec       q    Type
REMARK                         _______ _______ _______ _____ _____    ______ ____
ROOT
ATOM      1  O   UNL     1     112.659 128.831 141.553  0.00  0.00    +0.000 OA
ATOM      2  O   UNL     1     113.239 131.620 142.041  0.00  0.00    +0.000 OA
ATOM      3  O   UNL     1     113.857 130.911 140.947  0.00  0.00    +0.000 OA
ATOM      4  O   UNL     1     111.374 130.197 143.781  0.00  0.00    +0.000 OA
ATOM      5  C   UNL     1     112.945 130.211 141.795  0.00  0.00    +0.000 A 
ATOM      6  C   UNL     1     112.546 129.517 141.998  0.00  0.00    +0.000 A 
ATOM      7  C   UNL     1     113.172 128.838 140.907  0.00  0.00    +0.000 A 
ATOM      8  C   UNL     1     113.571 129.532 140.704  0.00  0.00    +0.000 A 
ATOM      9  C   UNL     1     113.457 130.218 141.149  0.00  0.00    +0.000 A 
ATOM     10  C   UNL     1     112.009 129.496 142.669  0.00  0.00    +0.000 A 
ATOM     11  C   UNL     1     112.836 130.931 142.251  0.00  0.00    +0.000 A 
ATOM     12  C   UNL     1     111.887 130.207 143.135  0.00  0.00    +0.000 A 
ATOM     13  C   UNL     1     112.303 130.930 142.925  0.00  0.00    +0.000 A 
ENDROOT
BRANCH   7  14
ATOM     14  C   UNL     1     113.285 128.153 140.462  0.00  0.00    +0.000 A 
ATOM     15  C   UNL     1     113.916 127.649 140.633  0.00  0.00    +0.000 A 
ATOM     16  C   UNL     1     112.767 127.971 139.846  0.00  0.00    +0.000 A 
ATOM     17  C   UNL     1     113.511 126.782 139.573  0.00  0.00    +0.000 A 
ATOM     18  C   UNL     1     114.029 126.964 140.189  0.00  0.00    +0.000 A 
ATOM     19  C   UNL     1     112.881 127.285 139.402  0.00  0.00    +0.000 A 
BRANCH  17  20
ATOM     20  O   UNL     1     113.625 126.096 139.129  0.00  0.00    +0.000 OA
BRANCH  20  21
ATOM     21  C   UNL     1     113.889 126.149 138.348  0.00  0.00    +0.000 C 
BRANCH  21  22
ATOM     22  C   UNL     1     114.211 125.488 137.975  0.00  0.00    +0.000 C 
ATOM     23  C   UNL     1     114.322 125.488 137.158  0.00  0.00    +0.000 C 
ATOM     24  C   UNL     1     114.645 124.827 136.785  0.00  0.00    +0.000 C 
ATOM     25  C   UNL     1     114.109 126.149 136.712  0.00  0.00    +0.000 C 
ENDBRANCH  21  22
ENDBRANCH  20  21
ENDBRANCH  17  20
ENDBRANCH   7  14
BRANCH   8  26
ATOM     26  O   UNL     1     114.083 129.539 140.058  0.00  0.00    +0.000 OA
ATOM     27  C   UNL     1     114.296 130.256 139.708  0.00  0.00    +0.000 C 
ENDBRANCH   8  26
BRANCH  10  28
ATOM     28  O   UNL     1     111.614 128.799 142.863  0.00  0.00    +0.000 OA
ATOM     29  C   UNL     1     110.793 128.798 142.940  0.00  0.00    +0.000 C 
ENDBRANCH  10  28
TORSDOF 6
ENDMDL
MODEL 2
REMARK VINA RESULT:      -7.8      4.789      5.844
REMARK  Name = 44259960
REMARK  6 active torsions:
REMARK  status: ('A' for Active; 'I' for Inactive)
REMARK    1  A    between atoms: O_2  and  C_11
REMARK    2  A    between atoms: O_3  and  C_14
REMARK    3  A    between atoms: O_4  and  C_20
REMARK    4  A    between atoms: O_4  and  C_23
REMARK    5  A    between atoms: C_10  and  C_12
REMARK    6  A    between atoms: C_23  and  C_26
REMARK                            x       y       z     vdW  Elec       q    Type
REMARK                         _______ _______ _______ _____ _____    ______ ____
ROOT
ATOM      1  O   UNL     1     110.413 129.956 136.258  0.00  0.00    +0.000 OA
ATOM      2  O   UNL     1     107.556 130.110 135.849  0.00  0.00    +0.000 OA
ATOM      3  O   UNL     1     108.233 128.838 135.908  0.00  0.00    +0.000 OA
ATOM      4  O   UNL     1     109.116 132.561 136.150  0.00  0.00    +0.000 OA
ATOM      5  C   UNL     1     109.000 130.033 136.056  0.00  0.00    +0.000 A 
ATOM      6  C   UNL     1     109.728 130.407 136.173  0.00  0.00    +0.000 A 
ATOM      7  C   UNL     1     110.372 129.132 136.228  0.00  0.00    +0.000 A 
ATOM      8  C   UNL     1     109.645 128.759 136.111  0.00  0.00    +0.000 A 
ATOM      9  C   UNL     1     108.959 129.211 136.025  0.00  0.00    +0.000 A 
ATOM     10  C   UNL     1     109.783 131.264 136.207  0.00  0.00    +0.000 A 
ATOM     11  C   UNL     1     108.279 130.492 135.965  0.00  0.00    +0.000 A 
ATOM     12  C   UNL     1     109.073 131.738 136.118  0.00  0.00    +0.000 A 
ATOM     13  C   UNL     1     108.315 131.350 135.997  0.00  0.00    +0.000 A 
ENDROOT
BRANCH   7  14
ATOM     14  C   UNL     1     111.057 128.682 136.313  0.00  0.00    +0.000 A 
ATOM     15  C   UNL     1     111.502 128.476 135.649  0.00  0.00    +0.000 A 
ATOM     16  C   UNL     1     111.298 128.436 137.063  0.00  0.00    +0.000 A 
ATOM     17  C   UNL     1     112.428 127.780 136.485  0.00  0.00    +0.000 A 
ATOM     18  C   UNL     1     112.187 128.026 135.735  0.00  0.00    +0.000 A 
ATOM     19  C   UNL     1     111.984 127.986 137.148  0.00  0.00    +0.000 A 
BRANCH  17  20
ATOM     20  O   UNL     1     113.114 127.329 136.570  0.00  0.00    +0.000 OA
BRANCH  20  21
ATOM     21  C   UNL     1     113.063 126.507 136.625  0.00  0.00    +0.000 C 
BRANCH  21  22
ATOM     22  C   UNL     1     113.731 126.064 136.820  0.00  0.00    +0.000 C 
ATOM     23  C   UNL     1     113.703 125.240 136.789  0.00  0.00    +0.000 C 
ATOM     24  C   UNL     1     114.372 124.797 136.983  0.00  0.00    +0.000 C 
ATOM     25  C   UNL     1     113.007 124.859 136.563  0.00  0.00    +0.000 C 
ENDBRANCH  21  22
ENDBRANCH  20  21
ENDBRANCH  17  20
ENDBRANCH   7  14
BRANCH   8  26
ATOM     26  O   UNL     1     109.604 127.936 136.080  0.00  0.00    +0.000 OA
ATOM     27  C   UNL     1     108.910 127.567 135.831  0.00  0.00    +0.000 C 
ENDBRANCH   8  26
BRANCH  10  28
ATOM     28  O   UNL     1     110.514 131.628 136.324  0.00  0.00    +0.000 OA
ATOM     29  C   UNL     1     110.605 132.186 136.924  0.00  0.00    +0.000 C 
ENDBRANCH  10  28
TORSDOF 6
ENDMDL
MODEL 3
REMARK VINA RESULT:      -7.8      4.650      7.001
REMARK  Name = 44259960
REMARK  6 active torsions:
REMARK  status: ('A' for Active; 'I' for Inactive)
REMARK    1  A    between atoms: O_2  and  C_11
REMARK    2  A    between atoms: O_3  and  C_14
REMARK    3  A    between atoms: O_4  and  C_20
REMARK    4  A    between atoms: O_4  and  C_23
REMARK    5  A    between atoms: C_10  and  C_12
REMARK    6  A    between atoms: C_23  and  C_26
REMARK                            x       y       z     vdW  Elec       q    Type
REMARK                         _______ _______ _______ _____ _____    ______ ____
ROOT
ATOM      1  O   UNL     1     112.480 126.394 136.633  0.00  0.00    +0.000 OA
ATOM      2  O   UNL     1     111.761 123.653 136.071  0.00  0.00    +0.000 OA
ATOM      3  O   UNL     1     110.894 124.742 135.695  0.00  0.00    +0.000 OA
ATOM      4  O   UNL     1     114.282 124.247 137.422  0.00  0.00    +0.000 OA
ATOM      5  C   UNL     1     112.125 125.038 136.355  0.00  0.00    +0.000 A 
ATOM      6  C   UNL     1     112.655 125.590 136.668  0.00  0.00    +0.000 A 
ATOM      7  C   UNL     1     111.777 126.650 136.285  0.00  0.00    +0.000 A 
ATOM      8  C   UNL     1     111.248 126.099 135.972  0.00  0.00    +0.000 A 
ATOM      9  C   UNL     1     111.423 125.293 136.008  0.00  0.00    +0.000 A 
ATOM     10  C   UNL     1     113.391 125.336 137.033  0.00  0.00    +0.000 A 
ATOM     11  C   UNL     1     112.296 124.196 136.386  0.00  0.00    +0.000 A 
ATOM     12  C   UNL     1     113.578 124.499 137.073  0.00  0.00    +0.000 A 
ATOM     13  C   UNL     1     113.027 123.925 136.747  0.00  0.00    +0.000 A 
ENDROOT
BRANCH   7  14
ATOM     14  C   UNL     1     111.602 127.455 136.249  0.00  0.00    +0.000 A 
ATOM     15  C   UNL     1     111.173 127.812 136.857  0.00  0.00    +0.000 A 
ATOM     16  C   UNL     1     111.857 127.904 135.606  0.00  0.00    +0.000 A 
ATOM     17  C   UNL     1     111.253 129.066 136.178  0.00  0.00    +0.000 A 
ATOM     18  C   UNL     1     110.998 128.617 136.821  0.00  0.00    +0.000 A 
ATOM     19  C   UNL     1     111.682 128.710 135.571  0.00  0.00    +0.000 A 
BRANCH  17  20
ATOM     20  O   UNL     1     111.078 129.872 136.143  0.00  0.00    +0.000 OA
BRANCH  20  21
ATOM     21  C   UNL     1     110.396 130.129 135.754  0.00  0.00    +0.000 C 
BRANCH  21  22
ATOM     22  C   UNL     1     110.109 130.890 135.887  0.00  0.00    +0.000 C 
ATOM     23  C   UNL     1     109.517 131.198 135.402  0.00  0.00    +0.000 C 
ATOM     24  C   UNL     1     109.229 131.960 135.535  0.00  0.00    +0.000 C 
ATOM     25  C   UNL     1     109.213 130.745 134.783  0.00  0.00    +0.000 C 
ENDBRANCH  21  22
ENDBRANCH  20  21
ENDBRANCH  17  20
ENDBRANCH   7  14
BRANCH   8  26
ATOM     26  O   UNL     1     110.545 126.353 135.624  0.00  0.00    +0.000 OA
ATOM     27  C   UNL     1     110.134 125.855 135.111  0.00  0.00    +0.000 C 
ENDBRANCH   8  26
BRANCH  10  28
ATOM     28  O   UNL     1     113.913 125.895 137.343  0.00  0.00    +0.000 OA
ATOM     29  C   UNL     1     114.186 125.818 138.118  0.00  0.00    +0.000 C 
ENDBRANCH  10  28
TORSDOF 6
ENDMDL
MODEL 4
REMARK VINA RESULT:      -7.7      3.894      4.708
REMARK  Name = 44259960
REMARK  6 active torsions:
REMARK  status: ('A' for Active; 'I' for Inactive)
REMARK    1  A    between atoms: O_2  and  C_11
REMARK    2  A    between atoms: O_3  and  C_14
REMARK    3  A    between atoms: O_4  and  C_20
REMARK    4  A    between atoms: O_4  and  C_23
REMARK    5  A    between atoms: C_10  and  C_12
REMARK    6  A    between atoms: C_23  and  C_26
REMARK                            x       y       z     vdW  Elec       q    Type
REMARK                         _______ _______ _______ _____ _____    ______ ____
ROOT
ATOM      1  O   UNL     1     111.129 130.277 136.555  0.00  0.00    +0.000 OA
ATOM      2  O   UNL     1     110.700 132.459 138.400  0.00  0.00    +0.000 OA
ATOM      3  O   UNL     1     111.609 131.384 138.715  0.00  0.00    +0.000 OA
ATOM      4  O   UNL     1     109.278 132.411 135.850  0.00  0.00    +0.000 OA
ATOM      5  C   UNL     1     110.916 131.356 137.467  0.00  0.00    +0.000 A 
ATOM      6  C   UNL     1     110.756 130.986 136.746  0.00  0.00    +0.000 A 
ATOM      7  C   UNL     1     111.662 129.935 137.084  0.00  0.00    +0.000 A 
ATOM      8  C   UNL     1     111.823 130.304 137.805  0.00  0.00    +0.000 A 
ATOM      9  C   UNL     1     111.449 131.015 137.995  0.00  0.00    +0.000 A 
ATOM     10  C   UNL     1     110.202 131.332 136.187  0.00  0.00    +0.000 A 
ATOM     11  C   UNL     1     110.534 132.097 137.678  0.00  0.00    +0.000 A 
ATOM     12  C   UNL     1     109.810 132.072 136.380  0.00  0.00    +0.000 A 
ATOM     13  C   UNL     1     109.977 132.457 137.131  0.00  0.00    +0.000 A 
ENDROOT
BRANCH   7  14
ATOM     14  C   UNL     1     112.035 129.225 136.893  0.00  0.00    +0.000 A 
ATOM     15  C   UNL     1     111.660 128.506 137.047  0.00  0.00    +0.000 A 
ATOM     16  C   UNL     1     112.784 129.232 136.547  0.00  0.00    +0.000 A 
ATOM     17  C   UNL     1     112.782 127.804 136.510  0.00  0.00    +0.000 A 
ATOM     18  C   UNL     1     112.033 127.796 136.856  0.00  0.00    +0.000 A 
ATOM     19  C   UNL     1     113.157 128.522 136.356  0.00  0.00    +0.000 A 
BRANCH  17  20
ATOM     20  O   UNL     1     113.155 127.093 136.319  0.00  0.00    +0.000 OA
BRANCH  20  21
ATOM     21  C   UNL     1     113.519 126.646 136.911  0.00  0.00    +0.000 C 
BRANCH  21  22
ATOM     22  C   UNL     1     113.940 125.966 136.713  0.00  0.00    +0.000 C 
ATOM     23  C   UNL     1     114.252 125.486 137.308  0.00  0.00    +0.000 C 
ATOM     24  C   UNL     1     114.674 124.805 137.111  0.00  0.00    +0.000 C 
ATOM     25  C   UNL     1     114.142 125.687 138.101  0.00  0.00    +0.000 C 
ENDBRANCH  21  22
ENDBRANCH  20  21
ENDBRANCH  17  20
ENDBRANCH   7  14
BRANCH   8  26
ATOM     26  O   UNL     1     112.356 129.963 138.333  0.00  0.00    +0.000 OA
ATOM     27  C   UNL     1     112.363 130.201 139.123  0.00  0.00    +0.000 C 
ENDBRANCH   8  26
BRANCH  10  28
ATOM     28  O   UNL     1     110.048 130.956 135.469  0.00  0.00    +0.000 OA
ATOM     29  C   UNL     1     109.270 130.804 135.242  0.00  0.00    +0.000 C 
ENDBRANCH  10  28
TORSDOF 6
ENDMDL
MODEL 5
REMARK VINA RESULT:      -7.5      1.821      6.014
REMARK  Name = 44259960
REMARK  6 active torsions:
REMARK  status: ('A' for Active; 'I' for Inactive)
REMARK    1  A    between atoms: O_2  and  C_11
REMARK    2  A    between atoms: O_3  and  C_14
REMARK    3  A    between atoms: O_4  and  C_20
REMARK    4  A    between atoms: O_4  and  C_23
REMARK    5  A    between atoms: C_10  and  C_12
REMARK    6  A    between atoms: C_23  and  C_26
REMARK                            x       y       z     vdW  Elec       q    Type
REMARK                         _______ _______ _______ _____ _____    ______ ____
ROOT
ATOM      1  O   UNL     1     113.151 126.064 138.187  0.00  0.00    +0.000 OA
ATOM      2  O   UNL     1     111.227 124.168 137.160  0.00  0.00    +0.000 OA
ATOM      3  O   UNL     1     110.872 125.099 138.203  0.00  0.00    +0.000 OA
ATOM      4  O   UNL     1     113.941 124.216 136.080  0.00  0.00    +0.000 OA
ATOM      5  C   UNL     1     112.200 125.126 137.678  0.00  0.00    +0.000 A 
ATOM      6  C   UNL     1     112.961 125.448 137.673  0.00  0.00    +0.000 A 
ATOM      7  C   UNL     1     112.582 126.359 138.707  0.00  0.00    +0.000 A 
ATOM      8  C   UNL     1     111.821 126.037 138.712  0.00  0.00    +0.000 A 
ATOM      9  C   UNL     1     111.631 125.421 138.197  0.00  0.00    +0.000 A 
ATOM     10  C   UNL     1     113.562 125.150 137.136  0.00  0.00    +0.000 A 
ATOM     11  C   UNL     1     111.990 124.484 137.147  0.00  0.00    +0.000 A 
ATOM     12  C   UNL     1     113.370 124.508 136.599  0.00  0.00    +0.000 A 
ATOM     13  C   UNL     1     112.578 124.173 136.604  0.00  0.00    +0.000 A 
ENDROOT
BRANCH   7  14
ATOM     14  C   UNL     1     112.772 126.975 139.220  0.00  0.00    +0.000 A 
ATOM     15  C   UNL     1     113.125 126.812 139.948  0.00  0.00    +0.000 A 
ATOM     16  C   UNL     1     112.609 127.755 139.007  0.00  0.00    +0.000 A 
ATOM     17  C   UNL     1     113.152 128.208 140.249  0.00  0.00    +0.000 A 
ATOM     18  C   UNL     1     113.315 127.428 140.462  0.00  0.00    +0.000 A 
ATOM     19  C   UNL     1     112.799 128.372 139.522  0.00  0.00    +0.000 A 
BRANCH  17  20
ATOM     20  O   UNL     1     113.342 128.825 140.764  0.00  0.00    +0.000 OA
BRANCH  20  21
ATOM     21  C   UNL     1     113.928 129.369 140.556  0.00  0.00    +0.000 C 
BRANCH  21  22
ATOM     22  C   UNL     1     114.019 130.062 140.993  0.00  0.00    +0.000 C 
ATOM     23  C   UNL     1     114.665 130.556 140.853  0.00  0.00    +0.000 C 
ATOM     24  C   UNL     1     114.757 131.250 141.290  0.00  0.00    +0.000 C 
ATOM     25  C   UNL     1     115.220 130.356 140.276  0.00  0.00    +0.000 C 
ENDBRANCH  21  22
ENDBRANCH  20  21
ENDBRANCH  17  20
ENDBRANCH   7  14
BRANCH   8  26
ATOM     26  O   UNL     1     111.252 126.332 139.231  0.00  0.00    +0.000 OA
ATOM     27  C   UNL     1     110.498 125.998 139.249  0.00  0.00    +0.000 C 
ENDBRANCH   8  26
BRANCH  10  28
ATOM     28  O   UNL     1     114.319 125.478 137.138  0.00  0.00    +0.000 OA
ATOM     29  C   UNL     1     114.980 124.988 137.199  0.00  0.00    +0.000 C 
ENDBRANCH  10  28
TORSDOF 6
ENDMDL
MODEL 6
REMARK VINA RESULT:      -7.5      2.723      6.257
REMARK  Name = 44259960
REMARK  6 active torsions:
REMARK  status: ('A' for Active; 'I' for Inactive)
REMARK    1  A    between atoms: O_2  and  C_11
REMARK    2  A    between atoms: O_3  and  C_14
REMARK    3  A    between atoms: O_4  and  C_20
REMARK    4  A    between atoms: O_4  and  C_23
REMARK    5  A    between atoms: C_10  and  C_12
REMARK    6  A    between atoms: C_23  and  C_26
REMARK                            x       y       z     vdW  Elec       q    Type
REMARK                         _______ _______ _______ _____ _____    ______ ____
ROOT
ATOM      1  O   UNL     1     112.499 126.382 137.201  0.00  0.00    +0.000 OA
ATOM      2  O   UNL     1     110.577 125.139 135.438  0.00  0.00    +0.000 OA
ATOM      3  O   UNL     1     110.558 126.561 135.676  0.00  0.00    +0.000 OA
ATOM      4  O   UNL     1     112.599 123.504 136.768  0.00  0.00    +0.000 OA
ATOM      5  C   UNL     1     111.549 125.767 136.329  0.00  0.00    +0.000 A 
ATOM      6  C   UNL     1     112.196 125.707 136.838  0.00  0.00    +0.000 A 
ATOM      7  C   UNL     1     112.155 127.119 137.057  0.00  0.00    +0.000 A 
ATOM      8  C   UNL     1     111.507 127.178 136.548  0.00  0.00    +0.000 A 
ATOM      9  C   UNL     1     111.205 126.502 136.185  0.00  0.00    +0.000 A 
ATOM     10  C   UNL     1     112.564 124.946 136.997  0.00  0.00    +0.000 A 
ATOM     11  C   UNL     1     111.224 125.070 135.945  0.00  0.00    +0.000 A 
ATOM     12  C   UNL     1     112.253 124.239 136.621  0.00  0.00    +0.000 A 
ATOM     13  C   UNL     1     111.578 124.301 136.092  0.00  0.00    +0.000 A 
ENDROOT
BRANCH   7  14
ATOM     14  C   UNL     1     112.457 127.794 137.420  0.00  0.00    +0.000 A 
ATOM     15  C   UNL     1     113.077 128.210 137.068  0.00  0.00    +0.000 A 
ATOM     16  C   UNL     1     112.141 128.054 138.136  0.00  0.00    +0.000 A 
ATOM     17  C   UNL     1     113.062 129.146 138.147  0.00  0.00    +0.000 A 
ATOM     18  C   UNL     1     113.379 128.886 137.431  0.00  0.00    +0.000 A 
ATOM     19  C   UNL     1     112.444 128.730 138.499  0.00  0.00    +0.000 A 
BRANCH  17  20
ATOM     20  O   UNL     1     113.365 129.822 138.510  0.00  0.00    +0.000 OA
BRANCH  20  21
ATOM     21  C   UNL     1     113.805 129.755 139.206  0.00  0.00    +0.000 C 
BRANCH  21  22
ATOM     22  C   UNL     1     114.186 130.416 139.518  0.00  0.00    +0.000 C 
ATOM     23  C   UNL     1     114.593 130.357 140.233  0.00  0.00    +0.000 C 
ATOM     24  C   UNL     1     114.976 131.019 140.546  0.00  0.00    +0.000 C 
ATOM     25  C   UNL     1     114.619 129.638 140.636  0.00  0.00    +0.000 C 
ENDBRANCH  21  22
ENDBRANCH  20  21
ENDBRANCH  17  20
ENDBRANCH   7  14
BRANCH   8  26
ATOM     26  O   UNL     1     111.163 127.913 136.403  0.00  0.00    +0.000 OA
ATOM     27  C   UNL     1     110.661 128.014 135.756  0.00  0.00    +0.000 C 
ENDBRANCH   8  26
BRANCH  10  28
ATOM     28  O   UNL     1     113.210 124.896 137.507  0.00  0.00    +0.000 OA
ATOM     29  C   UNL     1     113.913 124.551 137.247  0.00  0.00    +0.000 C 
ENDBRANCH  10  28
TORSDOF 6
ENDMDL
MODEL 7
REMARK VINA RESULT:      -7.5      4.156      4.892
REMARK  Name = 44259960
REMARK  6 active torsions:
REMARK  status: ('A' for Active; 'I' for Inactive)
REMARK    1  A    between atoms: O_2  and  C_11
REMARK    2  A    between atoms: O_3  and  C_14
REMARK    3  A    between atoms: O_4  and  C_20
REMARK    4  A    between atoms: O_4  and  C_23
REMARK    5  A    between atoms: C_10  and  C_12
REMARK    6  A    between atoms: C_23  and  C_26
REMARK                            x       y       z     vdW  Elec       q    Type
REMARK                         _______ _______ _______ _____ _____    ______ ____
ROOT
ATOM      1  O   UNL     1     111.239 130.245 137.158  0.00  0.00    +0.000 OA
ATOM      2  O   UNL     1     109.367 132.144 136.044  0.00  0.00    +0.000 OA
ATOM      3  O   UNL     1     109.788 130.985 135.295  0.00  0.00    +0.000 OA
ATOM      4  O   UNL     1     110.434 132.561 138.730  0.00  0.00    +0.000 OA
ATOM      5  C   UNL     1     110.313 131.185 136.608  0.00  0.00    +0.000 A 
ATOM      6  C   UNL     1     110.797 130.938 137.230  0.00  0.00    +0.000 A 
ATOM      7  C   UNL     1     111.198 129.799 136.466  0.00  0.00    +0.000 A 
ATOM      8  C   UNL     1     110.714 130.045 135.844  0.00  0.00    +0.000 A 
ATOM      9  C   UNL     1     110.272 130.739 135.916  0.00  0.00    +0.000 A 
ATOM     10  C   UNL     1     110.849 131.394 137.957  0.00  0.00    +0.000 A 
ATOM     11  C   UNL     1     109.848 131.905 136.670  0.00  0.00    +0.000 A 
ATOM     12  C   UNL     1     110.391 132.117 138.037  0.00  0.00    +0.000 A 
ATOM     13  C   UNL     1     109.887 132.374 137.389  0.00  0.00    +0.000 A 
ENDROOT
BRANCH   7  14
ATOM     14  C   UNL     1     111.639 129.106 136.394  0.00  0.00    +0.000 A 
ATOM     15  C   UNL     1     111.304 128.380 136.596  0.00  0.00    +0.000 A 
ATOM     16  C   UNL     1     112.417 129.140 136.121  0.00  0.00    +0.000 A 
ATOM     17  C   UNL     1     112.524 127.720 136.251  0.00  0.00    +0.000 A 
ATOM     18  C   UNL     1     111.746 127.687 136.525  0.00  0.00    +0.000 A 
ATOM     19  C   UNL     1     112.859 128.446 136.050  0.00  0.00    +0.000 A 
BRANCH  17  20
ATOM     20  O   UNL     1     112.965 127.027 136.180  0.00  0.00    +0.000 OA
BRANCH  20  21
ATOM     21  C   UNL     1     113.322 126.695 136.847  0.00  0.00    +0.000 C 
BRANCH  21  22
ATOM     22  C   UNL     1     113.830 126.051 136.765  0.00  0.00    +0.000 C 
ATOM     23  C   UNL     1     114.104 125.654 137.434  0.00  0.00    +0.000 C 
ATOM     24  C   UNL     1     114.613 125.009 137.352  0.00  0.00    +0.000 C 
ATOM     25  C   UNL     1     113.870 125.901 138.185  0.00  0.00    +0.000 C 
ENDBRANCH  21  22
ENDBRANCH  20  21
ENDBRANCH  17  20
ENDBRANCH   7  14
BRANCH   8  26
ATOM     26  O   UNL     1     110.672 129.599 135.152  0.00  0.00    +0.000 OA
ATOM     27  C   UNL     1     110.062 129.731 134.612  0.00  0.00    +0.000 C 
ENDBRANCH   8  26
BRANCH  10  28
ATOM     28  O   UNL     1     111.335 131.140 138.572  0.00  0.00    +0.000 OA
ATOM     29  C   UNL     1     111.017 131.016 139.324  0.00  0.00    +0.000 C 
ENDBRANCH  10  28
TORSDOF 6
ENDMDL
MODEL 8
REMARK VINA RESULT:      -7.4      1.139      2.320
REMARK  Name = 44259960
REMARK  6 active torsions:
REMARK  status: ('A' for Active; 'I' for Inactive)
REMARK    1  A    between atoms: O_2  and  C_11
REMARK    2  A    between atoms: O_3  and  C_14
REMARK    3  A    between atoms: O_4  and  C_20
REMARK    4  A    between atoms: O_4  and  C_23
REMARK    5  A    between atoms: C_10  and  C_12
REMARK    6  A    between atoms: C_23  and  C_26
REMARK                            x       y       z     vdW  Elec       q    Type
REMARK                         _______ _______ _______ _____ _____    ______ ____
ROOT
ATOM      1  O   UNL     1     113.061 128.839 140.683  0.00  0.00    +0.000 OA
ATOM      2  O   UNL     1     111.545 129.267 143.106  0.00  0.00    +0.000 OA
ATOM      3  O   UNL     1     111.471 128.016 142.392  0.00  0.00    +0.000 OA
ATOM      4  O   UNL     1     113.261 131.392 142.070  0.00  0.00    +0.000 OA
ATOM      5  C   UNL     1     112.312 129.052 141.881  0.00  0.00    +0.000 A 
ATOM      6  C   UNL     1     112.843 129.326 141.311  0.00  0.00    +0.000 A 
ATOM      7  C   UNL     1     112.751 128.077 140.624  0.00  0.00    +0.000 A 
ATOM      8  C   UNL     1     112.220 127.802 141.194  0.00  0.00    +0.000 A 
ATOM      9  C   UNL     1     112.001 128.290 141.823  0.00  0.00    +0.000 A 
ATOM     10  C   UNL     1     113.173 130.118 141.361  0.00  0.00    +0.000 A 
ATOM     11  C   UNL     1     112.076 129.550 142.541  0.00  0.00    +0.000 A 
ATOM     12  C   UNL     1     112.949 130.631 142.013  0.00  0.00    +0.000 A 
ATOM     13  C   UNL     1     112.396 130.345 142.607  0.00  0.00    +0.000 A 
ENDROOT
BRANCH   7  14
ATOM     14  C   UNL     1     112.970 127.589 139.996  0.00  0.00    +0.000 A 
ATOM     15  C   UNL     1     112.594 127.662 139.266  0.00  0.00    +0.000 A 
ATOM     16  C   UNL     1     113.566 127.028 140.099  0.00  0.00    +0.000 A 
ATOM     17  C   UNL     1     113.408 126.613 138.740  0.00  0.00    +0.000 A 
ATOM     18  C   UNL     1     112.813 127.175 138.638  0.00  0.00    +0.000 A 
ATOM     19  C   UNL     1     113.785 126.540 139.470  0.00  0.00    +0.000 A 
BRANCH  17  20
ATOM     20  O   UNL     1     113.627 126.126 138.112  0.00  0.00    +0.000 OA
BRANCH  20  21
ATOM     21  C   UNL     1     113.122 125.522 137.863  0.00  0.00    +0.000 C 
BRANCH  21  22
ATOM     22  C   UNL     1     113.366 124.995 137.278  0.00  0.00    +0.000 C 
ATOM     23  C   UNL     1     112.844 124.421 136.996  0.00  0.00    +0.000 C 
ATOM     24  C   UNL     1     113.089 123.893 136.410  0.00  0.00    +0.000 C 
ATOM     25  C   UNL     1     112.078 124.375 137.298  0.00  0.00    +0.000 C 
ENDBRANCH  21  22
ENDBRANCH  20  21
ENDBRANCH  17  20
ENDBRANCH   7  14
BRANCH   8  26
ATOM     26  O   UNL     1     111.910 127.040 141.136  0.00  0.00    +0.000 OA
ATOM     27  C   UNL     1     111.154 126.880 141.425  0.00  0.00    +0.000 C 
ENDBRANCH   8  26
BRANCH  10  28
ATOM     28  O   UNL     1     113.702 130.384 140.787  0.00  0.00    +0.000 OA
ATOM     29  C   UNL     1     114.441 130.675 141.011  0.00  0.00    +0.000 C 
ENDBRANCH  10  28
TORSDOF 6
ENDMDL
MODEL 9
REMARK VINA RESULT:      -7.4      2.764      6.305
REMARK  Name = 44259960
REMARK  6 active torsions:
REMARK  status: ('A' for Active; 'I' for Inactive)
REMARK    1  A    between atoms: O_2  and  C_11
REMARK    2  A    between atoms: O_3  and  C_14
REMARK    3  A    between atoms: O_4  and  C_20
REMARK    4  A    between atoms: O_4  and  C_23
REMARK    5  A    between atoms: C_10  and  C_12
REMARK    6  A    between atoms: C_23  and  C_26
REMARK                            x       y       z     vdW  Elec       q    Type
REMARK                         _______ _______ _______ _____ _____    ______ ____
ROOT
ATOM      1  O   UNL     1     111.640 127.108 136.582  0.00  0.00    +0.000 OA
ATOM      2  O   UNL     1     111.726 124.236 136.273  0.00  0.00    +0.000 OA
ATOM      3  O   UNL     1     112.582 124.909 137.218  0.00  0.00    +0.000 OA
ATOM      4  O   UNL     1     109.881 125.818 134.653  0.00  0.00    +0.000 OA
ATOM      5  C   UNL     1     111.682 125.688 136.428  0.00  0.00    +0.000 A 
ATOM      6  C   UNL     1     111.367 126.421 136.216  0.00  0.00    +0.000 A 
ATOM      7  C   UNL     1     112.227 127.063 137.160  0.00  0.00    +0.000 A 
ATOM      8  C   UNL     1     112.541 126.329 137.373  0.00  0.00    +0.000 A 
ATOM      9  C   UNL     1     112.268 125.642 137.006  0.00  0.00    +0.000 A 
ATOM     10  C   UNL     1     110.756 126.482 135.615  0.00  0.00    +0.000 A 
ATOM     11  C   UNL     1     111.406 124.964 136.054  0.00  0.00    +0.000 A 
ATOM     12  C   UNL     1     110.468 125.769 135.230  0.00  0.00    +0.000 A 
ATOM     13  C   UNL     1     110.795 125.006 135.451  0.00  0.00    +0.000 A 
ENDROOT
BRANCH   7  14
ATOM     14  C   UNL     1     112.499 127.749 137.526  0.00  0.00    +0.000 A 
ATOM     15  C   UNL     1     113.126 128.173 137.197  0.00  0.00    +0.000 A 
ATOM     16  C   UNL     1     112.145 128.014 138.223  0.00  0.00    +0.000 A 
ATOM     17  C   UNL     1     113.044 129.124 138.259  0.00  0.00    +0.000 A 
ATOM     18  C   UNL     1     113.399 128.859 137.563  0.00  0.00    +0.000 A 
ATOM     19  C   UNL     1     112.418 128.701 138.589  0.00  0.00    +0.000 A 
BRANCH  17  20
ATOM     20  O   UNL     1     113.318 129.811 138.625  0.00  0.00    +0.000 OA
BRANCH  20  21
ATOM     21  C   UNL     1     113.838 129.759 139.264  0.00  0.00    +0.000 C 
BRANCH  21  22
ATOM     22  C   UNL     1     114.167 130.444 139.584  0.00  0.00    +0.000 C 
ATOM     23  C   UNL     1     114.645 130.397 140.255  0.00  0.00    +0.000 C 
ATOM     24  C   UNL     1     114.975 131.082 140.576  0.00  0.00    +0.000 C 
ATOM     25  C   UNL     1     114.793 129.665 140.606  0.00  0.00    +0.000 C 
ENDBRANCH  21  22
ENDBRANCH  20  21
ENDBRANCH  17  20
ENDBRANCH   7  14
BRANCH   8  26
ATOM     26  O   UNL     1     113.127 126.284 137.951  0.00  0.00    +0.000 OA
ATOM     27  C   UNL     1     113.628 125.628 137.980  0.00  0.00    +0.000 C 
ENDBRANCH   8  26
BRANCH  10  28
ATOM     28  O   UNL     1     110.448 127.219 135.410  0.00  0.00    +0.000 OA
ATOM     29  C   UNL     1     110.369 127.425 134.615  0.00  0.00    +0.000 C 
ENDBRANCH  10  28
TORSDOF 6
ENDMDL
