MODEL 1
REMARK VINA RESULT:     -10.9      0.000      0.000
REMARK  Name = 131752162
REMARK  15 active torsions:
REMARK  status: ('A' for Active; 'I' for Inactive)
REMARK    1  A    between atoms: O_1  and  C_25
REMARK    2  A    between atoms: O_1  and  C_30
REMARK    3  A    between atoms: O_10  and  C_37
REMARK    4  A    between atoms: O_10  and  C_52
REMARK    5  A    between atoms: O_15  and  C_47
REMARK    6  A    between atoms: O_15  and  C_54
REMARK    7  A    between atoms: O_22  and  C_56
REMARK    8  A    between atoms: O_23  and  C_65
REMARK    9  A    between atoms: C_27  and  C_35
REMARK   10  A    between atoms: C_29  and  C_36
REMARK   11  A    between atoms: C_34  and  C_37
REMARK   12  A    between atoms: C_46  and  C_49
REMARK   13  A    between atoms: C_50  and  C_53
REMARK   14  A    between atoms: C_52  and  C_59
REMARK   15  A    between atoms: C_60  and  C_61
REMARK                            x       y       z     vdW  Elec       q    Type
REMARK                         _______ _______ _______ _____ _____    ______ ____
ROOT
ATOM      1  O   UNL     1     112.957 129.336 136.734  0.00  0.00    +0.000 OA
ATOM      2  O   UNL     1     111.203 129.634 135.013  0.00  0.00    +0.000 OA
ATOM      3  O   UNL     1     112.642 128.935 134.612  0.00  0.00    +0.000 OA
ATOM      4  C   UNL     1     111.653 129.785 136.361  0.00  0.00    +0.000 C 
ATOM      5  C   UNL     1     111.787 129.535 135.587  0.00  0.00    +0.000 C 
ATOM      6  C   UNL     1     112.237 129.686 136.935  0.00  0.00    +0.000 C 
ATOM      7  C   UNL     1     112.507 129.185 135.386  0.00  0.00    +0.000 C 
ATOM      8  C   UNL     1     113.091 129.086 135.960  0.00  0.00    +0.000 C 
ENDROOT
BRANCH   6  13
ATOM      9  O   UNL     1     111.928 128.579 138.119  0.00  0.00    +0.000 OA
ATOM     10  O   UNL     1     112.277 131.295 137.299  0.00  0.00    +0.000 OA
ATOM     11  O   UNL     1     111.695 130.713 140.060  0.00  0.00    +0.000 OA
ATOM     12  O   UNL     1     111.636 128.247 139.493  0.00  0.00    +0.000 OA
ATOM     13  C   UNL     1     112.102 129.937 137.709  0.00  0.00    +0.000 A 
ATOM     14  C   UNL     1     111.948 129.384 138.301  0.00  0.00    +0.000 A 
ATOM     15  C   UNL     1     112.123 130.742 137.892  0.00  0.00    +0.000 A 
ATOM     16  C   UNL     1     111.814 129.634 139.076  0.00  0.00    +0.000 A 
ATOM     17  C   UNL     1     111.988 130.992 138.666  0.00  0.00    +0.000 A 
ATOM     18  C   UNL     1     111.834 130.439 139.258  0.00  0.00    +0.000 A 
ATOM     19  C   UNL     1     111.654 129.048 139.683  0.00  0.00    +0.000 A 
ATOM     20  C   UNL     1     111.534 130.142 140.682  0.00  0.00    +0.000 A 
ATOM     21  C   UNL     1     111.513 129.303 140.492  0.00  0.00    +0.000 A 
BRANCH  20  22
ATOM     22  C   UNL     1     111.400 130.396 141.456  0.00  0.00    +0.000 A 
ATOM     23  C   UNL     1     111.131 130.903 143.002  0.00  0.00    +0.000 A 
ATOM     24  C   UNL     1     110.633 130.571 141.704  0.00  0.00    +0.000 A 
ATOM     25  C   UNL     1     110.499 130.825 142.478  0.00  0.00    +0.000 A 
ATOM     26  C   UNL     1     112.032 130.474 141.979  0.00  0.00    +0.000 A 
ATOM     27  C   UNL     1     111.898 130.727 142.752  0.00  0.00    +0.000 A 
BRANCH  25  28
ATOM     28  O   UNL     1     109.732 131.000 142.727  0.00  0.00    +0.000 OA
ATOM     29  C   UNL     1     109.089 130.611 142.388  0.00  0.00    +0.000 C 
ENDBRANCH  25  28
BRANCH  23  30
ATOM     30  O   UNL     1     110.996 131.157 143.775  0.00  0.00    +0.000 OA
BRANCH  30  39
ATOM     31  O   UNL     1     111.614 132.445 143.728  0.00  0.00    +0.000 OA
ATOM     32  O   UNL     1     112.713 131.997 145.900  0.00  0.00    +0.000 OA
ATOM     33  O   UNL     1     112.964 133.434 145.130  0.00  0.00    +0.000 OA
ATOM     34  O   UNL     1     111.729 130.859 145.223  0.00  0.00    +0.000 OA
ATOM     35  C   UNL     1     112.347 132.147 145.176  0.00  0.00    +0.000 C 
ATOM     36  C   UNL     1     112.472 132.864 144.791  0.00  0.00    +0.000 C 
ATOM     37  C   UNL     1     111.855 131.577 144.838  0.00  0.00    +0.000 C 
ATOM     38  C   UNL     1     112.106 133.015 144.067  0.00  0.00    +0.000 C 
ATOM     39  C   UNL     1     111.488 131.726 144.114  0.00  0.00    +0.000 C 
BRANCH  38  41
ATOM     40  O   UNL     1     111.588 134.198 143.458  0.00  0.00    +0.000 OA
ATOM     41  C   UNL     1     112.231 133.733 143.682  0.00  0.00    +0.000 C 
ENDBRANCH  38  41
ENDBRANCH  30  39
ENDBRANCH  23  30
ENDBRANCH  20  22
ENDBRANCH   6  13
BRANCH   8  43
ATOM     42  O   UNL     1     114.521 129.094 135.983  0.00  0.00    +0.000 OA
ATOM     43  C   UNL     1     113.811 128.736 135.759  0.00  0.00    +0.000 C 
ENDBRANCH   8  43
BRANCH   4  44
ATOM     44  O   UNL     1     110.932 130.135 136.562  0.00  0.00    +0.000 OA
BRANCH  44  49
ATOM     45  O   UNL     1     110.154 128.947 136.408  0.00  0.00    +0.000 OA
ATOM     46  O   UNL     1     109.653 131.040 136.046  0.00  0.00    +0.000 OA
ATOM     47  O   UNL     1     108.235 130.305 135.633  0.00  0.00    +0.000 OA
ATOM     48  O   UNL     1     108.096 128.664 135.737  0.00  0.00    +0.000 OA
ATOM     49  C   UNL     1     110.223 129.767 136.356  0.00  0.00    +0.000 C 
ATOM     50  C   UNL     1     109.584 130.219 136.098  0.00  0.00    +0.000 C 
ATOM     51  C   UNL     1     108.875 129.852 135.892  0.00  0.00    +0.000 C 
ATOM     52  C   UNL     1     108.805 129.031 135.944  0.00  0.00    +0.000 C 
ATOM     53  C   UNL     1     109.445 128.578 136.202  0.00  0.00    +0.000 C 
BRANCH  53  54
ATOM     54  C   UNL     1     109.375 127.759 136.254  0.00  0.00    +0.000 C 
BRANCH  54  55
ATOM     55  O   UNL     1     109.818 127.341 136.812  0.00  0.00    +0.000 OA
BRANCH  55  57
ATOM     56  O   UNL     1     109.134 126.095 136.961  0.00  0.00    +0.000 OA
ATOM     57  C   UNL     1     109.825 126.517 136.799  0.00  0.00    +0.000 C 
BRANCH  57  58
ATOM     58  C   UNL     1     110.523 126.112 136.626  0.00  0.00    +0.000 C 
ATOM     59  C   UNL     1     110.854 125.601 137.182  0.00  0.00    +0.000 C 
BRANCH  59  61
ATOM     60  O   UNL     1     113.647 123.986 136.489  0.00  0.00    +0.000 OA
ATOM     61  C   UNL     1     111.552 125.197 137.008  0.00  0.00    +0.000 A 
ATOM     62  C   UNL     1     112.281 125.532 137.200  0.00  0.00    +0.000 A 
ATOM     63  C   UNL     1     111.521 124.458 136.643  0.00  0.00    +0.000 A 
ATOM     64  C   UNL     1     112.979 125.129 137.027  0.00  0.00    +0.000 A 
ATOM     65  C   UNL     1     112.219 124.055 136.470  0.00  0.00    +0.000 A 
ATOM     66  C   UNL     1     112.948 124.390 136.662  0.00  0.00    +0.000 A 
BRANCH  64  67
ATOM     67  O   UNL     1     113.708 125.464 137.219  0.00  0.00    +0.000 OA
ATOM     68  C   UNL     1     113.849 125.734 137.985  0.00  0.00    +0.000 C 
ENDBRANCH  64  67
ENDBRANCH  59  61
ENDBRANCH  57  58
ENDBRANCH  55  57
ENDBRANCH  54  55
ENDBRANCH  53  54
ENDBRANCH  44  49
ENDBRANCH   4  44
TORSDOF 15
ENDMDL
MODEL 2
REMARK VINA RESULT:     -10.5      3.250      6.511
REMARK  Name = 131752162
REMARK  15 active torsions:
REMARK  status: ('A' for Active; 'I' for Inactive)
REMARK    1  A    between atoms: O_1  and  C_25
REMARK    2  A    between atoms: O_1  and  C_30
REMARK    3  A    between atoms: O_10  and  C_37
REMARK    4  A    between atoms: O_10  and  C_52
REMARK    5  A    between atoms: O_15  and  C_47
REMARK    6  A    between atoms: O_15  and  C_54
REMARK    7  A    between atoms: O_22  and  C_56
REMARK    8  A    between atoms: O_23  and  C_65
REMARK    9  A    between atoms: C_27  and  C_35
REMARK   10  A    between atoms: C_29  and  C_36
REMARK   11  A    between atoms: C_34  and  C_37
REMARK   12  A    between atoms: C_46  and  C_49
REMARK   13  A    between atoms: C_50  and  C_53
REMARK   14  A    between atoms: C_52  and  C_59
REMARK   15  A    between atoms: C_60  and  C_61
REMARK                            x       y       z     vdW  Elec       q    Type
REMARK                         _______ _______ _______ _____ _____    ______ ____
ROOT
ATOM      1  O   UNL     1     113.324 125.560 137.702  0.00  0.00    +0.000 OA
ATOM      2  O   UNL     1     113.643 127.406 136.086  0.00  0.00    +0.000 OA
ATOM      3  O   UNL     1     114.846 126.304 136.325  0.00  0.00    +0.000 OA
ATOM      4  C   UNL     1     112.829 126.727 137.043  0.00  0.00    +0.000 C 
ATOM      5  C   UNL     1     113.537 126.791 136.624  0.00  0.00    +0.000 C 
ATOM      6  C   UNL     1     112.723 126.112 137.582  0.00  0.00    +0.000 C 
ATOM      7  C   UNL     1     114.138 126.240 136.744  0.00  0.00    +0.000 C 
ATOM      8  C   UNL     1     114.032 125.624 137.283  0.00  0.00    +0.000 C 
ENDROOT
BRANCH   6  13
ATOM      9  O   UNL     1     112.672 126.507 139.183  0.00  0.00    +0.000 OA
ATOM     10  O   UNL     1     111.358 125.586 136.818  0.00  0.00    +0.000 OA
ATOM     11  O   UNL     1     109.855 125.845 139.263  0.00  0.00    +0.000 OA
ATOM     12  O   UNL     1     111.955 126.650 140.427  0.00  0.00    +0.000 OA
ATOM     13  C   UNL     1     112.015 126.047 138.001  0.00  0.00    +0.000 A 
ATOM     14  C   UNL     1     111.989 126.244 138.801  0.00  0.00    +0.000 A 
ATOM     15  C   UNL     1     111.332 125.784 137.619  0.00  0.00    +0.000 A 
ATOM     16  C   UNL     1     111.282 126.180 139.221  0.00  0.00    +0.000 A 
ATOM     17  C   UNL     1     110.624 125.719 138.037  0.00  0.00    +0.000 A 
ATOM     18  C   UNL     1     110.598 125.917 138.838  0.00  0.00    +0.000 A 
ATOM     19  C   UNL     1     111.268 126.389 140.054  0.00  0.00    +0.000 A 
ATOM     20  C   UNL     1     109.822 126.049 140.097  0.00  0.00    +0.000 A 
ATOM     21  C   UNL     1     110.534 126.323 140.495  0.00  0.00    +0.000 A 
BRANCH  20  22
ATOM     22  C   UNL     1     109.113 125.983 140.514  0.00  0.00    +0.000 A 
ATOM     23  C   UNL     1     107.695 125.853 141.346  0.00  0.00    +0.000 A 
ATOM     24  C   UNL     1     108.708 126.663 140.747  0.00  0.00    +0.000 A 
ATOM     25  C   UNL     1     107.999 126.598 141.163  0.00  0.00    +0.000 A 
ATOM     26  C   UNL     1     108.810 125.238 140.697  0.00  0.00    +0.000 A 
ATOM     27  C   UNL     1     108.101 125.173 141.113  0.00  0.00    +0.000 A 
BRANCH  25  28
ATOM     28  O   UNL     1     107.593 127.277 141.396  0.00  0.00    +0.000 OA
ATOM     29  C   UNL     1     108.011 127.937 141.660  0.00  0.00    +0.000 C 
ENDBRANCH  25  28
BRANCH  23  30
ATOM     30  O   UNL     1     106.986 125.787 141.762  0.00  0.00    +0.000 OA
BRANCH  30  39
ATOM     31  O   UNL     1     106.176 125.212 140.735  0.00  0.00    +0.000 OA
ATOM     32  O   UNL     1     105.191 123.653 142.386  0.00  0.00    +0.000 OA
ATOM     33  O   UNL     1     104.709 123.597 140.809  0.00  0.00    +0.000 OA
ATOM     34  O   UNL     1     106.329 124.748 142.862  0.00  0.00    +0.000 OA
ATOM     35  C   UNL     1     105.519 124.172 141.835  0.00  0.00    +0.000 C 
ATOM     36  C   UNL     1     105.279 124.144 141.048  0.00  0.00    +0.000 C 
ATOM     37  C   UNL     1     106.088 124.720 142.074  0.00  0.00    +0.000 C 
ATOM     38  C   UNL     1     105.606 124.663 140.497  0.00  0.00    +0.000 C 
ATOM     39  C   UNL     1     106.417 125.240 141.524  0.00  0.00    +0.000 C 
BRANCH  38  41
ATOM     40  O   UNL     1     105.331 125.329 139.264  0.00  0.00    +0.000 OA
ATOM     41  C   UNL     1     105.366 124.635 139.708  0.00  0.00    +0.000 C 
ENDBRANCH  38  41
ENDBRANCH  30  39
ENDBRANCH  23  30
ENDBRANCH  20  22
ENDBRANCH   6  13
BRANCH   8  43
ATOM     42  O   UNL     1     114.458 124.266 137.414  0.00  0.00    +0.000 OA
ATOM     43  C   UNL     1     114.633 125.073 137.403  0.00  0.00    +0.000 C 
ENDBRANCH   8  43
BRANCH   4  44
ATOM     44  O   UNL     1     112.226 127.279 136.923  0.00  0.00    +0.000 OA
BRANCH  44  49
ATOM     45  O   UNL     1     112.825 128.403 137.571  0.00  0.00    +0.000 OA
ATOM     46  O   UNL     1     111.711 128.259 135.700  0.00  0.00    +0.000 OA
ATOM     47  O   UNL     1     112.053 129.873 135.736  0.00  0.00    +0.000 OA
ATOM     48  O   UNL     1     112.909 130.507 136.996  0.00  0.00    +0.000 OA
ATOM     49  C   UNL     1     112.398 128.086 136.942  0.00  0.00    +0.000 C 
ATOM     50  C   UNL     1     112.140 128.576 136.330  0.00  0.00    +0.000 C 
ATOM     51  C   UNL     1     112.310 129.383 136.348  0.00  0.00    +0.000 C 
ATOM     52  C   UNL     1     112.739 129.700 136.978  0.00  0.00    +0.000 C 
ATOM     53  C   UNL     1     112.996 129.210 137.590  0.00  0.00    +0.000 C 
BRANCH  53  54
ATOM     54  C   UNL     1     113.424 129.527 138.219  0.00  0.00    +0.000 C 
BRANCH  54  55
ATOM     55  O   UNL     1     113.177 129.395 138.995  0.00  0.00    +0.000 OA
BRANCH  55  57
ATOM     56  O   UNL     1     114.423 129.730 139.608  0.00  0.00    +0.000 OA
ATOM     57  C   UNL     1     113.598 129.722 139.624  0.00  0.00    +0.000 C 
BRANCH  57  58
ATOM     58  C   UNL     1     113.195 130.041 140.270  0.00  0.00    +0.000 C 
ATOM     59  C   UNL     1     113.334 129.750 141.028  0.00  0.00    +0.000 C 
BRANCH  59  61
ATOM     60  O   UNL     1     111.722 131.024 143.611  0.00  0.00    +0.000 OA
ATOM     61  C   UNL     1     112.931 130.069 141.674  0.00  0.00    +0.000 A 
ATOM     62  C   UNL     1     112.408 129.600 142.107  0.00  0.00    +0.000 A 
ATOM     63  C   UNL     1     113.050 130.856 141.887  0.00  0.00    +0.000 A 
ATOM     64  C   UNL     1     112.005 129.917 142.752  0.00  0.00    +0.000 A 
ATOM     65  C   UNL     1     112.648 131.175 142.532  0.00  0.00    +0.000 A 
ATOM     66  C   UNL     1     112.125 130.705 142.965  0.00  0.00    +0.000 A 
BRANCH  64  67
ATOM     67  O   UNL     1     111.482 129.448 143.185  0.00  0.00    +0.000 OA
ATOM     68  C   UNL     1     111.583 128.630 143.205  0.00  0.00    +0.000 C 
ENDBRANCH  64  67
ENDBRANCH  59  61
ENDBRANCH  57  58
ENDBRANCH  55  57
ENDBRANCH  54  55
ENDBRANCH  53  54
ENDBRANCH  44  49
ENDBRANCH   4  44
TORSDOF 15
ENDMDL
MODEL 3
REMARK VINA RESULT:     -10.2      1.506      4.084
REMARK  Name = 131752162
REMARK  15 active torsions:
REMARK  status: ('A' for Active; 'I' for Inactive)
REMARK    1  A    between atoms: O_1  and  C_25
REMARK    2  A    between atoms: O_1  and  C_30
REMARK    3  A    between atoms: O_10  and  C_37
REMARK    4  A    between atoms: O_10  and  C_52
REMARK    5  A    between atoms: O_15  and  C_47
REMARK    6  A    between atoms: O_15  and  C_54
REMARK    7  A    between atoms: O_22  and  C_56
REMARK    8  A    between atoms: O_23  and  C_65
REMARK    9  A    between atoms: C_27  and  C_35
REMARK   10  A    between atoms: C_29  and  C_36
REMARK   11  A    between atoms: C_34  and  C_37
REMARK   12  A    between atoms: C_46  and  C_49
REMARK   13  A    between atoms: C_50  and  C_53
REMARK   14  A    between atoms: C_52  and  C_59
REMARK   15  A    between atoms: C_60  and  C_61
REMARK                            x       y       z     vdW  Elec       q    Type
REMARK                         _______ _______ _______ _____ _____    ______ ____
ROOT
ATOM      1  O   UNL     1     113.556 125.959 137.923  0.00  0.00    +0.000 OA
ATOM      2  O   UNL     1     111.957 125.468 136.100  0.00  0.00    +0.000 OA
ATOM      3  O   UNL     1     113.549 125.073 135.929  0.00  0.00    +0.000 OA
ATOM      4  C   UNL     1     112.227 125.992 137.402  0.00  0.00    +0.000 C 
ATOM      5  C   UNL     1     112.490 125.631 136.708  0.00  0.00    +0.000 C 
ATOM      6  C   UNL     1     112.760 126.156 138.009  0.00  0.00    +0.000 C 
ATOM      7  C   UNL     1     113.286 125.434 136.622  0.00  0.00    +0.000 C 
ATOM      8  C   UNL     1     113.819 125.598 137.230  0.00  0.00    +0.000 C 
ENDROOT
BRANCH   6  13
ATOM      9  O   UNL     1     113.139 127.732 138.315  0.00  0.00    +0.000 OA
ATOM     10  O   UNL     1     111.854 125.300 139.091  0.00  0.00    +0.000 OA
ATOM     11  O   UNL     1     111.691 127.601 140.818  0.00  0.00    +0.000 OA
ATOM     12  O   UNL     1     113.080 128.907 139.152  0.00  0.00    +0.000 OA
ATOM     13  C   UNL     1     112.497 126.517 138.703  0.00  0.00    +0.000 A 
ATOM     14  C   UNL     1     112.686 127.304 138.856  0.00  0.00    +0.000 A 
ATOM     15  C   UNL     1     112.044 126.089 139.245  0.00  0.00    +0.000 A 
ATOM     16  C   UNL     1     112.424 127.666 139.550  0.00  0.00    +0.000 A 
ATOM     17  C   UNL     1     111.781 126.449 139.938  0.00  0.00    +0.000 A 
ATOM     18  C   UNL     1     111.970 127.237 140.092  0.00  0.00    +0.000 A 
ATOM     19  C   UNL     1     112.628 128.487 139.698  0.00  0.00    +0.000 A 
ATOM     20  C   UNL     1     111.885 128.422 140.983  0.00  0.00    +0.000 A 
ATOM     21  C   UNL     1     112.357 128.868 140.419  0.00  0.00    +0.000 A 
BRANCH  20  22
ATOM     22  C   UNL     1     111.621 128.780 141.678  0.00  0.00    +0.000 A 
ATOM     23  C   UNL     1     111.091 129.495 143.067  0.00  0.00    +0.000 A 
ATOM     24  C   UNL     1     110.819 128.950 141.774  0.00  0.00    +0.000 A 
ATOM     25  C   UNL     1     110.555 129.308 142.469  0.00  0.00    +0.000 A 
ATOM     26  C   UNL     1     112.158 128.967 142.276  0.00  0.00    +0.000 A 
ATOM     27  C   UNL     1     111.893 129.324 142.970  0.00  0.00    +0.000 A 
BRANCH  25  28
ATOM     28  O   UNL     1     109.754 129.479 142.566  0.00  0.00    +0.000 OA
ATOM     29  C   UNL     1     109.187 129.055 142.141  0.00  0.00    +0.000 C 
ENDBRANCH  25  28
BRANCH  23  30
ATOM     30  O   UNL     1     110.827 129.853 143.761  0.00  0.00    +0.000 OA
BRANCH  30  39
ATOM     31  O   UNL     1     111.402 131.150 143.586  0.00  0.00    +0.000 OA
ATOM     32  O   UNL     1     112.098 131.161 145.962  0.00  0.00    +0.000 OA
ATOM     33  O   UNL     1     112.440 132.454 144.995  0.00  0.00    +0.000 OA
ATOM     34  O   UNL     1     111.291 129.861 145.345  0.00  0.00    +0.000 OA
ATOM     35  C   UNL     1     111.866 131.158 145.170  0.00  0.00    +0.000 C 
ATOM     36  C   UNL     1     112.037 131.803 144.687  0.00  0.00    +0.000 C 
ATOM     37  C   UNL     1     111.462 130.508 144.861  0.00  0.00    +0.000 C 
ATOM     38  C   UNL     1     111.806 131.800 143.896  0.00  0.00    +0.000 C 
ATOM     39  C   UNL     1     111.230 130.503 144.070  0.00  0.00    +0.000 C 
BRANCH  38  41
ATOM     40  O   UNL     1     111.479 132.633 142.782  0.00  0.00    +0.000 OA
ATOM     41  C   UNL     1     111.977 132.447 143.412  0.00  0.00    +0.000 C 
ENDBRANCH  38  41
ENDBRANCH  30  39
ENDBRANCH  23  30
ENDBRANCH  20  22
ENDBRANCH   6  13
BRANCH   8  43
ATOM     42  O   UNL     1     115.018 125.032 137.764  0.00  0.00    +0.000 OA
ATOM     43  C   UNL     1     114.615 125.401 137.145  0.00  0.00    +0.000 C 
ENDBRANCH   8  43
BRANCH   4  44
ATOM     44  O   UNL     1     111.430 126.190 137.487  0.00  0.00    +0.000 OA
BRANCH  44  49
ATOM     45  O   UNL     1     111.329 127.323 136.623  0.00  0.00    +0.000 OA
ATOM     46  O   UNL     1     110.067 125.552 136.809  0.00  0.00    +0.000 OA
ATOM     47  O   UNL     1     109.286 126.366 135.606  0.00  0.00    +0.000 OA
ATOM     48  O   UNL     1     109.866 127.819 135.081  0.00  0.00    +0.000 OA
ATOM     49  C   UNL     1     111.039 126.598 136.886  0.00  0.00    +0.000 C 
ATOM     50  C   UNL     1     110.358 126.279 136.546  0.00  0.00    +0.000 C 
ATOM     51  C   UNL     1     109.967 126.685 135.945  0.00  0.00    +0.000 C 
ATOM     52  C   UNL     1     110.257 127.412 135.682  0.00  0.00    +0.000 C 
ATOM     53  C   UNL     1     110.938 127.731 136.021  0.00  0.00    +0.000 C 
BRANCH  53  54
ATOM     54  C   UNL     1     111.228 128.457 135.759  0.00  0.00    +0.000 C 
BRANCH  54  55
ATOM     55  O   UNL     1     111.351 129.072 136.296  0.00  0.00    +0.000 OA
BRANCH  55  57
ATOM     56  O   UNL     1     112.213 129.864 135.476  0.00  0.00    +0.000 OA
ATOM     57  C   UNL     1     111.600 129.810 136.028  0.00  0.00    +0.000 C 
BRANCH  57  58
ATOM     58  C   UNL     1     111.238 130.496 136.310  0.00  0.00    +0.000 C 
ATOM     59  C   UNL     1     111.510 130.852 137.002  0.00  0.00    +0.000 C 
BRANCH  59  61
ATOM     60  O   UNL     1     110.062 133.594 138.132  0.00  0.00    +0.000 OA
ATOM     61  C   UNL     1     111.148 131.538 137.284  0.00  0.00    +0.000 A 
ATOM     62  C   UNL     1     110.816 131.548 138.039  0.00  0.00    +0.000 A 
ATOM     63  C   UNL     1     111.118 132.213 136.812  0.00  0.00    +0.000 A 
ATOM     64  C   UNL     1     110.454 132.233 138.322  0.00  0.00    +0.000 A 
ATOM     65  C   UNL     1     110.756 132.898 137.094  0.00  0.00    +0.000 A 
ATOM     66  C   UNL     1     110.424 132.908 137.849  0.00  0.00    +0.000 A 
BRANCH  64  67
ATOM     67  O   UNL     1     110.122 132.242 139.077  0.00  0.00    +0.000 OA
ATOM     68  C   UNL     1     109.987 131.534 139.477  0.00  0.00    +0.000 C 
ENDBRANCH  64  67
ENDBRANCH  59  61
ENDBRANCH  57  58
ENDBRANCH  55  57
ENDBRANCH  54  55
ENDBRANCH  53  54
ENDBRANCH  44  49
ENDBRANCH   4  44
TORSDOF 15
ENDMDL
MODEL 4
REMARK VINA RESULT:     -10.2      2.743      8.439
REMARK  Name = 131752162
REMARK  15 active torsions:
REMARK  status: ('A' for Active; 'I' for Inactive)
REMARK    1  A    between atoms: O_1  and  C_25
REMARK    2  A    between atoms: O_1  and  C_30
REMARK    3  A    between atoms: O_10  and  C_37
REMARK    4  A    between atoms: O_10  and  C_52
REMARK    5  A    between atoms: O_15  and  C_47
REMARK    6  A    between atoms: O_15  and  C_54
REMARK    7  A    between atoms: O_22  and  C_56
REMARK    8  A    between atoms: O_23  and  C_65
REMARK    9  A    between atoms: C_27  and  C_35
REMARK   10  A    between atoms: C_29  and  C_36
REMARK   11  A    between atoms: C_34  and  C_37
REMARK   12  A    between atoms: C_46  and  C_49
REMARK   13  A    between atoms: C_50  and  C_53
REMARK   14  A    between atoms: C_52  and  C_59
REMARK   15  A    between atoms: C_60  and  C_61
REMARK                            x       y       z     vdW  Elec       q    Type
REMARK                         _______ _______ _______ _____ _____    ______ ____
ROOT
ATOM      1  O   UNL     1     107.335 127.037 143.481  0.00  0.00    +0.000 OA
ATOM      2  O   UNL     1     105.800 128.970 143.306  0.00  0.00    +0.000 OA
ATOM      3  O   UNL     1     105.674 127.930 144.579  0.00  0.00    +0.000 OA
ATOM      4  C   UNL     1     106.887 128.202 142.786  0.00  0.00    +0.000 C 
ATOM      5  C   UNL     1     106.312 128.326 143.364  0.00  0.00    +0.000 C 
ATOM      6  C   UNL     1     107.398 127.558 142.844  0.00  0.00    +0.000 C 
ATOM      7  C   UNL     1     106.248 127.806 144.001  0.00  0.00    +0.000 C 
ATOM      8  C   UNL     1     106.761 127.162 144.059  0.00  0.00    +0.000 C 
ENDROOT
BRANCH   6  13
ATOM      9  O   UNL     1     108.963 127.998 143.126  0.00  0.00    +0.000 OA
ATOM     10  O   UNL     1     106.982 126.868 141.404  0.00  0.00    +0.000 OA
ATOM     11  O   UNL     1     109.711 127.047 140.497  0.00  0.00    +0.000 OA
ATOM     12  O   UNL     1     110.341 128.106 142.709  0.00  0.00    +0.000 OA
ATOM     13  C   UNL     1     107.973 127.433 142.265  0.00  0.00    +0.000 A 
ATOM     14  C   UNL     1     108.755 127.653 142.406  0.00  0.00    +0.000 A 
ATOM     15  C   UNL     1     107.765 127.088 141.545  0.00  0.00    +0.000 A 
ATOM     16  C   UNL     1     109.330 127.528 141.828  0.00  0.00    +0.000 A 
ATOM     17  C   UNL     1     108.339 126.963 140.967  0.00  0.00    +0.000 A 
ATOM     18  C   UNL     1     109.122 127.183 141.107  0.00  0.00    +0.000 A 
ATOM     19  C   UNL     1     110.141 127.761 141.987  0.00  0.00    +0.000 A 
ATOM     20  C   UNL     1     110.528 127.274 140.638  0.00  0.00    +0.000 A 
ATOM     21  C   UNL     1     110.745 127.634 141.388  0.00  0.00    +0.000 A 
BRANCH  20  22
ATOM     22  C   UNL     1     111.101 127.148 140.057  0.00  0.00    +0.000 A 
ATOM     23  C   UNL     1     112.245 126.897 138.896  0.00  0.00    +0.000 A 
ATOM     24  C   UNL     1     111.195 127.695 139.447  0.00  0.00    +0.000 A 
ATOM     25  C   UNL     1     111.768 127.569 138.866  0.00  0.00    +0.000 A 
ATOM     26  C   UNL     1     111.578 126.476 140.088  0.00  0.00    +0.000 A 
ATOM     27  C   UNL     1     112.150 126.350 139.508  0.00  0.00    +0.000 A 
BRANCH  25  28
ATOM     28  O   UNL     1     111.863 128.115 138.255  0.00  0.00    +0.000 OA
ATOM     29  C   UNL     1     111.632 128.899 138.364  0.00  0.00    +0.000 C 
ENDBRANCH  25  28
BRANCH  23  30
ATOM     30  O   UNL     1     112.818 126.771 138.316  0.00  0.00    +0.000 OA
BRANCH  30  39
ATOM     31  O   UNL     1     112.195 125.695 137.611  0.00  0.00    +0.000 OA
ATOM     32  O   UNL     1     114.374 124.529 137.468  0.00  0.00    +0.000 OA
ATOM     33  O   UNL     1     113.026 123.841 136.812  0.00  0.00    +0.000 OA
ATOM     34  O   UNL     1     114.270 125.993 138.220  0.00  0.00    +0.000 OA
ATOM     35  C   UNL     1     113.647 124.917 137.516  0.00  0.00    +0.000 C 
ATOM     36  C   UNL     1     112.974 124.574 137.188  0.00  0.00    +0.000 C 
ATOM     37  C   UNL     1     113.595 125.650 137.892  0.00  0.00    +0.000 C 
ATOM     38  C   UNL     1     112.247 124.961 137.235  0.00  0.00    +0.000 C 
ATOM     39  C   UNL     1     112.869 126.038 137.939  0.00  0.00    +0.000 C 
BRANCH  38  41
ATOM     40  O   UNL     1     111.044 125.080 136.474  0.00  0.00    +0.000 OA
ATOM     41  C   UNL     1     111.573 124.618 136.906  0.00  0.00    +0.000 C 
ENDBRANCH  38  41
ENDBRANCH  30  39
ENDBRANCH  23  30
ENDBRANCH  20  22
ENDBRANCH   6  13
BRANCH   8  43
ATOM     42  O   UNL     1     106.783 125.829 144.576  0.00  0.00    +0.000 OA
ATOM     43  C   UNL     1     106.698 126.641 144.696  0.00  0.00    +0.000 C 
ENDBRANCH   8  43
BRANCH   4  44
ATOM     44  O   UNL     1     106.950 128.722 142.148  0.00  0.00    +0.000 OA
BRANCH  44  49
ATOM     45  O   UNL     1     107.363 129.841 142.935  0.00  0.00    +0.000 OA
ATOM     46  O   UNL     1     106.183 129.742 141.102  0.00  0.00    +0.000 OA
ATOM     47  O   UNL     1     106.212 131.371 141.366  0.00  0.00    +0.000 OA
ATOM     48  O   UNL     1     107.009 131.979 142.677  0.00  0.00    +0.000 OA
ATOM     49  C   UNL     1     106.965 129.537 142.281  0.00  0.00    +0.000 C 
ATOM     50  C   UNL     1     106.581 130.047 141.758  0.00  0.00    +0.000 C 
ATOM     51  C   UNL     1     106.596 130.861 141.889  0.00  0.00    +0.000 C 
ATOM     52  C   UNL     1     106.994 131.165 142.545  0.00  0.00    +0.000 C 
ATOM     53  C   UNL     1     107.378 130.655 143.068  0.00  0.00    +0.000 C 
BRANCH  53  54
ATOM     54  C   UNL     1     107.776 130.959 143.723  0.00  0.00    +0.000 C 
BRANCH  54  55
ATOM     55  O   UNL     1     108.574 130.785 143.840  0.00  0.00    +0.000 OA
BRANCH  55  57
ATOM     56  O   UNL     1     108.599 130.585 145.254  0.00  0.00    +0.000 OA
ATOM     57  C   UNL     1     108.923 130.921 144.574  0.00  0.00    +0.000 C 
BRANCH  57  58
ATOM     58  C   UNL     1     109.598 131.394 144.629  0.00  0.00    +0.000 C 
ATOM     59  C   UNL     1     110.328 131.053 144.803  0.00  0.00    +0.000 C 
BRANCH  59  61
ATOM     60  O   UNL     1     113.024 132.943 145.022  0.00  0.00    +0.000 OA
ATOM     61  C   UNL     1     111.002 131.526 144.858  0.00  0.00    +0.000 A 
ATOM     62  C   UNL     1     111.506 131.603 144.209  0.00  0.00    +0.000 A 
ATOM     63  C   UNL     1     111.172 131.921 145.561  0.00  0.00    +0.000 A 
ATOM     64  C   UNL     1     112.180 132.075 144.263  0.00  0.00    +0.000 A 
ATOM     65  C   UNL     1     111.846 132.393 145.616  0.00  0.00    +0.000 A 
ATOM     66  C   UNL     1     112.350 132.470 144.967  0.00  0.00    +0.000 A 
BRANCH  64  67
ATOM     67  O   UNL     1     112.683 132.152 143.614  0.00  0.00    +0.000 OA
ATOM     68  C   UNL     1     112.539 131.720 142.927  0.00  0.00    +0.000 C 
ENDBRANCH  64  67
ENDBRANCH  59  61
ENDBRANCH  57  58
ENDBRANCH  55  57
ENDBRANCH  54  55
ENDBRANCH  53  54
ENDBRANCH  44  49
ENDBRANCH   4  44
TORSDOF 15
ENDMDL
MODEL 5
REMARK VINA RESULT:     -10.2      2.914      4.335
REMARK  Name = 131752162
REMARK  15 active torsions:
REMARK  status: ('A' for Active; 'I' for Inactive)
REMARK    1  A    between atoms: O_1  and  C_25
REMARK    2  A    between atoms: O_1  and  C_30
REMARK    3  A    between atoms: O_10  and  C_37
REMARK    4  A    between atoms: O_10  and  C_52
REMARK    5  A    between atoms: O_15  and  C_47
REMARK    6  A    between atoms: O_15  and  C_54
REMARK    7  A    between atoms: O_22  and  C_56
REMARK    8  A    between atoms: O_23  and  C_65
REMARK    9  A    between atoms: C_27  and  C_35
REMARK   10  A    between atoms: C_29  and  C_36
REMARK   11  A    between atoms: C_34  and  C_37
REMARK   12  A    between atoms: C_46  and  C_49
REMARK   13  A    between atoms: C_50  and  C_53
REMARK   14  A    between atoms: C_52  and  C_59
REMARK   15  A    between atoms: C_60  and  C_61
REMARK                            x       y       z     vdW  Elec       q    Type
REMARK                         _______ _______ _______ _____ _____    ______ ____
ROOT
ATOM      1  O   UNL     1     111.553 130.371 138.775  0.00  0.00    +0.000 OA
ATOM      2  O   UNL     1     110.664 131.599 136.820  0.00  0.00    +0.000 OA
ATOM      3  O   UNL     1     112.251 131.154 136.862  0.00  0.00    +0.000 OA
ATOM      4  C   UNL     1     110.463 131.003 138.103  0.00  0.00    +0.000 C 
ATOM      5  C   UNL     1     110.960 131.190 137.472  0.00  0.00    +0.000 C 
ATOM      6  C   UNL     1     110.759 130.594 138.755  0.00  0.00    +0.000 C 
ATOM      7  C   UNL     1     111.754 130.967 137.493  0.00  0.00    +0.000 C 
ATOM      8  C   UNL     1     112.050 130.557 138.145  0.00  0.00    +0.000 C 
ENDROOT
BRANCH   6  13
ATOM      9  O   UNL     1     110.174 129.060 138.920  0.00  0.00    +0.000 OA
ATOM     10  O   UNL     1     110.349 131.755 139.853  0.00  0.00    +0.000 OA
ATOM     11  O   UNL     1     108.751 129.853 141.312  0.00  0.00    +0.000 OA
ATOM     12  O   UNL     1     109.384 128.077 139.622  0.00  0.00    +0.000 OA
ATOM     13  C   UNL     1     110.262 130.407 139.386  0.00  0.00    +0.000 A 
ATOM     14  C   UNL     1     109.969 129.640 139.469  0.00  0.00    +0.000 A 
ATOM     15  C   UNL     1     110.057 130.988 139.936  0.00  0.00    +0.000 A 
ATOM     16  C   UNL     1     109.472 129.453 140.100  0.00  0.00    +0.000 A 
ATOM     17  C   UNL     1     109.560 130.802 140.567  0.00  0.00    +0.000 A 
ATOM     18  C   UNL     1     109.267 130.035 140.650  0.00  0.00    +0.000 A 
ATOM     19  C   UNL     1     109.174 128.651 140.175  0.00  0.00    +0.000 A 
ATOM     20  C   UNL     1     108.443 129.056 141.403  0.00  0.00    +0.000 A 
ATOM     21  C   UNL     1     108.656 128.451 140.831  0.00  0.00    +0.000 A 
BRANCH  20  22
ATOM     22  C   UNL     1     107.946 128.872 142.036  0.00  0.00    +0.000 A 
ATOM     23  C   UNL     1     106.951 128.506 143.300  0.00  0.00    +0.000 A 
ATOM     24  C   UNL     1     107.161 129.127 142.030  0.00  0.00    +0.000 A 
ATOM     25  C   UNL     1     106.664 128.943 142.662  0.00  0.00    +0.000 A 
ATOM     26  C   UNL     1     108.234 128.435 142.673  0.00  0.00    +0.000 A 
ATOM     27  C   UNL     1     107.737 128.252 143.305  0.00  0.00    +0.000 A 
BRANCH  25  28
ATOM     28  O   UNL     1     105.879 129.197 142.658  0.00  0.00    +0.000 OA
ATOM     29  C   UNL     1     105.610 129.693 142.055  0.00  0.00    +0.000 C 
ENDBRANCH  25  28
BRANCH  23  30
ATOM     30  O   UNL     1     106.454 128.322 143.932  0.00  0.00    +0.000 OA
BRANCH  30  39
ATOM     31  O   UNL     1     106.249 126.930 143.682  0.00  0.00    +0.000 OA
ATOM     32  O   UNL     1     106.583 126.450 146.087  0.00  0.00    +0.000 OA
ATOM     33  O   UNL     1     106.266 125.218 145.036  0.00  0.00    +0.000 OA
ATOM     34  O   UNL     1     106.677 128.001 145.535  0.00  0.00    +0.000 OA
ATOM     35  C   UNL     1     106.471 126.609 145.285  0.00  0.00    +0.000 C 
ATOM     36  C   UNL     1     106.313 125.994 144.760  0.00  0.00    +0.000 C 
ATOM     37  C   UNL     1     106.519 127.386 145.010  0.00  0.00    +0.000 C 
ATOM     38  C   UNL     1     106.201 126.154 143.959  0.00  0.00    +0.000 C 
ATOM     39  C   UNL     1     106.407 127.546 144.208  0.00  0.00    +0.000 C 
BRANCH  38  41
ATOM     40  O   UNL     1     105.478 125.638 142.841  0.00  0.00    +0.000 OA
ATOM     41  C   UNL     1     106.043 125.538 143.433  0.00  0.00    +0.000 C 
ENDBRANCH  38  41
ENDBRANCH  30  39
ENDBRANCH  23  30
ENDBRANCH  20  22
ENDBRANCH   6  13
BRANCH   8  43
ATOM     42  O   UNL     1     113.271 130.393 138.870  0.00  0.00    +0.000 OA
ATOM     43  C   UNL     1     112.844 130.334 138.166  0.00  0.00    +0.000 C 
ENDBRANCH   8  43
BRANCH   4  44
ATOM     44  O   UNL     1     109.668 131.226 138.082  0.00  0.00    +0.000 OA
BRANCH  44  49
ATOM     45  O   UNL     1     109.257 130.352 137.029  0.00  0.00    +0.000 OA
ATOM     46  O   UNL     1     108.687 132.410 137.482  0.00  0.00    +0.000 OA
ATOM     47  O   UNL     1     107.787 132.128 136.129  0.00  0.00    +0.000 OA
ATOM     48  O   UNL     1     107.867 130.662 135.375  0.00  0.00    +0.000 OA
ATOM     49  C   UNL     1     109.218 131.085 137.405  0.00  0.00    +0.000 C 
ATOM     50  C   UNL     1     108.727 131.677 137.105  0.00  0.00    +0.000 C 
ATOM     51  C   UNL     1     108.277 131.536 136.429  0.00  0.00    +0.000 C 
ATOM     52  C   UNL     1     108.317 130.803 136.052  0.00  0.00    +0.000 C 
ATOM     53  C   UNL     1     108.807 130.211 136.352  0.00  0.00    +0.000 C 
BRANCH  53  54
ATOM     54  C   UNL     1     108.847 129.478 135.975  0.00  0.00    +0.000 C 
BRANCH  54  55
ATOM     55  O   UNL     1     108.806 128.783 136.418  0.00  0.00    +0.000 OA
BRANCH  55  57
ATOM     56  O   UNL     1     108.000 127.852 135.693  0.00  0.00    +0.000 OA
ATOM     57  C   UNL     1     108.722 128.056 136.039  0.00  0.00    +0.000 C 
BRANCH  57  58
ATOM     58  C   UNL     1     109.358 127.532 136.003  0.00  0.00    +0.000 C 
ATOM     59  C   UNL     1     109.254 126.742 136.213  0.00  0.00    +0.000 C 
BRANCH  59  61
ATOM     60  O   UNL     1     111.800 124.647 136.075  0.00  0.00    +0.000 OA
ATOM     61  C   UNL     1     109.891 126.218 136.178  0.00  0.00    +0.000 A 
ATOM     62  C   UNL     1     110.315 126.039 136.862  0.00  0.00    +0.000 A 
ATOM     63  C   UNL     1     110.103 125.873 135.460  0.00  0.00    +0.000 A 
ATOM     64  C   UNL     1     110.952 125.515 136.828  0.00  0.00    +0.000 A 
ATOM     65  C   UNL     1     110.738 125.350 135.425  0.00  0.00    +0.000 A 
ATOM     66  C   UNL     1     111.163 125.171 136.109  0.00  0.00    +0.000 A 
BRANCH  64  67
ATOM     67  O   UNL     1     111.377 125.337 137.513  0.00  0.00    +0.000 OA
ATOM     68  C   UNL     1     111.032 125.451 138.253  0.00  0.00    +0.000 C 
ENDBRANCH  64  67
ENDBRANCH  59  61
ENDBRANCH  57  58
ENDBRANCH  55  57
ENDBRANCH  54  55
ENDBRANCH  53  54
ENDBRANCH  44  49
ENDBRANCH   4  44
TORSDOF 15
ENDMDL
MODEL 6
REMARK VINA RESULT:     -10.1      1.324      2.258
REMARK  Name = 131752162
REMARK  15 active torsions:
REMARK  status: ('A' for Active; 'I' for Inactive)
REMARK    1  A    between atoms: O_1  and  C_25
REMARK    2  A    between atoms: O_1  and  C_30
REMARK    3  A    between atoms: O_10  and  C_37
REMARK    4  A    between atoms: O_10  and  C_52
REMARK    5  A    between atoms: O_15  and  C_47
REMARK    6  A    between atoms: O_15  and  C_54
REMARK    7  A    between atoms: O_22  and  C_56
REMARK    8  A    between atoms: O_23  and  C_65
REMARK    9  A    between atoms: C_27  and  C_35
REMARK   10  A    between atoms: C_29  and  C_36
REMARK   11  A    between atoms: C_34  and  C_37
REMARK   12  A    between atoms: C_46  and  C_49
REMARK   13  A    between atoms: C_50  and  C_53
REMARK   14  A    between atoms: C_52  and  C_59
REMARK   15  A    between atoms: C_60  and  C_61
REMARK                            x       y       z     vdW  Elec       q    Type
REMARK                         _______ _______ _______ _____ _____    ______ ____
ROOT
ATOM      1  O   UNL     1     112.710 128.555 138.001  0.00  0.00    +0.000 OA
ATOM      2  O   UNL     1     112.293 130.234 136.232  0.00  0.00    +0.000 OA
ATOM      3  O   UNL     1     113.059 128.821 135.864  0.00  0.00    +0.000 OA
ATOM      4  C   UNL     1     112.188 129.821 137.596  0.00  0.00    +0.000 C 
ATOM      5  C   UNL     1     112.432 129.675 136.822  0.00  0.00    +0.000 C 
ATOM      6  C   UNL     1     112.326 129.262 138.186  0.00  0.00    +0.000 C 
ATOM      7  C   UNL     1     112.815 128.968 136.637  0.00  0.00    +0.000 C 
ATOM      8  C   UNL     1     112.954 128.408 137.228  0.00  0.00    +0.000 C 
ENDROOT
BRANCH   6  13
ATOM      9  O   UNL     1     113.255 130.193 139.183  0.00  0.00    +0.000 OA
ATOM     10  O   UNL     1     110.909 128.622 138.737  0.00  0.00    +0.000 OA
ATOM     11  O   UNL     1     111.326 129.844 141.313  0.00  0.00    +0.000 OA
ATOM     12  O   UNL     1     113.500 130.821 140.458  0.00  0.00    +0.000 OA
ATOM     13  C   UNL     1     112.082 129.408 138.960  0.00  0.00    +0.000 A 
ATOM     14  C   UNL     1     112.546 129.873 139.458  0.00  0.00    +0.000 A 
ATOM     15  C   UNL     1     111.373 129.088 139.236  0.00  0.00    +0.000 A 
ATOM     16  C   UNL     1     112.302 130.019 140.233  0.00  0.00    +0.000 A 
ATOM     17  C   UNL     1     111.128 129.234 140.010  0.00  0.00    +0.000 A 
ATOM     18  C   UNL     1     111.592 129.699 140.509  0.00  0.00    +0.000 A 
ATOM     19  C   UNL     1     112.794 130.506 140.742  0.00  0.00    +0.000 A 
ATOM     20  C   UNL     1     111.805 130.328 141.837  0.00  0.00    +0.000 A 
ATOM     21  C   UNL     1     112.544 130.662 141.550  0.00  0.00    +0.000 A 
BRANCH  20  22
ATOM     22  C   UNL     1     111.558 130.473 142.611  0.00  0.00    +0.000 A 
ATOM     23  C   UNL     1     111.065 130.760 144.159  0.00  0.00    +0.000 A 
ATOM     24  C   UNL     1     111.752 129.941 143.211  0.00  0.00    +0.000 A 
ATOM     25  C   UNL     1     111.505 130.085 143.985  0.00  0.00    +0.000 A 
ATOM     26  C   UNL     1     111.118 131.149 142.784  0.00  0.00    +0.000 A 
ATOM     27  C   UNL     1     110.871 131.292 143.557  0.00  0.00    +0.000 A 
BRANCH  25  28
ATOM     28  O   UNL     1     111.698 129.553 144.585  0.00  0.00    +0.000 OA
ATOM     29  C   UNL     1     111.769 128.749 144.417  0.00  0.00    +0.000 C 
ENDBRANCH  25  28
BRANCH  23  30
ATOM     30  O   UNL     1     110.818 130.905 144.932  0.00  0.00    +0.000 OA
BRANCH  30  39
ATOM     31  O   UNL     1     111.652 132.023 145.242  0.00  0.00    +0.000 OA
ATOM     32  O   UNL     1     109.726 133.166 146.297  0.00  0.00    +0.000 OA
ATOM     33  O   UNL     1     111.201 133.903 146.255  0.00  0.00    +0.000 OA
ATOM     34  O   UNL     1     109.534 131.667 145.635  0.00  0.00    +0.000 OA
ATOM     35  C   UNL     1     110.368 132.785 145.945  0.00  0.00    +0.000 C 
ATOM     36  C   UNL     1     111.105 133.153 145.924  0.00  0.00    +0.000 C 
ATOM     37  C   UNL     1     110.272 132.035 145.615  0.00  0.00    +0.000 C 
ATOM     38  C   UNL     1     111.747 132.773 145.573  0.00  0.00    +0.000 C 
ATOM     39  C   UNL     1     110.914 131.654 145.263  0.00  0.00    +0.000 C 
BRANCH  38  41
ATOM     40  O   UNL     1     113.169 132.703 145.696  0.00  0.00    +0.000 OA
ATOM     41  C   UNL     1     112.485 133.142 145.553  0.00  0.00    +0.000 C 
ENDBRANCH  38  41
ENDBRANCH  30  39
ENDBRANCH  23  30
ENDBRANCH  20  22
ENDBRANCH   6  13
BRANCH   8  43
ATOM     42  O   UNL     1     113.533 127.168 137.643  0.00  0.00    +0.000 OA
ATOM     43  C   UNL     1     113.337 127.701 137.043  0.00  0.00    +0.000 C 
ENDBRANCH   8  43
BRANCH   4  44
ATOM     44  O   UNL     1     111.804 130.529 137.781  0.00  0.00    +0.000 OA
BRANCH  44  49
ATOM     45  O   UNL     1     110.700 130.260 136.914  0.00  0.00    +0.000 OA
ATOM     46  O   UNL     1     111.542 132.149 137.612  0.00  0.00    +0.000 OA
ATOM     47  O   UNL     1     110.307 132.690 136.661  0.00  0.00    +0.000 OA
ATOM     48  O   UNL     1     109.334 131.611 135.879  0.00  0.00    +0.000 OA
ATOM     49  C   UNL     1     111.186 130.799 137.305  0.00  0.00    +0.000 C 
ATOM     50  C   UNL     1     111.055 131.609 137.221  0.00  0.00    +0.000 C 
ATOM     51  C   UNL     1     110.438 131.880 136.746  0.00  0.00    +0.000 C 
ATOM     52  C   UNL     1     109.951 131.340 136.354  0.00  0.00    +0.000 C 
ATOM     53  C   UNL     1     110.082 130.530 136.439  0.00  0.00    +0.000 C 
BRANCH  53  54
ATOM     54  C   UNL     1     109.596 129.991 136.048  0.00  0.00    +0.000 C 
BRANCH  54  55
ATOM     55  O   UNL     1     109.252 129.367 136.464  0.00  0.00    +0.000 OA
BRANCH  55  57
ATOM     56  O   UNL     1     108.143 128.736 135.820  0.00  0.00    +0.000 OA
ATOM     57  C   UNL     1     108.934 128.724 136.057  0.00  0.00    +0.000 C 
BRANCH  57  58
ATOM     58  C   UNL     1     109.406 128.069 135.887  0.00  0.00    +0.000 C 
ATOM     59  C   UNL     1     109.180 127.319 136.145  0.00  0.00    +0.000 C 
BRANCH  59  61
ATOM     60  O   UNL     1     111.067 124.698 135.467  0.00  0.00    +0.000 OA
ATOM     61  C   UNL     1     109.652 126.664 135.975  0.00  0.00    +0.000 A 
ATOM     62  C   UNL     1     110.011 126.245 136.588  0.00  0.00    +0.000 A 
ATOM     63  C   UNL     1     109.764 126.428 135.193  0.00  0.00    +0.000 A 
ATOM     64  C   UNL     1     110.483 125.590 136.419  0.00  0.00    +0.000 A 
ATOM     65  C   UNL     1     110.235 125.773 135.024  0.00  0.00    +0.000 A 
ATOM     66  C   UNL     1     110.595 125.354 135.637  0.00  0.00    +0.000 A 
BRANCH  64  67
ATOM     67  O   UNL     1     110.843 125.171 137.032  0.00  0.00    +0.000 OA
ATOM     68  C   UNL     1     110.711 125.392 137.815  0.00  0.00    +0.000 C 
ENDBRANCH  64  67
ENDBRANCH  59  61
ENDBRANCH  57  58
ENDBRANCH  55  57
ENDBRANCH  54  55
ENDBRANCH  53  54
ENDBRANCH  44  49
ENDBRANCH   4  44
TORSDOF 15
ENDMDL
MODEL 7
REMARK VINA RESULT:     -10.1      1.460      2.825
REMARK  Name = 131752162
REMARK  15 active torsions:
REMARK  status: ('A' for Active; 'I' for Inactive)
REMARK    1  A    between atoms: O_1  and  C_25
REMARK    2  A    between atoms: O_1  and  C_30
REMARK    3  A    between atoms: O_10  and  C_37
REMARK    4  A    between atoms: O_10  and  C_52
REMARK    5  A    between atoms: O_15  and  C_47
REMARK    6  A    between atoms: O_15  and  C_54
REMARK    7  A    between atoms: O_22  and  C_56
REMARK    8  A    between atoms: O_23  and  C_65
REMARK    9  A    between atoms: C_27  and  C_35
REMARK   10  A    between atoms: C_29  and  C_36
REMARK   11  A    between atoms: C_34  and  C_37
REMARK   12  A    between atoms: C_46  and  C_49
REMARK   13  A    between atoms: C_50  and  C_53
REMARK   14  A    between atoms: C_52  and  C_59
REMARK   15  A    between atoms: C_60  and  C_61
REMARK                            x       y       z     vdW  Elec       q    Type
REMARK                         _______ _______ _______ _____ _____    ______ ____
ROOT
ATOM      1  O   UNL     1     109.462 128.846 136.717  0.00  0.00    +0.000 OA
ATOM      2  O   UNL     1     110.971 130.292 135.392  0.00  0.00    +0.000 OA
ATOM      3  O   UNL     1     109.930 129.267 134.628  0.00  0.00    +0.000 OA
ATOM      4  C   UNL     1     110.486 129.840 136.658  0.00  0.00    +0.000 C 
ATOM      5  C   UNL     1     110.468 129.810 135.834  0.00  0.00    +0.000 C 
ATOM      6  C   UNL     1     109.983 129.358 137.100  0.00  0.00    +0.000 C 
ATOM      7  C   UNL     1     109.948 129.297 135.451  0.00  0.00    +0.000 C 
ATOM      8  C   UNL     1     109.445 128.815 135.894  0.00  0.00    +0.000 C 
ENDROOT
BRANCH   6  13
ATOM      9  O   UNL     1     110.732 128.162 137.955  0.00  0.00    +0.000 OA
ATOM     10  O   UNL     1     109.268 130.616 137.893  0.00  0.00    +0.000 OA
ATOM     11  O   UNL     1     110.045 129.494 140.431  0.00  0.00    +0.000 OA
ATOM     12  O   UNL     1     111.140 127.568 139.205  0.00  0.00    +0.000 OA
ATOM     13  C   UNL     1     110.001 129.389 137.924  0.00  0.00    +0.000 A 
ATOM     14  C   UNL     1     110.375 128.791 138.352  0.00  0.00    +0.000 A 
ATOM     15  C   UNL     1     109.643 130.018 138.321  0.00  0.00    +0.000 A 
ATOM     16  C   UNL     1     110.392 128.821 139.176  0.00  0.00    +0.000 A 
ATOM     17  C   UNL     1     109.660 130.049 139.145  0.00  0.00    +0.000 A 
ATOM     18  C   UNL     1     110.034 129.451 139.573  0.00  0.00    +0.000 A 
ATOM     19  C   UNL     1     110.785 128.193 139.610  0.00  0.00    +0.000 A 
ATOM     20  C   UNL     1     110.434 128.874 140.882  0.00  0.00    +0.000 A 
ATOM     21  C   UNL     1     110.806 128.219 140.469  0.00  0.00    +0.000 A 
BRANCH  20  22
ATOM     22  C   UNL     1     110.449 128.908 141.706  0.00  0.00    +0.000 A 
ATOM     23  C   UNL     1     110.479 128.974 143.354  0.00  0.00    +0.000 A 
ATOM     24  C   UNL     1     109.751 128.810 142.135  0.00  0.00    +0.000 A 
ATOM     25  C   UNL     1     109.767 128.844 142.960  0.00  0.00    +0.000 A 
ATOM     26  C   UNL     1     111.162 129.038 142.101  0.00  0.00    +0.000 A 
ATOM     27  C   UNL     1     111.177 129.071 142.924  0.00  0.00    +0.000 A 
BRANCH  25  28
ATOM     28  O   UNL     1     109.069 128.747 143.390  0.00  0.00    +0.000 OA
ATOM     29  C   UNL     1     108.392 128.459 143.017  0.00  0.00    +0.000 C 
ENDBRANCH  25  28
BRANCH  23  30
ATOM     30  O   UNL     1     110.495 129.007 144.179  0.00  0.00    +0.000 OA
BRANCH  30  39
ATOM     31  O   UNL     1     110.694 130.409 144.373  0.00  0.00    +0.000 OA
ATOM     32  O   UNL     1     112.427 129.926 146.073  0.00  0.00    +0.000 OA
ATOM     33  O   UNL     1     112.049 131.488 145.701  0.00  0.00    +0.000 OA
ATOM     34  O   UNL     1     111.650 128.686 145.312  0.00  0.00    +0.000 OA
ATOM     35  C   UNL     1     111.849 130.087 145.506  0.00  0.00    +0.000 C 
ATOM     36  C   UNL     1     111.660 130.868 145.321  0.00  0.00    +0.000 C 
ATOM     37  C   UNL     1     111.461 129.467 145.126  0.00  0.00    +0.000 C 
ATOM     38  C   UNL     1     111.083 131.030 144.755  0.00  0.00    +0.000 C 
ATOM     39  C   UNL     1     110.883 129.628 144.559  0.00  0.00    +0.000 C 
BRANCH  38  41
ATOM     40  O   UNL     1     110.104 132.039 144.506  0.00  0.00    +0.000 OA
ATOM     41  C   UNL     1     110.894 131.811 144.569  0.00  0.00    +0.000 C 
ENDBRANCH  38  41
ENDBRANCH  30  39
ENDBRANCH  23  30
ENDBRANCH  20  22
ENDBRANCH   6  13
BRANCH   8  43
ATOM     42  O   UNL     1     108.133 128.265 135.747  0.00  0.00    +0.000 OA
ATOM     43  C   UNL     1     108.924 128.302 135.511  0.00  0.00    +0.000 C 
ENDBRANCH   8  43
BRANCH   4  44
ATOM     44  O   UNL     1     111.007 130.353 137.041  0.00  0.00    +0.000 OA
BRANCH  44  49
ATOM     45  O   UNL     1     112.179 129.668 136.594  0.00  0.00    +0.000 OA
ATOM     46  O   UNL     1     111.855 131.768 137.091  0.00  0.00    +0.000 OA
ATOM     47  O   UNL     1     113.450 131.790 136.669  0.00  0.00    +0.000 OA
ATOM     48  O   UNL     1     114.197 130.397 136.197  0.00  0.00    +0.000 OA
ATOM     49  C   UNL     1     111.805 130.364 136.830  0.00  0.00    +0.000 C 
ATOM     50  C   UNL     1     112.229 131.071 136.855  0.00  0.00    +0.000 C 
ATOM     51  C   UNL     1     113.026 131.083 136.644  0.00  0.00    +0.000 C 
ATOM     52  C   UNL     1     113.400 130.385 136.408  0.00  0.00    +0.000 C 
ATOM     53  C   UNL     1     112.976 129.678 136.383  0.00  0.00    +0.000 C 
BRANCH  53  54
ATOM     54  C   UNL     1     113.350 128.982 136.147  0.00  0.00    +0.000 C 
BRANCH  54  55
ATOM     55  O   UNL     1     113.313 128.310 136.625  0.00  0.00    +0.000 OA
BRANCH  55  57
ATOM     56  O   UNL     1     114.360 127.563 136.002  0.00  0.00    +0.000 OA
ATOM     57  C   UNL     1     113.613 127.592 136.353  0.00  0.00    +0.000 C 
BRANCH  57  58
ATOM     58  C   UNL     1     113.167 126.902 136.430  0.00  0.00    +0.000 C 
ATOM     59  C   UNL     1     113.544 126.175 136.525  0.00  0.00    +0.000 C 
BRANCH  59  61
ATOM     60  O   UNL     1     111.759 123.417 136.833  0.00  0.00    +0.000 OA
ATOM     61  C   UNL     1     113.098 125.485 136.602  0.00  0.00    +0.000 A 
ATOM     62  C   UNL     1     112.289 125.498 136.443  0.00  0.00    +0.000 A 
ATOM     63  C   UNL     1     113.461 124.784 136.838  0.00  0.00    +0.000 A 
ATOM     64  C   UNL     1     111.842 124.809 136.520  0.00  0.00    +0.000 A 
ATOM     65  C   UNL     1     113.015 124.095 136.915  0.00  0.00    +0.000 A 
ATOM     66  C   UNL     1     112.206 124.107 136.756  0.00  0.00    +0.000 A 
BRANCH  64  67
ATOM     67  O   UNL     1     111.033 124.821 136.361  0.00  0.00    +0.000 OA
ATOM     68  C   UNL     1     110.757 125.135 135.650  0.00  0.00    +0.000 C 
ENDBRANCH  64  67
ENDBRANCH  59  61
ENDBRANCH  57  58
ENDBRANCH  55  57
ENDBRANCH  54  55
ENDBRANCH  53  54
ENDBRANCH  44  49
ENDBRANCH   4  44
TORSDOF 15
ENDMDL
MODEL 8
REMARK VINA RESULT:     -10.1      2.978      6.010
REMARK  Name = 131752162
REMARK  15 active torsions:
REMARK  status: ('A' for Active; 'I' for Inactive)
REMARK    1  A    between atoms: O_1  and  C_25
REMARK    2  A    between atoms: O_1  and  C_30
REMARK    3  A    between atoms: O_10  and  C_37
REMARK    4  A    between atoms: O_10  and  C_52
REMARK    5  A    between atoms: O_15  and  C_47
REMARK    6  A    between atoms: O_15  and  C_54
REMARK    7  A    between atoms: O_22  and  C_56
REMARK    8  A    between atoms: O_23  and  C_65
REMARK    9  A    between atoms: C_27  and  C_35
REMARK   10  A    between atoms: C_29  and  C_36
REMARK   11  A    between atoms: C_34  and  C_37
REMARK   12  A    between atoms: C_46  and  C_49
REMARK   13  A    between atoms: C_50  and  C_53
REMARK   14  A    between atoms: C_52  and  C_59
REMARK   15  A    between atoms: C_60  and  C_61
REMARK                            x       y       z     vdW  Elec       q    Type
REMARK                         _______ _______ _______ _____ _____    ______ ____
ROOT
ATOM      1  O   UNL     1     113.220 125.560 137.769  0.00  0.00    +0.000 OA
ATOM      2  O   UNL     1     113.553 127.417 136.168  0.00  0.00    +0.000 OA
ATOM      3  O   UNL     1     114.767 126.334 136.439  0.00  0.00    +0.000 OA
ATOM      4  C   UNL     1     112.724 126.721 137.101  0.00  0.00    +0.000 C 
ATOM      5  C   UNL     1     113.442 126.799 136.702  0.00  0.00    +0.000 C 
ATOM      6  C   UNL     1     112.613 126.102 137.634  0.00  0.00    +0.000 C 
ATOM      7  C   UNL     1     114.049 126.257 136.837  0.00  0.00    +0.000 C 
ATOM      8  C   UNL     1     113.937 125.638 137.371  0.00  0.00    +0.000 C 
ENDROOT
BRANCH   6  13
ATOM      9  O   UNL     1     112.501 126.526 139.225  0.00  0.00    +0.000 OA
ATOM     10  O   UNL     1     111.288 125.523 136.840  0.00  0.00    +0.000 OA
ATOM     11  O   UNL     1     109.704 125.783 139.233  0.00  0.00    +0.000 OA
ATOM     12  O   UNL     1     111.742 126.671 140.444  0.00  0.00    +0.000 OA
ATOM     13  C   UNL     1     111.895 126.025 138.033  0.00  0.00    +0.000 A 
ATOM     14  C   UNL     1     111.839 126.236 138.828  0.00  0.00    +0.000 A 
ATOM     15  C   UNL     1     111.231 125.735 137.635  0.00  0.00    +0.000 A 
ATOM     16  C   UNL     1     111.121 126.159 139.227  0.00  0.00    +0.000 A 
ATOM     17  C   UNL     1     110.514 125.657 138.034  0.00  0.00    +0.000 A 
ATOM     18  C   UNL     1     110.457 125.869 138.829  0.00  0.00    +0.000 A 
ATOM     19  C   UNL     1     111.075 126.382 140.055  0.00  0.00    +0.000 A 
ATOM     20  C   UNL     1     109.639 126.002 140.062  0.00  0.00    +0.000 A 
ATOM     21  C   UNL     1     110.330 126.304 140.476  0.00  0.00    +0.000 A 
BRANCH  20  22
ATOM     22  C   UNL     1     108.920 125.923 140.457  0.00  0.00    +0.000 A 
ATOM     23  C   UNL     1     107.481 125.763 141.249  0.00  0.00    +0.000 A 
ATOM     24  C   UNL     1     108.686 125.185 140.744  0.00  0.00    +0.000 A 
ATOM     25  C   UNL     1     107.967 125.106 141.140  0.00  0.00    +0.000 A 
ATOM     26  C   UNL     1     108.434 126.581 140.566  0.00  0.00    +0.000 A 
ATOM     27  C   UNL     1     107.716 126.502 140.962  0.00  0.00    +0.000 A 
BRANCH  25  28
ATOM     28  O   UNL     1     107.733 124.369 141.426  0.00  0.00    +0.000 OA
ATOM     29  C   UNL     1     107.998 123.680 141.059  0.00  0.00    +0.000 C 
ENDBRANCH  25  28
BRANCH  23  30
ATOM     30  O   UNL     1     106.762 125.685 141.645  0.00  0.00    +0.000 OA
BRANCH  30  39
ATOM     31  O   UNL     1     106.899 126.560 142.766  0.00  0.00    +0.000 OA
ATOM     32  O   UNL     1     104.762 127.658 142.170  0.00  0.00    +0.000 OA
ATOM     33  O   UNL     1     105.612 128.167 143.489  0.00  0.00    +0.000 OA
ATOM     34  O   UNL     1     105.338 126.417 141.248  0.00  0.00    +0.000 OA
ATOM     35  C   UNL     1     105.475 127.292 142.369  0.00  0.00    +0.000 C 
ATOM     36  C   UNL     1     105.899 127.547 143.028  0.00  0.00    +0.000 C 
ATOM     37  C   UNL     1     105.762 126.672 141.908  0.00  0.00    +0.000 C 
ATOM     38  C   UNL     1     106.611 127.181 143.228  0.00  0.00    +0.000 C 
ATOM     39  C   UNL     1     106.474 126.305 142.106  0.00  0.00    +0.000 C 
BRANCH  38  41
ATOM     40  O   UNL     1     107.297 126.888 144.445  0.00  0.00    +0.000 OA
ATOM     41  C   UNL     1     107.036 127.436 143.888  0.00  0.00    +0.000 C 
ENDBRANCH  38  41
ENDBRANCH  30  39
ENDBRANCH  23  30
ENDBRANCH  20  22
ENDBRANCH   6  13
BRANCH   8  43
ATOM     42  O   UNL     1     114.384 124.286 137.501  0.00  0.00    +0.000 OA
ATOM     43  C   UNL     1     114.544 125.096 137.506  0.00  0.00    +0.000 C 
ENDBRANCH   8  43
BRANCH   4  44
ATOM     44  O   UNL     1     112.116 127.264 136.965  0.00  0.00    +0.000 OA
BRANCH  44  49
ATOM     45  O   UNL     1     112.711 128.397 137.601  0.00  0.00    +0.000 OA
ATOM     46  O   UNL     1     111.563 128.235 135.752  0.00  0.00    +0.000 OA
ATOM     47  O   UNL     1     111.881 129.854 135.781  0.00  0.00    +0.000 OA
ATOM     48  O   UNL     1     112.752 130.501 137.024  0.00  0.00    +0.000 OA
ATOM     49  C   UNL     1     112.275 128.073 136.981  0.00  0.00    +0.000 C 
ATOM     50  C   UNL     1     111.999 128.559 136.374  0.00  0.00    +0.000 C 
ATOM     51  C   UNL     1     112.158 129.368 136.388  0.00  0.00    +0.000 C 
ATOM     52  C   UNL     1     112.594 129.692 137.010  0.00  0.00    +0.000 C 
ATOM     53  C   UNL     1     112.870 129.206 137.617  0.00  0.00    +0.000 C 
BRANCH  53  54
ATOM     54  C   UNL     1     113.305 129.530 138.238  0.00  0.00    +0.000 C 
BRANCH  54  55
ATOM     55  O   UNL     1     113.079 129.389 139.019  0.00  0.00    +0.000 OA
BRANCH  55  57
ATOM     56  O   UNL     1     114.342 129.704 139.609  0.00  0.00    +0.000 OA
ATOM     57  C   UNL     1     113.516 129.709 139.640  0.00  0.00    +0.000 C 
BRANCH  57  58
ATOM     58  C   UNL     1     113.130 130.036 140.292  0.00  0.00    +0.000 C 
ATOM     59  C   UNL     1     113.276 129.742 141.048  0.00  0.00    +0.000 C 
BRANCH  59  61
ATOM     60  O   UNL     1     111.731 131.044 143.657  0.00  0.00    +0.000 OA
ATOM     61  C   UNL     1     112.890 130.068 141.700  0.00  0.00    +0.000 A 
ATOM     62  C   UNL     1     112.388 129.600 142.158  0.00  0.00    +0.000 A 
ATOM     63  C   UNL     1     113.006 130.861 141.894  0.00  0.00    +0.000 A 
ATOM     64  C   UNL     1     112.001 129.925 142.810  0.00  0.00    +0.000 A 
ATOM     65  C   UNL     1     112.620 131.186 142.546  0.00  0.00    +0.000 A 
ATOM     66  C   UNL     1     112.118 130.719 143.004  0.00  0.00    +0.000 A 
BRANCH  64  67
ATOM     67  O   UNL     1     111.499 129.458 143.268  0.00  0.00    +0.000 OA
ATOM     68  C   UNL     1     111.603 128.640 143.289  0.00  0.00    +0.000 C 
ENDBRANCH  64  67
ENDBRANCH  59  61
ENDBRANCH  57  58
ENDBRANCH  55  57
ENDBRANCH  54  55
ENDBRANCH  53  54
ENDBRANCH  44  49
ENDBRANCH   4  44
TORSDOF 15
ENDMDL
MODEL 9
REMARK VINA RESULT:     -10.1      5.673      8.014
REMARK  Name = 131752162
REMARK  15 active torsions:
REMARK  status: ('A' for Active; 'I' for Inactive)
REMARK    1  A    between atoms: O_1  and  C_25
REMARK    2  A    between atoms: O_1  and  C_30
REMARK    3  A    between atoms: O_10  and  C_37
REMARK    4  A    between atoms: O_10  and  C_52
REMARK    5  A    between atoms: O_15  and  C_47
REMARK    6  A    between atoms: O_15  and  C_54
REMARK    7  A    between atoms: O_22  and  C_56
REMARK    8  A    between atoms: O_23  and  C_65
REMARK    9  A    between atoms: C_27  and  C_35
REMARK   10  A    between atoms: C_29  and  C_36
REMARK   11  A    between atoms: C_34  and  C_37
REMARK   12  A    between atoms: C_46  and  C_49
REMARK   13  A    between atoms: C_50  and  C_53
REMARK   14  A    between atoms: C_52  and  C_59
REMARK   15  A    between atoms: C_60  and  C_61
REMARK                            x       y       z     vdW  Elec       q    Type
REMARK                         _______ _______ _______ _____ _____    ______ ____
ROOT
ATOM      1  O   UNL     1     104.845 129.870 142.749  0.00  0.00    +0.000 OA
ATOM      2  O   UNL     1     105.301 127.871 141.364  0.00  0.00    +0.000 OA
ATOM      3  O   UNL     1     103.752 128.401 141.562  0.00  0.00    +0.000 OA
ATOM      4  C   UNL     1     105.772 128.939 142.189  0.00  0.00    +0.000 C 
ATOM      5  C   UNL     1     105.149 128.537 141.826  0.00  0.00    +0.000 C 
ATOM      6  C   UNL     1     105.620 129.605 142.650  0.00  0.00    +0.000 C 
ATOM      7  C   UNL     1     104.374 128.802 141.925  0.00  0.00    +0.000 C 
ATOM      8  C   UNL     1     104.223 129.469 142.387  0.00  0.00    +0.000 C 
ENDROOT
BRANCH   6  13
ATOM      9  O   UNL     1     105.929 129.374 144.254  0.00  0.00    +0.000 OA
ATOM     10  O   UNL     1     106.556 130.641 141.771  0.00  0.00    +0.000 OA
ATOM     11  O   UNL     1     108.139 131.237 144.103  0.00  0.00    +0.000 OA
ATOM     12  O   UNL     1     106.698 129.645 145.445  0.00  0.00    +0.000 OA
ATOM     13  C   UNL     1     106.242 130.007 143.013  0.00  0.00    +0.000 A 
ATOM     14  C   UNL     1     106.397 129.892 143.815  0.00  0.00    +0.000 A 
ATOM     15  C   UNL     1     106.711 130.526 142.573  0.00  0.00    +0.000 A 
ATOM     16  C   UNL     1     107.019 130.294 144.178  0.00  0.00    +0.000 A 
ATOM     17  C   UNL     1     107.333 130.928 142.936  0.00  0.00    +0.000 A 
ATOM     18  C   UNL     1     107.488 130.813 143.738  0.00  0.00    +0.000 A 
ATOM     19  C   UNL     1     107.170 130.165 145.014  0.00  0.00    +0.000 A 
ATOM     20  C   UNL     1     108.305 131.121 144.939  0.00  0.00    +0.000 A 
ATOM     21  C   UNL     1     107.817 130.581 145.397  0.00  0.00    +0.000 A 
BRANCH  20  22
ATOM     22  C   UNL     1     108.928 131.525 145.299  0.00  0.00    +0.000 A 
ATOM     23  C   UNL     1     110.173 132.333 146.019  0.00  0.00    +0.000 A 
ATOM     24  C   UNL     1     108.786 132.238 145.687  0.00  0.00    +0.000 A 
ATOM     25  C   UNL     1     109.409 132.642 146.047  0.00  0.00    +0.000 A 
ATOM     26  C   UNL     1     109.692 131.214 145.270  0.00  0.00    +0.000 A 
ATOM     27  C   UNL     1     110.314 131.618 145.630  0.00  0.00    +0.000 A 
BRANCH  25  28
ATOM     28  O   UNL     1     109.268 133.356 146.436  0.00  0.00    +0.000 OA
ATOM     29  C   UNL     1     108.598 133.443 146.909  0.00  0.00    +0.000 C 
ENDBRANCH  25  28
BRANCH  23  30
ATOM     30  O   UNL     1     110.796 132.736 146.379  0.00  0.00    +0.000 OA
BRANCH  30  39
ATOM     31  O   UNL     1     111.513 133.175 145.223  0.00  0.00    +0.000 OA
ATOM     32  O   UNL     1     113.640 132.470 146.275  0.00  0.00    +0.000 OA
ATOM     33  O   UNL     1     113.647 133.143 144.769  0.00  0.00    +0.000 OA
ATOM     34  O   UNL     1     112.214 132.267 147.080  0.00  0.00    +0.000 OA
ATOM     35  C   UNL     1     112.931 132.705 145.924  0.00  0.00    +0.000 C 
ATOM     36  C   UNL     1     112.935 133.041 145.172  0.00  0.00    +0.000 C 
ATOM     37  C   UNL     1     112.218 132.603 146.327  0.00  0.00    +0.000 C 
ATOM     38  C   UNL     1     112.227 133.276 144.820  0.00  0.00    +0.000 C 
ATOM     39  C   UNL     1     111.509 132.838 145.976  0.00  0.00    +0.000 C 
BRANCH  38  41
ATOM     40  O   UNL     1     111.721 134.238 143.893  0.00  0.00    +0.000 OA
ATOM     41  C   UNL     1     112.231 133.613 144.067  0.00  0.00    +0.000 C 
ENDBRANCH  38  41
ENDBRANCH  30  39
ENDBRANCH  23  30
ENDBRANCH  20  22
ENDBRANCH   6  13
BRANCH   8  43
ATOM     42  O   UNL     1     103.292 130.380 142.975  0.00  0.00    +0.000 OA
ATOM     43  C   UNL     1     103.448 129.734 142.486  0.00  0.00    +0.000 C 
ENDBRANCH   8  43
BRANCH   4  44
ATOM     44  O   UNL     1     106.548 128.674 142.090  0.00  0.00    +0.000 OA
BRANCH  44  49
ATOM     45  O   UNL     1     106.381 127.455 142.817  0.00  0.00    +0.000 OA
ATOM     46  O   UNL     1     107.601 127.920 141.068  0.00  0.00    +0.000 OA
ATOM     47  O   UNL     1     107.961 126.324 141.284  0.00  0.00    +0.000 OA
ATOM     48  O   UNL     1     107.268 125.483 142.523  0.00  0.00    +0.000 OA
ATOM     49  C   UNL     1     106.727 127.876 142.198  0.00  0.00    +0.000 C 
ATOM     50  C   UNL     1     107.254 127.499 141.687  0.00  0.00    +0.000 C 
ATOM     51  C   UNL     1     107.435 126.701 141.795  0.00  0.00    +0.000 C 
ATOM     52  C   UNL     1     107.088 126.280 142.415  0.00  0.00    +0.000 C 
ATOM     53  C   UNL     1     106.561 126.657 142.926  0.00  0.00    +0.000 C 
BRANCH  53  54
ATOM     54  C   UNL     1     106.215 126.237 143.544  0.00  0.00    +0.000 C 
BRANCH  54  55
ATOM     55  O   UNL     1     106.409 126.416 144.326  0.00  0.00    +0.000 OA
BRANCH  55  57
ATOM     56  O   UNL     1     105.138 126.173 144.933  0.00  0.00    +0.000 OA
ATOM     57  C   UNL     1     105.961 126.106 144.945  0.00  0.00    +0.000 C 
BRANCH  57  58
ATOM     58  C   UNL     1     106.335 125.728 145.576  0.00  0.00    +0.000 C 
ATOM     59  C   UNL     1     106.235 126.012 146.344  0.00  0.00    +0.000 C 
BRANCH  59  61
ATOM     60  O   UNL     1     107.726 124.501 148.871  0.00  0.00    +0.000 OA
ATOM     61  C   UNL     1     106.609 125.634 146.976  0.00  0.00    +0.000 A 
ATOM     62  C   UNL     1     106.161 125.216 147.529  0.00  0.00    +0.000 A 
ATOM     63  C   UNL     1     107.428 125.674 147.054  0.00  0.00    +0.000 A 
ATOM     64  C   UNL     1     106.533 124.839 148.161  0.00  0.00    +0.000 A 
ATOM     65  C   UNL     1     107.801 125.296 147.686  0.00  0.00    +0.000 A 
ATOM     66  C   UNL     1     107.353 124.879 148.239  0.00  0.00    +0.000 A 
BRANCH  64  67
ATOM     67  O   UNL     1     106.086 124.421 148.714  0.00  0.00    +0.000 OA
ATOM     68  C   UNL     1     105.367 124.726 148.977  0.00  0.00    +0.000 C 
ENDBRANCH  64  67
ENDBRANCH  59  61
ENDBRANCH  57  58
ENDBRANCH  55  57
ENDBRANCH  54  55
ENDBRANCH  53  54
ENDBRANCH  44  49
ENDBRANCH   4  44
TORSDOF 15
ENDMDL
MODEL 10
REMARK VINA RESULT:     -10.1      3.072      5.004
REMARK  Name = 131752162
REMARK  15 active torsions:
REMARK  status: ('A' for Active; 'I' for Inactive)
REMARK    1  A    between atoms: O_1  and  C_25
REMARK    2  A    between atoms: O_1  and  C_30
REMARK    3  A    between atoms: O_10  and  C_37
REMARK    4  A    between atoms: O_10  and  C_52
REMARK    5  A    between atoms: O_15  and  C_47
REMARK    6  A    between atoms: O_15  and  C_54
REMARK    7  A    between atoms: O_22  and  C_56
REMARK    8  A    between atoms: O_23  and  C_65
REMARK    9  A    between atoms: C_27  and  C_35
REMARK   10  A    between atoms: C_29  and  C_36
REMARK   11  A    between atoms: C_34  and  C_37
REMARK   12  A    between atoms: C_46  and  C_49
REMARK   13  A    between atoms: C_50  and  C_53
REMARK   14  A    between atoms: C_52  and  C_59
REMARK   15  A    between atoms: C_60  and  C_61
REMARK                            x       y       z     vdW  Elec       q    Type
REMARK                         _______ _______ _______ _____ _____    ______ ____
ROOT
ATOM      1  O   UNL     1     113.261 129.572 140.219  0.00  0.00    +0.000 OA
ATOM      2  O   UNL     1     113.222 131.181 138.340  0.00  0.00    +0.000 OA
ATOM      3  O   UNL     1     114.662 130.619 138.914  0.00  0.00    +0.000 OA
ATOM      4  C   UNL     1     112.527 130.389 139.306  0.00  0.00    +0.000 C 
ATOM      5  C   UNL     1     113.235 130.645 138.966  0.00  0.00    +0.000 C 
ATOM      6  C   UNL     1     112.541 129.853 139.932  0.00  0.00    +0.000 C 
ATOM      7  C   UNL     1     113.955 130.364 139.253  0.00  0.00    +0.000 C 
ATOM      8  C   UNL     1     113.968 129.827 139.880  0.00  0.00    +0.000 C 
ENDROOT
BRANCH   6  13
ATOM      9  O   UNL     1     111.921 128.375 139.538  0.00  0.00    +0.000 OA
ATOM     10  O   UNL     1     111.746 130.821 141.007  0.00  0.00    +0.000 OA
ATOM     11  O   UNL     1     109.682 128.834 141.315  0.00  0.00    +0.000 OA
ATOM     12  O   UNL     1     110.908 127.355 139.665  0.00  0.00    +0.000 OA
ATOM     13  C   UNL     1     111.833 129.598 140.272  0.00  0.00    +0.000 A 
ATOM     14  C   UNL     1     111.524 128.859 140.075  0.00  0.00    +0.000 A 
ATOM     15  C   UNL     1     111.436 130.082 140.810  0.00  0.00    +0.000 A 
ATOM     16  C   UNL     1     110.817 128.604 140.415  0.00  0.00    +0.000 A 
ATOM     17  C   UNL     1     110.729 129.827 141.150  0.00  0.00    +0.000 A 
ATOM     18  C   UNL     1     110.419 129.088 140.953  0.00  0.00    +0.000 A 
ATOM     19  C   UNL     1     110.505 127.832 140.202  0.00  0.00    +0.000 A 
ATOM     20  C   UNL     1     109.354 128.065 141.113  0.00  0.00    +0.000 A 
ATOM     21  C   UNL     1     109.769 127.561 140.553  0.00  0.00    +0.000 A 
BRANCH  20  22
ATOM     22  C   UNL     1     108.647 127.812 141.455  0.00  0.00    +0.000 A 
ATOM     23  C   UNL     1     107.233 127.309 142.138  0.00  0.00    +0.000 A 
ATOM     24  C   UNL     1     107.984 128.303 141.439  0.00  0.00    +0.000 A 
ATOM     25  C   UNL     1     107.277 128.050 141.781  0.00  0.00    +0.000 A 
ATOM     26  C   UNL     1     108.604 127.070 141.812  0.00  0.00    +0.000 A 
ATOM     27  C   UNL     1     107.897 126.818 142.154  0.00  0.00    +0.000 A 
BRANCH  25  28
ATOM     28  O   UNL     1     106.614 128.540 141.766  0.00  0.00    +0.000 OA
ATOM     29  C   UNL     1     106.706 129.360 141.745  0.00  0.00    +0.000 C 
ENDBRANCH  25  28
BRANCH  23  30
ATOM     30  O   UNL     1     106.526 127.056 142.480  0.00  0.00    +0.000 OA
BRANCH  30  39
ATOM     31  O   UNL     1     106.159 126.027 141.559  0.00  0.00    +0.000 OA
ATOM     32  O   UNL     1     105.585 124.538 143.452  0.00  0.00    +0.000 OA
ATOM     33  O   UNL     1     105.410 124.005 141.901  0.00  0.00    +0.000 OA
ATOM     34  O   UNL     1     106.143 126.064 143.742  0.00  0.00    +0.000 OA
ATOM     35  C   UNL     1     105.776 125.034 142.821  0.00  0.00    +0.000 C 
ATOM     36  C   UNL     1     105.689 124.768 142.046  0.00  0.00    +0.000 C 
ATOM     37  C   UNL     1     106.055 125.797 142.966  0.00  0.00    +0.000 C 
ATOM     38  C   UNL     1     105.880 125.263 141.414  0.00  0.00    +0.000 C 
ATOM     39  C   UNL     1     106.247 126.293 142.335  0.00  0.00    +0.000 C 
BRANCH  38  41
ATOM     40  O   UNL     1     105.471 125.495 140.066  0.00  0.00    +0.000 OA
ATOM     41  C   UNL     1     105.792 124.997 140.639  0.00  0.00    +0.000 C 
ENDBRANCH  38  41
ENDBRANCH  30  39
ENDBRANCH  23  30
ENDBRANCH  20  22
ENDBRANCH   6  13
BRANCH   8  43
ATOM     42  O   UNL     1     114.701 128.990 140.777  0.00  0.00    +0.000 OA
ATOM     43  C   UNL     1     114.688 129.546 140.166  0.00  0.00    +0.000 C 
ENDBRANCH   8  43
BRANCH   4  44
ATOM     44  O   UNL     1     111.806 130.671 139.019  0.00  0.00    +0.000 OA
BRANCH  44  49
ATOM     45  O   UNL     1     111.934 130.052 137.737  0.00  0.00    +0.000 OA
ATOM     46  O   UNL     1     110.952 131.907 138.336  0.00  0.00    +0.000 OA
ATOM     47  O   UNL     1     110.654 131.906 136.713  0.00  0.00    +0.000 OA
ATOM     48  O   UNL     1     111.209 130.669 135.773  0.00  0.00    +0.000 OA
ATOM     49  C   UNL     1     111.657 130.670 138.207  0.00  0.00    +0.000 C 
ATOM     50  C   UNL     1     111.230 131.288 137.866  0.00  0.00    +0.000 C 
ATOM     51  C   UNL     1     111.081 131.288 137.055  0.00  0.00    +0.000 C 
ATOM     52  C   UNL     1     111.359 130.669 136.584  0.00  0.00    +0.000 C 
ATOM     53  C   UNL     1     111.785 130.051 136.926  0.00  0.00    +0.000 C 
BRANCH  53  54
ATOM     54  C   UNL     1     112.063 129.433 136.456  0.00  0.00    +0.000 C 
BRANCH  54  55
ATOM     55  O   UNL     1     111.877 128.652 136.648  0.00  0.00    +0.000 OA
BRANCH  55  57
ATOM     56  O   UNL     1     112.808 128.189 135.668  0.00  0.00    +0.000 OA
ATOM     57  C   UNL     1     112.251 128.030 136.256  0.00  0.00    +0.000 C 
BRANCH  57  58
ATOM     58  C   UNL     1     112.069 127.250 136.452  0.00  0.00    +0.000 C 
ATOM     59  C   UNL     1     112.558 126.636 136.199  0.00  0.00    +0.000 C 
BRANCH  59  61
ATOM     60  O   UNL     1     111.833 123.513 136.983  0.00  0.00    +0.000 OA
ATOM     61  C   UNL     1     112.376 125.855 136.395  0.00  0.00    +0.000 A 
ATOM     62  C   UNL     1     112.971 125.346 136.653  0.00  0.00    +0.000 A 
ATOM     63  C   UNL     1     111.600 125.584 136.332  0.00  0.00    +0.000 A 
ATOM     64  C   UNL     1     112.791 124.566 136.849  0.00  0.00    +0.000 A 
ATOM     65  C   UNL     1     111.419 124.804 136.528  0.00  0.00    +0.000 A 
ATOM     66  C   UNL     1     112.014 124.295 136.786  0.00  0.00    +0.000 A 
BRANCH  64  67
ATOM     67  O   UNL     1     113.386 124.056 137.108  0.00  0.00    +0.000 OA
ATOM     68  C   UNL     1     114.143 124.349 137.256  0.00  0.00    +0.000 C 
ENDBRANCH  64  67
ENDBRANCH  59  61
ENDBRANCH  57  58
ENDBRANCH  55  57
ENDBRANCH  54  55
ENDBRANCH  53  54
ENDBRANCH  44  49
ENDBRANCH   4  44
TORSDOF 15
ENDMDL
