MODEL 1
REMARK VINA RESULT:      -8.0      0.000      0.000
REMARK  Name = 13889019
REMARK  4 active torsions:
REMARK  status: ('A' for Active; 'I' for Inactive)
REMARK    1  A    between atoms: O_2  and  C_14
REMARK    2  A    between atoms: O_4  and  C_16
REMARK    3  A    between atoms: O_6  and  C_18
REMARK    4  A    between atoms: C_8  and  C_10
REMARK                            x       y       z     vdW  Elec       q    Type
REMARK                         _______ _______ _______ _____ _____    ______ ____
ROOT
ATOM      1  O   UNL     1     106.665 125.368 146.542  0.00  0.00    +0.000 OA
ATOM      2  O   UNL     1     106.812 127.838 146.625  0.00  0.00    +0.000 OA
ATOM      3  O   UNL     1     106.367 127.939 145.257  0.00  0.00    +0.000 OA
ATOM      4  C   UNL     1     106.911 125.744 147.235  0.00  0.00    +0.000 C 
ATOM      5  C   UNL     1     106.960 126.567 147.262  0.00  0.00    +0.000 C 
ATOM      6  C   UNL     1     106.517 126.640 145.906  0.00  0.00    +0.000 A 
ATOM      7  C   UNL     1     106.468 125.816 145.878  0.00  0.00    +0.000 A 
ATOM      8  C   UNL     1     106.763 127.015 146.598  0.00  0.00    +0.000 C 
ATOM      9  C   UNL     1     106.213 125.414 145.163  0.00  0.00    +0.000 A 
ATOM     10  C   UNL     1     106.315 127.117 145.220  0.00  0.00    +0.000 A 
ATOM     11  C   UNL     1     106.007 125.874 144.468  0.00  0.00    +0.000 A 
ATOM     12  C   UNL     1     106.058 126.731 144.497  0.00  0.00    +0.000 A 
ENDROOT
BRANCH   4  14
ATOM     13  O   UNL     1     108.470 125.259 147.471  0.00  0.00    +0.000 OA
ATOM     14  C   UNL     1     107.108 125.296 147.899  0.00  0.00    +0.000 A 
ATOM     15  C   UNL     1     106.524 125.091 148.445  0.00  0.00    +0.000 A 
ATOM     16  C   UNL     1     107.888 125.054 148.017  0.00  0.00    +0.000 A 
ATOM     17  C   UNL     1     106.721 124.643 149.109  0.00  0.00    +0.000 A 
ATOM     18  C   UNL     1     108.083 124.605 148.682  0.00  0.00    +0.000 A 
ATOM     19  C   UNL     1     107.500 124.400 149.227  0.00  0.00    +0.000 A 
BRANCH  15  20
ATOM     20  O   UNL     1     105.744 125.334 148.327  0.00  0.00    +0.000 OA
ATOM     21  C   UNL     1     105.158 125.111 148.862  0.00  0.00    +0.000 C 
ENDBRANCH  15  20
ENDBRANCH   4  14
BRANCH   9  22
ATOM     22  O   UNL     1     106.167 124.590 145.144  0.00  0.00    +0.000 OA
ATOM     23  C   UNL     1     105.433 124.220 145.069  0.00  0.00    +0.000 C 
ENDBRANCH   9  22
BRANCH  11  24
ATOM     24  O   UNL     1     105.761 125.495 143.777  0.00  0.00    +0.000 OA
ATOM     25  C   UNL     1     105.927 125.831 143.042  0.00  0.00    +0.000 C 
ENDBRANCH  11  24
TORSDOF 4
ENDMDL
MODEL 2
REMARK VINA RESULT:      -7.6      9.079     11.715
REMARK  Name = 13889019
REMARK  4 active torsions:
REMARK  status: ('A' for Active; 'I' for Inactive)
REMARK    1  A    between atoms: O_2  and  C_14
REMARK    2  A    between atoms: O_4  and  C_16
REMARK    3  A    between atoms: O_6  and  C_18
REMARK    4  A    between atoms: C_8  and  C_10
REMARK                            x       y       z     vdW  Elec       q    Type
REMARK                         _______ _______ _______ _____ _____    ______ ____
ROOT
ATOM      1  O   UNL     1     111.821 126.259 137.142  0.00  0.00    +0.000 OA
ATOM      2  O   UNL     1     114.035 125.352 136.507  0.00  0.00    +0.000 OA
ATOM      3  O   UNL     1     114.537 125.566 137.842  0.00  0.00    +0.000 OA
ATOM      4  C   UNL     1     111.954 125.997 136.370  0.00  0.00    +0.000 C 
ATOM      5  C   UNL     1     112.692 125.694 136.159  0.00  0.00    +0.000 C 
ATOM      6  C   UNL     1     113.164 125.917 137.489  0.00  0.00    +0.000 A 
ATOM      7  C   UNL     1     112.427 126.219 137.701  0.00  0.00    +0.000 A 
ATOM      8  C   UNL     1     113.297 125.654 136.719  0.00  0.00    +0.000 C 
ATOM      9  C   UNL     1     112.276 126.496 138.501  0.00  0.00    +0.000 A 
ATOM     10  C   UNL     1     113.803 125.870 138.063  0.00  0.00    +0.000 A 
ATOM     11  C   UNL     1     112.902 126.457 139.087  0.00  0.00    +0.000 A 
ATOM     12  C   UNL     1     113.671 126.142 138.867  0.00  0.00    +0.000 A 
ENDROOT
BRANCH   4  14
ATOM     13  O   UNL     1     111.002 124.679 136.088  0.00  0.00    +0.000 OA
ATOM     14  C   UNL     1     111.349 126.037 135.812  0.00  0.00    +0.000 A 
ATOM     15  C   UNL     1     111.219 126.737 135.394  0.00  0.00    +0.000 A 
ATOM     16  C   UNL     1     110.873 125.378 135.670  0.00  0.00    +0.000 A 
ATOM     17  C   UNL     1     110.614 126.778 134.835  0.00  0.00    +0.000 A 
ATOM     18  C   UNL     1     110.267 125.420 135.111  0.00  0.00    +0.000 A 
ATOM     19  C   UNL     1     110.138 126.119 134.694  0.00  0.00    +0.000 A 
BRANCH  15  20
ATOM     20  O   UNL     1     111.695 127.396 135.535  0.00  0.00    +0.000 OA
ATOM     21  C   UNL     1     111.547 128.104 135.140  0.00  0.00    +0.000 C 
ENDBRANCH  15  20
ENDBRANCH   4  14
BRANCH   9  22
ATOM     22  O   UNL     1     111.535 126.797 138.703  0.00  0.00    +0.000 OA
ATOM     23  C   UNL     1     111.039 126.369 139.205  0.00  0.00    +0.000 C 
ENDBRANCH   9  22
BRANCH  11  24
ATOM     24  O   UNL     1     112.766 126.720 139.858  0.00  0.00    +0.000 OA
ATOM     25  C   UNL     1     113.403 126.890 140.354  0.00  0.00    +0.000 C 
ENDBRANCH  11  24
TORSDOF 4
ENDMDL
MODEL 3
REMARK VINA RESULT:      -7.6      2.056      3.830
REMARK  Name = 13889019
REMARK  4 active torsions:
REMARK  status: ('A' for Active; 'I' for Inactive)
REMARK    1  A    between atoms: O_2  and  C_14
REMARK    2  A    between atoms: O_4  and  C_16
REMARK    3  A    between atoms: O_6  and  C_18
REMARK    4  A    between atoms: C_8  and  C_10
REMARK                            x       y       z     vdW  Elec       q    Type
REMARK                         _______ _______ _______ _____ _____    ______ ____
ROOT
ATOM      1  O   UNL     1     104.868 124.310 147.069  0.00  0.00    +0.000 OA
ATOM      2  O   UNL     1     105.466 125.562 145.019  0.00  0.00    +0.000 OA
ATOM      3  O   UNL     1     106.758 125.896 145.566  0.00  0.00    +0.000 OA
ATOM      4  C   UNL     1     104.330 124.360 146.444  0.00  0.00    +0.000 C 
ATOM      5  C   UNL     1     104.530 124.777 145.760  0.00  0.00    +0.000 C 
ATOM      6  C   UNL     1     105.803 125.095 146.326  0.00  0.00    +0.000 A 
ATOM      7  C   UNL     1     105.604 124.677 147.009  0.00  0.00    +0.000 A 
ATOM      8  C   UNL     1     105.267 125.144 145.702  0.00  0.00    +0.000 C 
ATOM      9  C   UNL     1     106.155 124.618 147.667  0.00  0.00    +0.000 A 
ATOM     10  C   UNL     1     106.567 125.481 146.253  0.00  0.00    +0.000 A 
ATOM     11  C   UNL     1     106.923 124.998 147.611  0.00  0.00    +0.000 A 
ATOM     12  C   UNL     1     107.131 125.433 146.900  0.00  0.00    +0.000 A 
ENDROOT
BRANCH   4  14
ATOM     13  O   UNL     1     104.107 122.852 145.813  0.00  0.00    +0.000 OA
ATOM     14  C   UNL     1     103.594 123.993 146.503  0.00  0.00    +0.000 A 
ATOM     15  C   UNL     1     102.969 124.380 146.878  0.00  0.00    +0.000 A 
ATOM     16  C   UNL     1     103.482 123.238 146.188  0.00  0.00    +0.000 A 
ATOM     17  C   UNL     1     102.233 124.013 146.938  0.00  0.00    +0.000 A 
ATOM     18  C   UNL     1     102.745 122.872 146.248  0.00  0.00    +0.000 A 
ATOM     19  C   UNL     1     102.121 123.259 146.622  0.00  0.00    +0.000 A 
BRANCH  15  20
ATOM     20  O   UNL     1     103.081 125.134 147.194  0.00  0.00    +0.000 OA
ATOM     21  C   UNL     1     102.479 125.493 147.627  0.00  0.00    +0.000 C 
ENDBRANCH  15  20
ENDBRANCH   4  14
BRANCH   9  22
ATOM     22  O   UNL     1     105.946 124.199 148.346  0.00  0.00    +0.000 OA
ATOM     23  C   UNL     1     105.864 124.594 149.066  0.00  0.00    +0.000 C 
ENDBRANCH   9  22
BRANCH  11  24
ATOM     24  O   UNL     1     107.458 124.946 148.238  0.00  0.00    +0.000 OA
ATOM     25  C   UNL     1     108.269 124.979 148.091  0.00  0.00    +0.000 C 
ENDBRANCH  11  24
TORSDOF 4
ENDMDL
MODEL 4
REMARK VINA RESULT:      -7.6      1.991      3.201
REMARK  Name = 13889019
REMARK  4 active torsions:
REMARK  status: ('A' for Active; 'I' for Inactive)
REMARK    1  A    between atoms: O_2  and  C_14
REMARK    2  A    between atoms: O_4  and  C_16
REMARK    3  A    between atoms: O_6  and  C_18
REMARK    4  A    between atoms: C_8  and  C_10
REMARK                            x       y       z     vdW  Elec       q    Type
REMARK                         _______ _______ _______ _____ _____    ______ ____
ROOT
ATOM      1  O   UNL     1     105.096 124.501 147.217  0.00  0.00    +0.000 OA
ATOM      2  O   UNL     1     103.656 125.976 148.586  0.00  0.00    +0.000 OA
ATOM      3  O   UNL     1     102.467 125.412 147.996  0.00  0.00    +0.000 OA
ATOM      4  C   UNL     1     105.437 125.035 147.746  0.00  0.00    +0.000 C 
ATOM      5  C   UNL     1     104.957 125.527 148.202  0.00  0.00    +0.000 C 
ATOM      6  C   UNL     1     103.795 124.951 147.602  0.00  0.00    +0.000 A 
ATOM      7  C   UNL     1     104.275 124.459 147.146  0.00  0.00    +0.000 A 
ATOM      8  C   UNL     1     104.136 125.484 148.130  0.00  0.00    +0.000 C 
ATOM      9  C   UNL     1     103.932 123.898 146.592  0.00  0.00    +0.000 A 
ATOM     10  C   UNL     1     102.939 124.916 147.536  0.00  0.00    +0.000 A 
ATOM     11  C   UNL     1     103.078 123.849 146.512  0.00  0.00    +0.000 A 
ATOM     12  C   UNL     1     102.578 124.361 146.987  0.00  0.00    +0.000 A 
ENDROOT
BRANCH   4  14
ATOM     13  O   UNL     1     106.216 124.116 148.873  0.00  0.00    +0.000 OA
ATOM     14  C   UNL     1     106.257 125.077 147.817  0.00  0.00    +0.000 A 
ATOM     15  C   UNL     1     106.689 125.580 147.324  0.00  0.00    +0.000 A 
ATOM     16  C   UNL     1     106.647 124.618 148.381  0.00  0.00    +0.000 A 
ATOM     17  C   UNL     1     107.510 125.621 147.396  0.00  0.00    +0.000 A 
ATOM     18  C   UNL     1     107.468 124.661 148.452  0.00  0.00    +0.000 A 
ATOM     19  C   UNL     1     107.899 125.162 147.960  0.00  0.00    +0.000 A 
BRANCH  15  20
ATOM     20  O   UNL     1     106.299 126.039 146.761  0.00  0.00    +0.000 OA
ATOM     21  C   UNL     1     106.730 126.544 146.272  0.00  0.00    +0.000 C 
ENDBRANCH  15  20
ENDBRANCH   4  14
BRANCH   9  22
ATOM     22  O   UNL     1     104.420 123.410 146.139  0.00  0.00    +0.000 OA
ATOM     23  C   UNL     1     104.443 123.496 145.319  0.00  0.00    +0.000 C 
ENDBRANCH   9  22
BRANCH  11  24
ATOM     24  O   UNL     1     102.741 123.314 145.983  0.00  0.00    +0.000 OA
ATOM     25  C   UNL     1     101.938 123.132 146.036  0.00  0.00    +0.000 C 
ENDBRANCH  11  24
TORSDOF 4
ENDMDL
MODEL 5
REMARK VINA RESULT:      -7.6      9.992     11.893
REMARK  Name = 13889019
REMARK  4 active torsions:
REMARK  status: ('A' for Active; 'I' for Inactive)
REMARK    1  A    between atoms: O_2  and  C_14
REMARK    2  A    between atoms: O_4  and  C_16
REMARK    3  A    between atoms: O_6  and  C_18
REMARK    4  A    between atoms: C_8  and  C_10
REMARK                            x       y       z     vdW  Elec       q    Type
REMARK                         _______ _______ _______ _____ _____    ______ ____
ROOT
ATOM      1  O   UNL     1     112.383 126.550 136.309  0.00  0.00    +0.000 OA
ATOM      2  O   UNL     1     110.879 124.676 135.720  0.00  0.00    +0.000 OA
ATOM      3  O   UNL     1     110.022 125.561 134.970  0.00  0.00    +0.000 OA
ATOM      4  C   UNL     1     112.548 125.788 136.579  0.00  0.00    +0.000 C 
ATOM      5  C   UNL     1     112.047 125.163 136.383  0.00  0.00    +0.000 C 
ATOM      6  C   UNL     1     111.215 126.062 135.646  0.00  0.00    +0.000 A 
ATOM      7  C   UNL     1     111.717 126.687 135.843  0.00  0.00    +0.000 A 
ATOM      8  C   UNL     1     111.380 125.301 135.916  0.00  0.00    +0.000 C 
ATOM      9  C   UNL     1     111.555 127.485 135.567  0.00  0.00    +0.000 A 
ATOM     10  C   UNL     1     110.518 126.192 135.161  0.00  0.00    +0.000 A 
ATOM     11  C   UNL     1     110.863 127.634 135.081  0.00  0.00    +0.000 A 
ATOM     12  C   UNL     1     110.341 126.983 134.877  0.00  0.00    +0.000 A 
ENDROOT
BRANCH   4  14
ATOM     13  O   UNL     1     113.940 125.231 135.888  0.00  0.00    +0.000 OA
ATOM     14  C   UNL     1     113.215 125.651 137.045  0.00  0.00    +0.000 A 
ATOM     15  C   UNL     1     113.185 125.794 137.858  0.00  0.00    +0.000 A 
ATOM     16  C   UNL     1     113.911 125.373 136.700  0.00  0.00    +0.000 A 
ATOM     17  C   UNL     1     113.852 125.657 138.324  0.00  0.00    +0.000 A 
ATOM     18  C   UNL     1     114.577 125.237 137.167  0.00  0.00    +0.000 A 
ATOM     19  C   UNL     1     114.548 125.379 137.979  0.00  0.00    +0.000 A 
BRANCH  15  20
ATOM     20  O   UNL     1     112.490 126.072 138.203  0.00  0.00    +0.000 OA
ATOM     21  C   UNL     1     112.468 126.238 139.010  0.00  0.00    +0.000 C 
ENDBRANCH  15  20
ENDBRANCH   4  14
BRANCH   9  22
ATOM     22  O   UNL     1     112.063 128.104 135.769  0.00  0.00    +0.000 OA
ATOM     23  C   UNL     1     112.523 128.466 135.187  0.00  0.00    +0.000 C 
ENDBRANCH   9  22
BRANCH  11  24
ATOM     24  O   UNL     1     110.701 128.397 134.813  0.00  0.00    +0.000 OA
ATOM     25  C   UNL     1     109.927 128.613 134.626  0.00  0.00    +0.000 C 
ENDBRANCH  11  24
TORSDOF 4
ENDMDL
MODEL 6
REMARK VINA RESULT:      -7.5      9.540     11.963
REMARK  Name = 13889019
REMARK  4 active torsions:
REMARK  status: ('A' for Active; 'I' for Inactive)
REMARK    1  A    between atoms: O_2  and  C_14
REMARK    2  A    between atoms: O_4  and  C_16
REMARK    3  A    between atoms: O_6  and  C_18
REMARK    4  A    between atoms: C_8  and  C_10
REMARK                            x       y       z     vdW  Elec       q    Type
REMARK                         _______ _______ _______ _____ _____    ______ ____
ROOT
ATOM      1  O   UNL     1     111.772 125.921 136.219  0.00  0.00    +0.000 OA
ATOM      2  O   UNL     1     111.632 123.518 136.794  0.00  0.00    +0.000 OA
ATOM      3  O   UNL     1     113.065 123.439 136.938  0.00  0.00    +0.000 OA
ATOM      4  C   UNL     1     111.037 125.546 136.247  0.00  0.00    +0.000 C 
ATOM      5  C   UNL     1     110.990 124.744 136.438  0.00  0.00    +0.000 C 
ATOM      6  C   UNL     1     112.412 124.694 136.574  0.00  0.00    +0.000 A 
ATOM      7  C   UNL     1     112.459 125.495 136.383  0.00  0.00    +0.000 A 
ATOM      8  C   UNL     1     111.678 124.319 136.602  0.00  0.00    +0.000 C 
ATOM      9  C   UNL     1     113.218 125.897 136.351  0.00  0.00    +0.000 A 
ATOM     10  C   UNL     1     113.121 124.240 136.747  0.00  0.00    +0.000 A 
ATOM     11  C   UNL     1     113.937 125.459 136.520  0.00  0.00    +0.000 A 
ATOM     12  C   UNL     1     113.888 124.625 136.720  0.00  0.00    +0.000 A 
ENDROOT
BRANCH   4  14
ATOM     13  O   UNL     1     110.492 125.669 134.694  0.00  0.00    +0.000 OA
ATOM     14  C   UNL     1     110.350 125.972 136.083  0.00  0.00    +0.000 A 
ATOM     15  C   UNL     1     109.935 126.337 136.696  0.00  0.00    +0.000 A 
ATOM     16  C   UNL     1     110.078 126.034 135.307  0.00  0.00    +0.000 A 
ATOM     17  C   UNL     1     109.249 126.763 136.532  0.00  0.00    +0.000 A 
ATOM     18  C   UNL     1     109.391 126.460 135.144  0.00  0.00    +0.000 A 
ATOM     19  C   UNL     1     108.976 126.825 135.756  0.00  0.00    +0.000 A 
BRANCH  15  20
ATOM     20  O   UNL     1     110.208 126.275 137.473  0.00  0.00    +0.000 OA
ATOM     21  C   UNL     1     109.794 126.641 138.085  0.00  0.00    +0.000 C 
ENDBRANCH  15  20
ENDBRANCH   4  14
BRANCH   9  22
ATOM     22  O   UNL     1     113.255 126.699 136.158  0.00  0.00    +0.000 OA
ATOM     23  C   UNL     1     113.462 127.252 136.735  0.00  0.00    +0.000 C 
ENDBRANCH   9  22
BRANCH  11  24
ATOM     24  O   UNL     1     114.670 125.838 136.492  0.00  0.00    +0.000 OA
ATOM     25  C   UNL     1     115.338 125.424 136.241  0.00  0.00    +0.000 C 
ENDBRANCH  11  24
TORSDOF 4
ENDMDL
MODEL 7
REMARK VINA RESULT:      -7.4      2.621      4.066
REMARK  Name = 13889019
REMARK  4 active torsions:
REMARK  status: ('A' for Active; 'I' for Inactive)
REMARK    1  A    between atoms: O_2  and  C_14
REMARK    2  A    between atoms: O_4  and  C_16
REMARK    3  A    between atoms: O_6  and  C_18
REMARK    4  A    between atoms: C_8  and  C_10
REMARK                            x       y       z     vdW  Elec       q    Type
REMARK                         _______ _______ _______ _____ _____    ______ ____
ROOT
ATOM      1  O   UNL     1     104.092 124.488 147.423  0.00  0.00    +0.000 OA
ATOM      2  O   UNL     1     104.339 123.723 145.082  0.00  0.00    +0.000 OA
ATOM      3  O   UNL     1     103.034 123.111 145.114  0.00  0.00    +0.000 OA
ATOM      4  C   UNL     1     104.783 124.659 147.003  0.00  0.00    +0.000 C 
ATOM      5  C   UNL     1     104.865 124.404 146.223  0.00  0.00    +0.000 C 
ATOM      6  C   UNL     1     103.568 123.807 146.282  0.00  0.00    +0.000 A 
ATOM      7  C   UNL     1     103.486 124.062 147.062  0.00  0.00    +0.000 A 
ATOM      8  C   UNL     1     104.257 123.978 145.863  0.00  0.00    +0.000 C 
ATOM      9  C   UNL     1     102.772 123.890 147.509  0.00  0.00    +0.000 A 
ATOM     10  C   UNL     1     102.942 123.362 145.895  0.00  0.00    +0.000 A 
ATOM     11  C   UNL     1     102.136 123.447 147.139  0.00  0.00    +0.000 A 
ATOM     12  C   UNL     1     102.222 123.181 146.326  0.00  0.00    +0.000 A 
ENDROOT
BRANCH   4  14
ATOM     13  O   UNL     1     105.961 123.867 147.843  0.00  0.00    +0.000 OA
ATOM     14  C   UNL     1     105.389 125.085 147.365  0.00  0.00    +0.000 A 
ATOM     15  C   UNL     1     105.406 125.909 147.306  0.00  0.00    +0.000 A 
ATOM     16  C   UNL     1     105.979 124.690 147.785  0.00  0.00    +0.000 A 
ATOM     17  C   UNL     1     106.013 126.335 147.667  0.00  0.00    +0.000 A 
ATOM     18  C   UNL     1     106.585 125.117 148.146  0.00  0.00    +0.000 A 
ATOM     19  C   UNL     1     106.603 125.939 148.087  0.00  0.00    +0.000 A 
BRANCH  15  20
ATOM     20  O   UNL     1     104.817 126.305 146.886  0.00  0.00    +0.000 OA
ATOM     21  C   UNL     1     104.830 127.127 146.834  0.00  0.00    +0.000 C 
ENDBRANCH  15  20
ENDBRANCH   4  14
BRANCH   9  22
ATOM     22  O   UNL     1     102.699 124.149 148.289  0.00  0.00    +0.000 OA
ATOM     23  C   UNL     1     102.153 124.739 148.478  0.00  0.00    +0.000 C 
ENDBRANCH   9  22
BRANCH  11  24
ATOM     24  O   UNL     1     101.448 123.277 147.561  0.00  0.00    +0.000 OA
ATOM     25  C   UNL     1     100.900 122.739 147.258  0.00  0.00    +0.000 C 
ENDBRANCH  11  24
TORSDOF 4
ENDMDL
MODEL 8
REMARK VINA RESULT:      -7.3      9.292     10.857
REMARK  Name = 13889019
REMARK  4 active torsions:
REMARK  status: ('A' for Active; 'I' for Inactive)
REMARK    1  A    between atoms: O_2  and  C_14
REMARK    2  A    between atoms: O_4  and  C_16
REMARK    3  A    between atoms: O_6  and  C_18
REMARK    4  A    between atoms: C_8  and  C_10
REMARK                            x       y       z     vdW  Elec       q    Type
REMARK                         _______ _______ _______ _____ _____    ______ ____
ROOT
ATOM      1  O   UNL     1     111.519 125.843 136.777  0.00  0.00    +0.000 OA
ATOM      2  O   UNL     1     110.382 125.761 138.974  0.00  0.00    +0.000 OA
ATOM      3  O   UNL     1     109.215 126.407 138.427  0.00  0.00    +0.000 OA
ATOM      4  C   UNL     1     111.902 125.509 137.427  0.00  0.00    +0.000 C 
ATOM      5  C   UNL     1     111.523 125.482 138.160  0.00  0.00    +0.000 C 
ATOM      6  C   UNL     1     110.379 126.123 137.592  0.00  0.00    +0.000 A 
ATOM      7  C   UNL     1     110.758 126.150 136.860  0.00  0.00    +0.000 A 
ATOM      8  C   UNL     1     110.761 125.789 138.241  0.00  0.00    +0.000 C 
ATOM      9  C   UNL     1     110.370 126.496 136.175  0.00  0.00    +0.000 A 
ATOM     10  C   UNL     1     109.586 126.439 137.690  0.00  0.00    +0.000 A 
ATOM     11  C   UNL     1     109.577 126.817 136.254  0.00  0.00    +0.000 A 
ATOM     12  C   UNL     1     109.182 126.788 137.017  0.00  0.00    +0.000 A 
ENDROOT
BRANCH   4  14
ATOM     13  O   UNL     1     113.214 126.482 137.658  0.00  0.00    +0.000 OA
ATOM     14  C   UNL     1     112.663 125.202 137.345  0.00  0.00    +0.000 A 
ATOM     15  C   UNL     1     112.768 124.408 137.146  0.00  0.00    +0.000 A 
ATOM     16  C   UNL     1     113.319 125.689 137.460  0.00  0.00    +0.000 A 
ATOM     17  C   UNL     1     113.529 124.101 137.063  0.00  0.00    +0.000 A 
ATOM     18  C   UNL     1     114.080 125.381 137.377  0.00  0.00    +0.000 A 
ATOM     19  C   UNL     1     114.185 124.588 137.178  0.00  0.00    +0.000 A 
BRANCH  15  20
ATOM     20  O   UNL     1     112.112 123.921 137.031  0.00  0.00    +0.000 OA
ATOM     21  C   UNL     1     112.217 123.121 136.860  0.00  0.00    +0.000 C 
ENDBRANCH  15  20
ENDBRANCH   4  14
BRANCH   9  22
ATOM     22  O   UNL     1     110.756 126.519 135.447  0.00  0.00    +0.000 OA
ATOM     23  C   UNL     1     110.484 126.055 134.820  0.00  0.00    +0.000 C 
ENDBRANCH   9  22
BRANCH  11  24
ATOM     24  O   UNL     1     109.197 127.151 135.602  0.00  0.00    +0.000 OA
ATOM     25  C   UNL     1     108.591 127.700 135.714  0.00  0.00    +0.000 C 
ENDBRANCH  11  24
TORSDOF 4
ENDMDL
MODEL 9
REMARK VINA RESULT:      -7.3      9.931     11.273
REMARK  Name = 13889019
REMARK  4 active torsions:
REMARK  status: ('A' for Active; 'I' for Inactive)
REMARK    1  A    between atoms: O_2  and  C_14
REMARK    2  A    between atoms: O_4  and  C_16
REMARK    3  A    between atoms: O_6  and  C_18
REMARK    4  A    between atoms: C_8  and  C_10
REMARK                            x       y       z     vdW  Elec       q    Type
REMARK                         _______ _______ _______ _____ _____    ______ ____
ROOT
ATOM      1  O   UNL     1     112.886 126.726 137.568  0.00  0.00    +0.000 OA
ATOM      2  O   UNL     1     113.138 126.734 140.030  0.00  0.00    +0.000 OA
ATOM      3  O   UNL     1     113.263 128.170 140.042  0.00  0.00    +0.000 OA
ATOM      4  C   UNL     1     112.867 126.015 137.987  0.00  0.00    +0.000 C 
ATOM      5  C   UNL     1     112.951 126.018 138.808  0.00  0.00    +0.000 C 
ATOM      6  C   UNL     1     113.072 127.441 138.791  0.00  0.00    +0.000 A 
ATOM      7  C   UNL     1     112.988 127.439 137.971  0.00  0.00    +0.000 A 
ATOM      8  C   UNL     1     113.054 126.731 139.209  0.00  0.00    +0.000 C 
ATOM      9  C   UNL     1     113.006 128.173 137.523  0.00  0.00    +0.000 A 
ATOM     10  C   UNL     1     113.180 128.178 139.221  0.00  0.00    +0.000 A 
ATOM     11  C   UNL     1     113.113 128.918 137.936  0.00  0.00    +0.000 A 
ATOM     12  C   UNL     1     113.200 128.921 138.791  0.00  0.00    +0.000 A 
ENDROOT
BRANCH   4  14
ATOM     13  O   UNL     1     111.349 125.430 137.716  0.00  0.00    +0.000 OA
ATOM     14  C   UNL     1     112.765 125.303 137.585  0.00  0.00    +0.000 A 
ATOM     15  C   UNL     1     113.423 124.882 137.317  0.00  0.00    +0.000 A 
ATOM     16  C   UNL     1     112.006 125.010 137.449  0.00  0.00    +0.000 A 
ATOM     17  C   UNL     1     113.321 124.169 136.915  0.00  0.00    +0.000 A 
ATOM     18  C   UNL     1     111.904 124.297 137.046  0.00  0.00    +0.000 A 
ATOM     19  C   UNL     1     112.561 123.877 136.779  0.00  0.00    +0.000 A 
BRANCH  15  20
ATOM     20  O   UNL     1     114.183 125.174 137.453  0.00  0.00    +0.000 OA
ATOM     21  C   UNL     1     114.839 124.759 137.178  0.00  0.00    +0.000 C 
ENDBRANCH  15  20
ENDBRANCH   4  14
BRANCH   9  22
ATOM     22  O   UNL     1     112.921 128.160 136.703  0.00  0.00    +0.000 OA
ATOM     23  C   UNL     1     113.561 128.355 136.219  0.00  0.00    +0.000 C 
ENDBRANCH   9  22
BRANCH  11  24
ATOM     24  O   UNL     1     113.131 129.628 137.514  0.00  0.00    +0.000 OA
ATOM     25  C   UNL     1     113.039 130.345 137.911  0.00  0.00    +0.000 C 
ENDBRANCH  11  24
TORSDOF 4
ENDMDL
MODEL 10
REMARK VINA RESULT:      -7.3      9.499     11.582
REMARK  Name = 13889019
REMARK  4 active torsions:
REMARK  status: ('A' for Active; 'I' for Inactive)
REMARK    1  A    between atoms: O_2  and  C_14
REMARK    2  A    between atoms: O_4  and  C_16
REMARK    3  A    between atoms: O_6  and  C_18
REMARK    4  A    between atoms: C_8  and  C_10
REMARK                            x       y       z     vdW  Elec       q    Type
REMARK                         _______ _______ _______ _____ _____    ______ ____
ROOT
ATOM      1  O   UNL     1     112.838 126.725 137.660  0.00  0.00    +0.000 OA
ATOM      2  O   UNL     1     113.911 128.106 135.908  0.00  0.00    +0.000 OA
ATOM      3  O   UNL     1     113.595 129.315 136.627  0.00  0.00    +0.000 OA
ATOM      4  C   UNL     1     113.180 126.364 137.001  0.00  0.00    +0.000 C 
ATOM      5  C   UNL     1     113.537 126.824 136.417  0.00  0.00    +0.000 C 
ATOM      6  C   UNL     1     113.212 128.007 137.150  0.00  0.00    +0.000 A 
ATOM      7  C   UNL     1     112.855 127.546 137.734  0.00  0.00    +0.000 A 
ATOM      8  C   UNL     1     113.553 127.645 136.492  0.00  0.00    +0.000 C 
ATOM      9  C   UNL     1     112.496 127.911 138.425  0.00  0.00    +0.000 A 
ATOM     10  C   UNL     1     113.236 128.863 137.216  0.00  0.00    +0.000 A 
ATOM     11  C   UNL     1     112.510 128.766 138.508  0.00  0.00    +0.000 A 
ATOM     12  C   UNL     1     112.882 129.245 137.900  0.00  0.00    +0.000 A 
ENDROOT
BRANCH   4  14
ATOM     13  O   UNL     1     114.443 125.458 137.556  0.00  0.00    +0.000 OA
ATOM     14  C   UNL     1     113.163 125.542 136.927  0.00  0.00    +0.000 A 
ATOM     15  C   UNL     1     112.514 125.173 136.575  0.00  0.00    +0.000 A 
ATOM     16  C   UNL     1     113.795 125.090 137.204  0.00  0.00    +0.000 A 
ATOM     17  C   UNL     1     112.497 124.352 136.501  0.00  0.00    +0.000 A 
ATOM     18  C   UNL     1     113.777 124.268 137.130  0.00  0.00    +0.000 A 
ATOM     19  C   UNL     1     113.129 123.899 136.778  0.00  0.00    +0.000 A 
BRANCH  15  20
ATOM     20  O   UNL     1     111.883 125.626 136.297  0.00  0.00    +0.000 OA
ATOM     21  C   UNL     1     111.224 125.256 135.967  0.00  0.00    +0.000 C 
ENDBRANCH  15  20
ENDBRANCH   4  14
BRANCH   9  22
ATOM     22  O   UNL     1     112.141 127.443 139.004  0.00  0.00    +0.000 OA
ATOM     23  C   UNL     1     112.490 127.373 139.749  0.00  0.00    +0.000 C 
ENDBRANCH   9  22
BRANCH  11  24
ATOM     24  O   UNL     1     112.168 129.124 139.168  0.00  0.00    +0.000 OA
ATOM     25  C   UNL     1     111.999 129.932 139.157  0.00  0.00    +0.000 C 
ENDBRANCH  11  24
TORSDOF 4
ENDMDL
