MODEL 1
REMARK VINA RESULT:     -10.6      0.000      0.000
REMARK  Name = 125896
REMARK  8 active torsions:
REMARK  status: ('A' for Active; 'I' for Inactive)
REMARK    1  A    between atoms: O_2  and  C_22
REMARK    2  A    between atoms: O_2  and  C_24
REMARK    3  A    between atoms: O_4  and  C_20
REMARK    4  A    between atoms: O_4  and  C_28
REMARK    5  A    between atoms: C_16  and  C_24
REMARK    6  A    between atoms: C_31  and  C_38
REMARK    7  A    between atoms: C_35  and  C_37
REMARK    8  A    between atoms: C_37  and  C_39
REMARK                            x       y       z     vdW  Elec       q    Type
REMARK                         _______ _______ _______ _____ _____    ______ ____
ROOT
ATOM      1  O   UNL     1     112.509 126.274 138.454  0.00  0.00    +0.000 OA
ATOM      2  O   UNL     1     110.304 125.696 136.020  0.00  0.00    +0.000 OA
ATOM      3  O   UNL     1     111.769 124.937 136.011  0.00  0.00    +0.000 OA
ATOM      4  O   UNL     1     110.258 127.433 138.460  0.00  0.00    +0.000 OA
ATOM      5  C   UNL     1     110.658 126.365 137.233  0.00  0.00    +0.000 A 
ATOM      6  C   UNL     1     111.202 126.511 137.836  0.00  0.00    +0.000 A 
ATOM      7  C   UNL     1     111.934 126.131 137.831  0.00  0.00    +0.000 A 
ATOM      8  C   UNL     1     112.318 126.819 139.090  0.00  0.00    +0.000 C 
ATOM      9  C   UNL     1     110.847 125.841 136.624  0.00  0.00    +0.000 A 
ATOM     10  C   UNL     1     111.555 127.214 139.095  0.00  0.00    +0.000 C 
ATOM     11  C   UNL     1     110.993 127.059 138.464  0.00  0.00    +0.000 C 
ATOM     12  C   UNL     1     112.124 125.607 137.223  0.00  0.00    +0.000 A 
ATOM     13  C   UNL     1     111.580 125.462 136.620  0.00  0.00    +0.000 A 
ENDROOT
BRANCH   8  15
ATOM     14  O   UNL     1     114.499 127.391 141.500  0.00  0.00    +0.000 OA
ATOM     15  C   UNL     1     112.864 126.962 139.692  0.00  0.00    +0.000 A 
ATOM     16  C   UNL     1     112.803 126.558 140.409  0.00  0.00    +0.000 A 
ATOM     17  C   UNL     1     113.470 127.510 139.578  0.00  0.00    +0.000 A 
ATOM     18  C   UNL     1     113.348 126.701 141.011  0.00  0.00    +0.000 A 
ATOM     19  C   UNL     1     114.015 127.653 140.180  0.00  0.00    +0.000 A 
ATOM     20  C   UNL     1     113.954 127.248 140.897  0.00  0.00    +0.000 A 
ENDBRANCH   8  15
BRANCH   5  21
ATOM     21  O   UNL     1     109.926 126.744 137.237  0.00  0.00    +0.000 OA
BRANCH  21  30
ATOM     22  O   UNL     1     110.399 127.863 136.485  0.00  0.00    +0.000 OA
ATOM     23  O   UNL     1     109.346 129.244 135.162  0.00  0.00    +0.000 OA
ATOM     24  O   UNL     1     108.110 128.256 135.628  0.00  0.00    +0.000 OA
ATOM     25  O   UNL     1     108.400 127.006 136.666  0.00  0.00    +0.000 OA
ATOM     26  C   UNL     1     110.254 128.488 135.967  0.00  0.00    +0.000 C 
ATOM     27  C   UNL     1     109.491 128.619 135.681  0.00  0.00    +0.000 C 
ATOM     28  C   UNL     1     108.873 128.125 135.914  0.00  0.00    +0.000 C 
ATOM     29  C   UNL     1     109.018 127.500 136.433  0.00  0.00    +0.000 C 
ATOM     30  C   UNL     1     109.781 127.369 136.718  0.00  0.00    +0.000 C 
BRANCH  26  31
ATOM     31  C   UNL     1     110.872 128.983 135.733  0.00  0.00    +0.000 C 
BRANCH  31  32
ATOM     32  O   UNL     1     111.221 129.493 136.280  0.00  0.00    +0.000 OA
BRANCH  32  38
ATOM     33  O   UNL     1     112.540 129.161 135.843  0.00  0.00    +0.000 OA
ATOM     34  O   UNL     1     111.782 130.920 136.889  0.00  0.00    +0.000 OA
ATOM     35  O   UNL     1     113.382 131.301 136.758  0.00  0.00    +0.000 OA
ATOM     36  O   UNL     1     114.421 130.256 136.016  0.00  0.00    +0.000 OA
ATOM     37  C   UNL     1     112.301 130.397 136.519  0.00  0.00    +0.000 C 
ATOM     38  C   UNL     1     112.020 129.684 136.214  0.00  0.00    +0.000 C 
ATOM     39  C   UNL     1     113.102 130.588 136.453  0.00  0.00    +0.000 C 
ATOM     40  C   UNL     1     113.620 130.065 136.082  0.00  0.00    +0.000 C 
ATOM     41  C   UNL     1     113.340 129.351 135.777  0.00  0.00    +0.000 C 
ATOM     42  C   UNL     1     113.860 128.829 135.406  0.00  0.00    +0.000 C 
ENDBRANCH  32  38
ENDBRANCH  31  32
ENDBRANCH  26  31
ENDBRANCH  21  30
ENDBRANCH   5  21
BRANCH  12  43
ATOM     43  C   UNL     1     112.856 125.227 137.218  0.00  0.00    +0.000 C 
BRANCH  43  44
ATOM     44  C   UNL     1     113.434 125.453 136.675  0.00  0.00    +0.000 C 
ATOM     45  C   UNL     1     114.186 125.114 136.707  0.00  0.00    +0.000 C 
ATOM     46  C   UNL     1     114.764 125.340 136.165  0.00  0.00    +0.000 C 
ATOM     47  C   UNL     1     114.359 124.550 137.284  0.00  0.00    +0.000 C 
ENDBRANCH  43  44
ENDBRANCH  12  43
TORSDOF 8
ENDMDL
MODEL 2
REMARK VINA RESULT:     -10.6      1.861      3.620
REMARK  Name = 125896
REMARK  8 active torsions:
REMARK  status: ('A' for Active; 'I' for Inactive)
REMARK    1  A    between atoms: O_2  and  C_22
REMARK    2  A    between atoms: O_2  and  C_24
REMARK    3  A    between atoms: O_4  and  C_20
REMARK    4  A    between atoms: O_4  and  C_28
REMARK    5  A    between atoms: C_16  and  C_24
REMARK    6  A    between atoms: C_31  and  C_38
REMARK    7  A    between atoms: C_35  and  C_37
REMARK    8  A    between atoms: C_37  and  C_39
REMARK                            x       y       z     vdW  Elec       q    Type
REMARK                         _______ _______ _______ _____ _____    ______ ____
ROOT
ATOM      1  O   UNL     1     111.764 125.875 137.108  0.00  0.00    +0.000 OA
ATOM      2  O   UNL     1     108.943 126.482 138.781  0.00  0.00    +0.000 OA
ATOM      3  O   UNL     1     108.948 126.490 137.131  0.00  0.00    +0.000 OA
ATOM      4  O   UNL     1     111.746 125.864 139.641  0.00  0.00    +0.000 OA
ATOM      5  C   UNL     1     110.340 126.177 138.784  0.00  0.00    +0.000 A 
ATOM      6  C   UNL     1     111.039 126.026 138.373  0.00  0.00    +0.000 A 
ATOM      7  C   UNL     1     111.041 126.030 137.548  0.00  0.00    +0.000 A 
ATOM      8  C   UNL     1     112.492 125.713 137.534  0.00  0.00    +0.000 C 
ATOM      9  C   UNL     1     109.642 126.332 138.370  0.00  0.00    +0.000 A 
ATOM     10  C   UNL     1     112.489 125.709 138.393  0.00  0.00    +0.000 C 
ATOM     11  C   UNL     1     111.758 125.866 138.816  0.00  0.00    +0.000 C 
ATOM     12  C   UNL     1     110.345 126.185 137.134  0.00  0.00    +0.000 A 
ATOM     13  C   UNL     1     109.646 126.336 137.545  0.00  0.00    +0.000 A 
ENDROOT
BRANCH   8  15
ATOM     14  O   UNL     1     115.283 125.111 135.880  0.00  0.00    +0.000 OA
ATOM     15  C   UNL     1     113.190 125.563 137.120  0.00  0.00    +0.000 A 
ATOM     16  C   UNL     1     113.378 124.791 136.895  0.00  0.00    +0.000 A 
ATOM     17  C   UNL     1     113.700 126.183 136.932  0.00  0.00    +0.000 A 
ATOM     18  C   UNL     1     114.076 124.641 136.481  0.00  0.00    +0.000 A 
ATOM     19  C   UNL     1     114.398 126.033 136.519  0.00  0.00    +0.000 A 
ATOM     20  C   UNL     1     114.585 125.261 136.293  0.00  0.00    +0.000 A 
ENDBRANCH   8  15
BRANCH   5  21
ATOM     21  O   UNL     1     110.336 126.173 139.609  0.00  0.00    +0.000 OA
BRANCH  21  30
ATOM     22  O   UNL     1     110.496 127.591 139.677  0.00  0.00    +0.000 OA
ATOM     23  O   UNL     1     110.035 129.006 141.274  0.00  0.00    +0.000 OA
ATOM     24  O   UNL     1     109.565 127.586 141.970  0.00  0.00    +0.000 OA
ATOM     25  O   UNL     1     109.715 126.170 141.138  0.00  0.00    +0.000 OA
ATOM     26  C   UNL     1     110.421 128.299 140.093  0.00  0.00    +0.000 C 
ATOM     27  C   UNL     1     110.110 128.298 140.857  0.00  0.00    +0.000 C 
ATOM     28  C   UNL     1     109.875 127.587 141.206  0.00  0.00    +0.000 C 
ATOM     29  C   UNL     1     109.950 126.879 140.790  0.00  0.00    +0.000 C 
ATOM     30  C   UNL     1     110.261 126.881 140.025  0.00  0.00    +0.000 C 
BRANCH  26  31
ATOM     31  C   UNL     1     110.656 129.010 139.745  0.00  0.00    +0.000 C 
BRANCH  31  32
ATOM     32  O   UNL     1     111.429 129.099 139.470  0.00  0.00    +0.000 OA
BRANCH  32  38
ATOM     33  O   UNL     1     111.062 129.770 138.263  0.00  0.00    +0.000 OA
ATOM     34  O   UNL     1     112.832 129.965 139.525  0.00  0.00    +0.000 OA
ATOM     35  O   UNL     1     113.167 131.069 138.346  0.00  0.00    +0.000 OA
ATOM     36  O   UNL     1     112.098 131.307 137.111  0.00  0.00    +0.000 OA
ATOM     37  C   UNL     1     112.297 130.083 138.909  0.00  0.00    +0.000 C 
ATOM     38  C   UNL     1     111.596 129.650 138.881  0.00  0.00    +0.000 C 
ATOM     39  C   UNL     1     112.465 130.636 138.318  0.00  0.00    +0.000 C 
ATOM     40  C   UNL     1     111.930 130.755 137.702  0.00  0.00    +0.000 C 
ATOM     41  C   UNL     1     111.229 130.321 137.674  0.00  0.00    +0.000 C 
ATOM     42  C   UNL     1     110.695 130.441 137.056  0.00  0.00    +0.000 C 
ENDBRANCH  32  38
ENDBRANCH  31  32
ENDBRANCH  26  31
ENDBRANCH  21  30
ENDBRANCH   5  21
BRANCH  12  43
ATOM     43  C   UNL     1     110.347 126.189 136.309  0.00  0.00    +0.000 C 
BRANCH  43  44
ATOM     44  C   UNL     1     110.299 126.903 135.900  0.00  0.00    +0.000 C 
ATOM     45  C   UNL     1     110.319 126.908 135.075  0.00  0.00    +0.000 C 
ATOM     46  C   UNL     1     110.271 127.622 134.665  0.00  0.00    +0.000 C 
ATOM     47  C   UNL     1     110.386 126.199 134.660  0.00  0.00    +0.000 C 
ENDBRANCH  43  44
ENDBRANCH  12  43
TORSDOF 8
ENDMDL
MODEL 3
REMARK VINA RESULT:     -10.5      2.025      3.598
REMARK  Name = 125896
REMARK  8 active torsions:
REMARK  status: ('A' for Active; 'I' for Inactive)
REMARK    1  A    between atoms: O_2  and  C_22
REMARK    2  A    between atoms: O_2  and  C_24
REMARK    3  A    between atoms: O_4  and  C_20
REMARK    4  A    between atoms: O_4  and  C_28
REMARK    5  A    between atoms: C_16  and  C_24
REMARK    6  A    between atoms: C_31  and  C_38
REMARK    7  A    between atoms: C_35  and  C_37
REMARK    8  A    between atoms: C_37  and  C_39
REMARK                            x       y       z     vdW  Elec       q    Type
REMARK                         _______ _______ _______ _____ _____    ______ ____
ROOT
ATOM      1  O   UNL     1     113.009 127.453 136.402  0.00  0.00    +0.000 OA
ATOM      2  O   UNL     1     110.813 129.909 135.883  0.00  0.00    +0.000 OA
ATOM      3  O   UNL     1     112.291 129.947 135.149  0.00  0.00    +0.000 OA
ATOM      4  O   UNL     1     110.739 127.404 137.524  0.00  0.00    +0.000 OA
ATOM      5  C   UNL     1     111.157 128.672 136.511  0.00  0.00    +0.000 A 
ATOM      6  C   UNL     1     111.697 128.063 136.641  0.00  0.00    +0.000 A 
ATOM      7  C   UNL     1     112.436 128.082 136.274  0.00  0.00    +0.000 A 
ATOM      8  C   UNL     1     112.808 126.796 136.919  0.00  0.00    +0.000 C 
ATOM      9  C   UNL     1     111.354 129.300 136.013  0.00  0.00    +0.000 A 
ATOM     10  C   UNL     1     112.039 126.777 137.301  0.00  0.00    +0.000 C 
ATOM     11  C   UNL     1     111.479 127.414 137.161  0.00  0.00    +0.000 C 
ATOM     12  C   UNL     1     112.634 128.709 135.777  0.00  0.00    +0.000 A 
ATOM     13  C   UNL     1     112.093 129.318 135.646  0.00  0.00    +0.000 A 
ENDROOT
BRANCH   8  15
ATOM     14  O   UNL     1     114.980 124.366 137.434  0.00  0.00    +0.000 OA
ATOM     15  C   UNL     1     113.351 126.189 137.047  0.00  0.00    +0.000 A 
ATOM     16  C   UNL     1     113.839 126.205 137.712  0.00  0.00    +0.000 A 
ATOM     17  C   UNL     1     113.406 125.564 136.511  0.00  0.00    +0.000 A 
ATOM     18  C   UNL     1     114.382 125.598 137.841  0.00  0.00    +0.000 A 
ATOM     19  C   UNL     1     113.949 124.956 136.640  0.00  0.00    +0.000 A 
ATOM     20  C   UNL     1     114.437 124.974 137.305  0.00  0.00    +0.000 A 
ENDBRANCH   8  15
BRANCH   5  21
ATOM     21  O   UNL     1     110.418 128.654 136.877  0.00  0.00    +0.000 OA
BRANCH  21  30
ATOM     22  O   UNL     1     110.840 129.459 137.979  0.00  0.00    +0.000 OA
ATOM     23  O   UNL     1     109.715 130.798 139.285  0.00  0.00    +0.000 OA
ATOM     24  O   UNL     1     108.519 130.260 138.284  0.00  0.00    +0.000 OA
ATOM     25  O   UNL     1     108.870 129.188 137.081  0.00  0.00    +0.000 OA
ATOM     26  C   UNL     1     110.664 129.995 138.581  0.00  0.00    +0.000 C 
ATOM     27  C   UNL     1     109.891 130.262 138.683  0.00  0.00    +0.000 C 
ATOM     28  C   UNL     1     109.292 129.993 138.182  0.00  0.00    +0.000 C 
ATOM     29  C   UNL     1     109.468 129.456 137.580  0.00  0.00    +0.000 C 
ATOM     30  C   UNL     1     110.242 129.190 137.479  0.00  0.00    +0.000 C 
BRANCH  26  31
ATOM     31  C   UNL     1     111.263 130.264 139.082  0.00  0.00    +0.000 C 
BRANCH  31  32
ATOM     32  O   UNL     1     111.682 129.729 139.549  0.00  0.00    +0.000 OA
BRANCH  32  38
ATOM     33  O   UNL     1     113.003 130.174 139.230  0.00  0.00    +0.000 OA
ATOM     34  O   UNL     1     112.129 129.534 141.125  0.00  0.00    +0.000 OA
ATOM     35  O   UNL     1     113.672 129.882 141.595  0.00  0.00    +0.000 OA
ATOM     36  O   UNL     1     114.769 130.424 140.488  0.00  0.00    +0.000 OA
ATOM     37  C   UNL     1     112.677 129.805 140.572  0.00  0.00    +0.000 C 
ATOM     38  C   UNL     1     112.453 129.903 139.783  0.00  0.00    +0.000 C 
ATOM     39  C   UNL     1     113.449 129.979 140.807  0.00  0.00    +0.000 C 
ATOM     40  C   UNL     1     113.997 130.250 140.253  0.00  0.00    +0.000 C 
ATOM     41  C   UNL     1     113.774 130.347 139.464  0.00  0.00    +0.000 C 
ATOM     42  C   UNL     1     114.323 130.618 138.911  0.00  0.00    +0.000 C 
ENDBRANCH  32  38
ENDBRANCH  31  32
ENDBRANCH  26  31
ENDBRANCH  21  30
ENDBRANCH   5  21
BRANCH  12  43
ATOM     43  C   UNL     1     113.373 128.729 135.409  0.00  0.00    +0.000 C 
BRANCH  43  44
ATOM     44  C   UNL     1     113.904 129.335 135.582  0.00  0.00    +0.000 C 
ATOM     45  C   UNL     1     114.646 129.348 135.223  0.00  0.00    +0.000 C 
ATOM     46  C   UNL     1     115.178 129.954 135.395  0.00  0.00    +0.000 C 
ATOM     47  C   UNL     1     114.857 128.755 134.690  0.00  0.00    +0.000 C 
ENDBRANCH  43  44
ENDBRANCH  12  43
TORSDOF 8
ENDMDL
MODEL 4
REMARK VINA RESULT:     -10.5      1.981      4.462
REMARK  Name = 125896
REMARK  8 active torsions:
REMARK  status: ('A' for Active; 'I' for Inactive)
REMARK    1  A    between atoms: O_2  and  C_22
REMARK    2  A    between atoms: O_2  and  C_24
REMARK    3  A    between atoms: O_4  and  C_20
REMARK    4  A    between atoms: O_4  and  C_28
REMARK    5  A    between atoms: C_16  and  C_24
REMARK    6  A    between atoms: C_31  and  C_38
REMARK    7  A    between atoms: C_35  and  C_37
REMARK    8  A    between atoms: C_37  and  C_39
REMARK                            x       y       z     vdW  Elec       q    Type
REMARK                         _______ _______ _______ _____ _____    ______ ____
ROOT
ATOM      1  O   UNL     1     111.783 126.281 136.042  0.00  0.00    +0.000 OA
ATOM      2  O   UNL     1     112.210 129.459 135.125  0.00  0.00    +0.000 OA
ATOM      3  O   UNL     1     110.850 128.640 134.675  0.00  0.00    +0.000 OA
ATOM      4  O   UNL     1     113.867 127.546 136.728  0.00  0.00    +0.000 OA
ATOM      5  C   UNL     1     112.685 128.296 135.807  0.00  0.00    +0.000 A 
ATOM      6  C   UNL     1     112.582 127.510 136.035  0.00  0.00    +0.000 A 
ATOM      7  C   UNL     1     111.902 127.101 135.810  0.00  0.00    +0.000 A 
ATOM      8  C   UNL     1     112.381 125.884 136.514  0.00  0.00    +0.000 C 
ATOM      9  C   UNL     1     112.107 128.673 135.353  0.00  0.00    +0.000 A 
ATOM     10  C   UNL     1     113.089 126.311 136.748  0.00  0.00    +0.000 C 
ATOM     11  C   UNL     1     113.191 127.129 136.508  0.00  0.00    +0.000 C 
ATOM     12  C   UNL     1     111.325 127.477 135.357  0.00  0.00    +0.000 A 
ATOM     13  C   UNL     1     111.428 128.263 135.129  0.00  0.00    +0.000 A 
ENDROOT
BRANCH   8  15
ATOM     14  O   UNL     1     111.960 122.739 137.421  0.00  0.00    +0.000 OA
ATOM     15  C   UNL     1     112.275 125.098 136.741  0.00  0.00    +0.000 A 
ATOM     16  C   UNL     1     112.653 124.494 136.324  0.00  0.00    +0.000 A 
ATOM     17  C   UNL     1     111.793 124.916 137.385  0.00  0.00    +0.000 A 
ATOM     18  C   UNL     1     112.547 123.708 136.551  0.00  0.00    +0.000 A 
ATOM     19  C   UNL     1     111.688 124.129 137.612  0.00  0.00    +0.000 A 
ATOM     20  C   UNL     1     112.065 123.525 137.194  0.00  0.00    +0.000 A 
ENDBRANCH   8  15
BRANCH   5  21
ATOM     21  O   UNL     1     113.365 128.706 136.032  0.00  0.00    +0.000 OA
BRANCH  21  30
ATOM     22  O   UNL     1     112.740 129.229 137.205  0.00  0.00    +0.000 OA
ATOM     23  O   UNL     1     113.207 130.989 138.410  0.00  0.00    +0.000 OA
ATOM     24  O   UNL     1     114.379 131.083 137.252  0.00  0.00    +0.000 OA
ATOM     25  O   UNL     1     114.458 129.942 136.063  0.00  0.00    +0.000 OA
ATOM     26  C   UNL     1     112.700 129.800 137.799  0.00  0.00    +0.000 C 
ATOM     27  C   UNL     1     113.247 130.418 137.815  0.00  0.00    +0.000 C 
ATOM     28  C   UNL     1     113.833 130.465 137.236  0.00  0.00    +0.000 C 
ATOM     29  C   UNL     1     113.872 129.894 136.641  0.00  0.00    +0.000 C 
ATOM     30  C   UNL     1     113.325 129.277 136.626  0.00  0.00    +0.000 C 
BRANCH  26  31
ATOM     31  C   UNL     1     112.114 129.753 138.379  0.00  0.00    +0.000 C 
BRANCH  31  32
ATOM     32  O   UNL     1     111.322 129.857 138.173  0.00  0.00    +0.000 OA
BRANCH  32  38
ATOM     33  O   UNL     1     110.847 128.685 138.839  0.00  0.00    +0.000 OA
ATOM     34  O   UNL     1     109.909 130.632 138.530  0.00  0.00    +0.000 OA
ATOM     35  O   UNL     1     108.728 129.847 139.374  0.00  0.00    +0.000 OA
ATOM     36  O   UNL     1     108.960 128.288 139.862  0.00  0.00    +0.000 OA
ATOM     37  C   UNL     1     110.026 129.852 138.773  0.00  0.00    +0.000 C 
ATOM     38  C   UNL     1     110.732 129.465 138.595  0.00  0.00    +0.000 C 
ATOM     39  C   UNL     1     109.435 129.460 139.196  0.00  0.00    +0.000 C 
ATOM     40  C   UNL     1     109.551 128.680 139.439  0.00  0.00    +0.000 C 
ATOM     41  C   UNL     1     110.257 128.293 139.261  0.00  0.00    +0.000 C 
ATOM     42  C   UNL     1     110.373 127.513 139.505  0.00  0.00    +0.000 C 
ENDBRANCH  32  38
ENDBRANCH  31  32
ENDBRANCH  26  31
ENDBRANCH  21  30
ENDBRANCH   5  21
BRANCH  12  43
ATOM     43  C   UNL     1     110.644 127.068 135.132  0.00  0.00    +0.000 C 
BRANCH  43  44
ATOM     44  C   UNL     1     109.928 127.218 135.511  0.00  0.00    +0.000 C 
ATOM     45  C   UNL     1     109.272 126.741 135.358  0.00  0.00    +0.000 C 
ATOM     46  C   UNL     1     108.555 126.891 135.737  0.00  0.00    +0.000 C 
ATOM     47  C   UNL     1     109.334 126.114 134.826  0.00  0.00    +0.000 C 
ENDBRANCH  43  44
ENDBRANCH  12  43
TORSDOF 8
ENDMDL
MODEL 5
REMARK VINA RESULT:     -10.4      1.669      4.004
REMARK  Name = 125896
REMARK  8 active torsions:
REMARK  status: ('A' for Active; 'I' for Inactive)
REMARK    1  A    between atoms: O_2  and  C_22
REMARK    2  A    between atoms: O_2  and  C_24
REMARK    3  A    between atoms: O_4  and  C_20
REMARK    4  A    between atoms: O_4  and  C_28
REMARK    5  A    between atoms: C_16  and  C_24
REMARK    6  A    between atoms: C_31  and  C_38
REMARK    7  A    between atoms: C_35  and  C_37
REMARK    8  A    between atoms: C_37  and  C_39
REMARK                            x       y       z     vdW  Elec       q    Type
REMARK                         _______ _______ _______ _____ _____    ______ ____
ROOT
ATOM      1  O   UNL     1     112.304 126.971 136.831  0.00  0.00    +0.000 OA
ATOM      2  O   UNL     1     110.558 124.929 138.807  0.00  0.00    +0.000 OA
ATOM      3  O   UNL     1     111.907 124.381 138.031  0.00  0.00    +0.000 OA
ATOM      4  O   UNL     1     110.232 127.803 138.026  0.00  0.00    +0.000 OA
ATOM      5  C   UNL     1     110.743 126.219 138.218  0.00  0.00    +0.000 A 
ATOM      6  C   UNL     1     111.173 126.726 137.730  0.00  0.00    +0.000 A 
ATOM      7  C   UNL     1     111.847 126.451 137.342  0.00  0.00    +0.000 A 
ATOM      8  C   UNL     1     112.054 127.786 136.722  0.00  0.00    +0.000 C 
ATOM      9  C   UNL     1     110.988 125.436 138.319  0.00  0.00    +0.000 A 
ATOM     10  C   UNL     1     111.351 128.071 137.127  0.00  0.00    +0.000 C 
ATOM     11  C   UNL     1     110.907 127.538 137.634  0.00  0.00    +0.000 C 
ATOM     12  C   UNL     1     112.092 125.671 137.442  0.00  0.00    +0.000 A 
ATOM     13  C   UNL     1     111.662 125.163 137.930  0.00  0.00    +0.000 A 
ENDROOT
BRANCH   8  15
ATOM     14  O   UNL     1     113.780 129.807 134.766  0.00  0.00    +0.000 OA
ATOM     15  C   UNL     1     112.485 128.291 136.233  0.00  0.00    +0.000 A 
ATOM     16  C   UNL     1     112.249 128.410 135.452  0.00  0.00    +0.000 A 
ATOM     17  C   UNL     1     113.153 128.677 136.526  0.00  0.00    +0.000 A 
ATOM     18  C   UNL     1     112.681 128.916 134.963  0.00  0.00    +0.000 A 
ATOM     19  C   UNL     1     113.585 129.182 136.037  0.00  0.00    +0.000 A 
ATOM     20  C   UNL     1     113.348 129.301 135.255  0.00  0.00    +0.000 A 
ENDBRANCH   8  15
BRANCH   5  21
ATOM     21  O   UNL     1     110.069 126.492 138.607  0.00  0.00    +0.000 OA
BRANCH  21  30
ATOM     22  O   UNL     1     110.770 126.865 139.794  0.00  0.00    +0.000 OA
ATOM     23  O   UNL     1     110.115 126.950 141.874  0.00  0.00    +0.000 OA
ATOM     24  O   UNL     1     108.734 126.433 141.133  0.00  0.00    +0.000 OA
ATOM     25  O   UNL     1     108.711 126.204 139.499  0.00  0.00    +0.000 OA
ATOM     26  C   UNL     1     110.781 126.979 140.611  0.00  0.00    +0.000 C 
ATOM     27  C   UNL     1     110.103 126.836 141.057  0.00  0.00    +0.000 C 
ATOM     28  C   UNL     1     109.413 126.577 140.686  0.00  0.00    +0.000 C 
ATOM     29  C   UNL     1     109.401 126.462 139.869  0.00  0.00    +0.000 C 
ATOM     30  C   UNL     1     110.080 126.606 139.424  0.00  0.00    +0.000 C 
BRANCH  26  31
ATOM     31  C   UNL     1     111.472 127.238 140.982  0.00  0.00    +0.000 C 
BRANCH  31  32
ATOM     32  O   UNL     1     111.766 127.993 140.826  0.00  0.00    +0.000 OA
BRANCH  32  38
ATOM     33  O   UNL     1     113.101 127.499 140.701  0.00  0.00    +0.000 OA
ATOM     34  O   UNL     1     112.353 129.516 141.070  0.00  0.00    +0.000 OA
ATOM     35  O   UNL     1     113.981 129.783 141.067  0.00  0.00    +0.000 OA
ATOM     36  O   UNL     1     115.023 128.527 140.820  0.00  0.00    +0.000 OA
ATOM     37  C   UNL     1     112.873 128.888 140.946  0.00  0.00    +0.000 C 
ATOM     38  C   UNL     1     112.580 128.127 140.824  0.00  0.00    +0.000 C 
ATOM     39  C   UNL     1     113.688 129.022 140.945  0.00  0.00    +0.000 C 
ATOM     40  C   UNL     1     114.208 128.393 140.822  0.00  0.00    +0.000 C 
ATOM     41  C   UNL     1     113.915 127.632 140.700  0.00  0.00    +0.000 C 
ATOM     42  C   UNL     1     114.436 127.004 140.576  0.00  0.00    +0.000 C 
ENDBRANCH  32  38
ENDBRANCH  31  32
ENDBRANCH  26  31
ENDBRANCH  21  30
ENDBRANCH   5  21
BRANCH  12  43
ATOM     43  C   UNL     1     112.767 125.396 137.054  0.00  0.00    +0.000 C 
BRANCH  43  44
ATOM     44  C   UNL     1     113.452 125.234 137.483  0.00  0.00    +0.000 C 
ATOM     45  C   UNL     1     114.137 124.994 137.091  0.00  0.00    +0.000 C 
ATOM     46  C   UNL     1     114.823 124.832 137.519  0.00  0.00    +0.000 C 
ATOM     47  C   UNL     1     114.136 124.916 136.269  0.00  0.00    +0.000 C 
ENDBRANCH  43  44
ENDBRANCH  12  43
TORSDOF 8
ENDMDL
MODEL 6
REMARK VINA RESULT:     -10.4      1.152      2.741
REMARK  Name = 125896
REMARK  8 active torsions:
REMARK  status: ('A' for Active; 'I' for Inactive)
REMARK    1  A    between atoms: O_2  and  C_22
REMARK    2  A    between atoms: O_2  and  C_24
REMARK    3  A    between atoms: O_4  and  C_20
REMARK    4  A    between atoms: O_4  and  C_28
REMARK    5  A    between atoms: C_16  and  C_24
REMARK    6  A    between atoms: C_31  and  C_38
REMARK    7  A    between atoms: C_35  and  C_37
REMARK    8  A    between atoms: C_37  and  C_39
REMARK                            x       y       z     vdW  Elec       q    Type
REMARK                         _______ _______ _______ _____ _____    ______ ____
ROOT
ATOM      1  O   UNL     1     112.213 126.584 137.777  0.00  0.00    +0.000 OA
ATOM      2  O   UNL     1     109.374 128.246 138.323  0.00  0.00    +0.000 OA
ATOM      3  O   UNL     1     110.409 127.937 139.571  0.00  0.00    +0.000 OA
ATOM      4  O   UNL     1     110.619 127.063 135.869  0.00  0.00    +0.000 OA
ATOM      5  C   UNL     1     110.260 127.577 137.422  0.00  0.00    +0.000 A 
ATOM      6  C   UNL     1     110.962 127.166 137.284  0.00  0.00    +0.000 A 
ATOM      7  C   UNL     1     111.479 127.012 137.909  0.00  0.00    +0.000 A 
ATOM      8  C   UNL     1     112.410 126.313 136.986  0.00  0.00    +0.000 C 
ATOM      9  C   UNL     1     110.076 127.835 138.185  0.00  0.00    +0.000 A 
ATOM     10  C   UNL     1     111.871 126.474 136.336  0.00  0.00    +0.000 C 
ATOM     11  C   UNL     1     111.142 126.903 136.486  0.00  0.00    +0.000 C 
ATOM     12  C   UNL     1     111.295 127.268 138.670  0.00  0.00    +0.000 A 
ATOM     13  C   UNL     1     110.593 127.680 138.808  0.00  0.00    +0.000 A 
ENDROOT
BRANCH   8  15
ATOM     14  O   UNL     1     115.220 124.669 136.445  0.00  0.00    +0.000 OA
ATOM     15  C   UNL     1     113.113 125.902 136.851  0.00  0.00    +0.000 A 
ATOM     16  C   UNL     1     113.793 126.310 136.625  0.00  0.00    +0.000 A 
ATOM     17  C   UNL     1     113.134 125.082 136.941  0.00  0.00    +0.000 A 
ATOM     18  C   UNL     1     114.495 125.899 136.490  0.00  0.00    +0.000 A 
ATOM     19  C   UNL     1     113.836 124.671 136.806  0.00  0.00    +0.000 A 
ATOM     20  C   UNL     1     114.517 125.080 136.580  0.00  0.00    +0.000 A 
ENDBRANCH   8  15
BRANCH   5  21
ATOM     21  O   UNL     1     109.743 127.732 136.799  0.00  0.00    +0.000 OA
BRANCH  21  30
ATOM     22  O   UNL     1     110.354 128.984 136.485  0.00  0.00    +0.000 OA
ATOM     23  O   UNL     1     109.543 130.774 135.534  0.00  0.00    +0.000 OA
ATOM     24  O   UNL     1     108.219 129.789 135.528  0.00  0.00    +0.000 OA
ATOM     25  O   UNL     1     108.319 128.268 136.161  0.00  0.00    +0.000 OA
ATOM     26  C   UNL     1     110.304 129.745 136.169  0.00  0.00    +0.000 C 
ATOM     27  C   UNL     1     109.593 130.013 135.850  0.00  0.00    +0.000 C 
ATOM     28  C   UNL     1     108.930 129.520 135.847  0.00  0.00    +0.000 C 
ATOM     29  C   UNL     1     108.980 128.760 136.164  0.00  0.00    +0.000 C 
ATOM     30  C   UNL     1     109.693 128.493 136.482  0.00  0.00    +0.000 C 
BRANCH  26  31
ATOM     31  C   UNL     1     110.967 130.237 136.172  0.00  0.00    +0.000 C 
BRANCH  31  32
ATOM     32  O   UNL     1     111.291 130.489 136.887  0.00  0.00    +0.000 OA
BRANCH  32  38
ATOM     33  O   UNL     1     112.604 130.227 136.387  0.00  0.00    +0.000 OA
ATOM     34  O   UNL     1     111.942 131.089 138.280  0.00  0.00    +0.000 OA
ATOM     35  O   UNL     1     113.580 131.127 138.476  0.00  0.00    +0.000 OA
ATOM     36  O   UNL     1     114.567 130.565 137.279  0.00  0.00    +0.000 OA
ATOM     37  C   UNL     1     112.435 130.808 137.681  0.00  0.00    +0.000 C 
ATOM     38  C   UNL     1     112.109 130.508 136.985  0.00  0.00    +0.000 C 
ATOM     39  C   UNL     1     113.254 130.827 137.779  0.00  0.00    +0.000 C 
ATOM     40  C   UNL     1     113.747 130.546 137.181  0.00  0.00    +0.000 C 
ATOM     41  C   UNL     1     113.422 130.246 136.484  0.00  0.00    +0.000 C 
ATOM     42  C   UNL     1     113.916 129.965 135.886  0.00  0.00    +0.000 C 
ENDBRANCH  32  38
ENDBRANCH  31  32
ENDBRANCH  26  31
ENDBRANCH  21  30
ENDBRANCH   5  21
BRANCH  12  43
ATOM     43  C   UNL     1     111.812 127.114 139.294  0.00  0.00    +0.000 C 
BRANCH  43  44
ATOM     44  C   UNL     1     112.285 127.717 139.597  0.00  0.00    +0.000 C 
ATOM     45  C   UNL     1     112.825 127.556 140.200  0.00  0.00    +0.000 C 
ATOM     46  C   UNL     1     113.298 128.159 140.503  0.00  0.00    +0.000 C 
ATOM     47  C   UNL     1     112.892 126.790 140.499  0.00  0.00    +0.000 C 
ENDBRANCH  43  44
ENDBRANCH  12  43
TORSDOF 8
ENDMDL
MODEL 7
REMARK VINA RESULT:     -10.4      2.389      4.196
REMARK  Name = 125896
REMARK  8 active torsions:
REMARK  status: ('A' for Active; 'I' for Inactive)
REMARK    1  A    between atoms: O_2  and  C_22
REMARK    2  A    between atoms: O_2  and  C_24
REMARK    3  A    between atoms: O_4  and  C_20
REMARK    4  A    between atoms: O_4  and  C_28
REMARK    5  A    between atoms: C_16  and  C_24
REMARK    6  A    between atoms: C_31  and  C_38
REMARK    7  A    between atoms: C_35  and  C_37
REMARK    8  A    between atoms: C_37  and  C_39
REMARK                            x       y       z     vdW  Elec       q    Type
REMARK                         _______ _______ _______ _____ _____    ______ ____
ROOT
ATOM      1  O   UNL     1     111.666 128.185 136.498  0.00  0.00    +0.000 OA
ATOM      2  O   UNL     1     109.134 127.693 138.613  0.00  0.00    +0.000 OA
ATOM      3  O   UNL     1     109.136 126.960 137.135  0.00  0.00    +0.000 OA
ATOM      4  O   UNL     1     111.654 129.305 138.769  0.00  0.00    +0.000 OA
ATOM      5  C   UNL     1     110.389 128.307 138.310  0.00  0.00    +0.000 A 
ATOM      6  C   UNL     1     111.017 128.430 137.789  0.00  0.00    +0.000 A 
ATOM      7  C   UNL     1     111.017 128.064 137.050  0.00  0.00    +0.000 A 
ATOM      8  C   UNL     1     112.321 128.694 136.720  0.00  0.00    +0.000 C 
ATOM      9  C   UNL     1     109.762 127.816 138.092  0.00  0.00    +0.000 A 
ATOM     10  C   UNL     1     112.320 129.076 137.490  0.00  0.00    +0.000 C 
ATOM     11  C   UNL     1     111.664 128.943 138.028  0.00  0.00    +0.000 C 
ATOM     12  C   UNL     1     110.391 127.574 136.832  0.00  0.00    +0.000 A 
ATOM     13  C   UNL     1     109.763 127.450 137.353  0.00  0.00    +0.000 A 
ENDROOT
BRANCH   8  15
ATOM     14  O   UNL     1     114.826 129.182 134.627  0.00  0.00    +0.000 OA
ATOM     15  C   UNL     1     112.947 128.816 136.197  0.00  0.00    +0.000 A 
ATOM     16  C   UNL     1     112.915 129.434 135.652  0.00  0.00    +0.000 A 
ATOM     17  C   UNL     1     113.606 128.319 136.219  0.00  0.00    +0.000 A 
ATOM     18  C   UNL     1     113.542 129.556 135.129  0.00  0.00    +0.000 A 
ATOM     19  C   UNL     1     114.232 128.441 135.696  0.00  0.00    +0.000 A 
ATOM     20  C   UNL     1     114.199 129.060 135.150  0.00  0.00    +0.000 A 
ENDBRANCH   8  15
BRANCH   5  21
ATOM     21  O   UNL     1     110.388 128.673 139.049  0.00  0.00    +0.000 OA
BRANCH  21  30
ATOM     22  O   UNL     1     109.671 129.830 138.615  0.00  0.00    +0.000 OA
ATOM     23  O   UNL     1     108.268 131.123 139.675  0.00  0.00    +0.000 OA
ATOM     24  O   UNL     1     108.642 130.034 140.857  0.00  0.00    +0.000 OA
ATOM     25  O   UNL     1     109.702 128.809 140.544  0.00  0.00    +0.000 OA
ATOM     26  C   UNL     1     109.141 130.442 138.772  0.00  0.00    +0.000 C 
ATOM     27  C   UNL     1     108.798 130.511 139.519  0.00  0.00    +0.000 C 
ATOM     28  C   UNL     1     108.985 129.966 140.110  0.00  0.00    +0.000 C 
ATOM     29  C   UNL     1     109.515 129.353 139.953  0.00  0.00    +0.000 C 
ATOM     30  C   UNL     1     109.858 129.286 139.206  0.00  0.00    +0.000 C 
BRANCH  26  31
ATOM     31  C   UNL     1     108.953 130.987 138.181  0.00  0.00    +0.000 C 
BRANCH  31  32
ATOM     32  O   UNL     1     108.640 130.727 137.463  0.00  0.00    +0.000 OA
BRANCH  32  38
ATOM     33  O   UNL     1     109.256 131.813 136.769  0.00  0.00    +0.000 OA
ATOM     34  O   UNL     1     107.685 130.429 136.151  0.00  0.00    +0.000 OA
ATOM     35  O   UNL     1     107.824 131.367 134.800  0.00  0.00    +0.000 OA
ATOM     36  O   UNL     1     108.918 132.602 134.762  0.00  0.00    +0.000 OA
ATOM     37  C   UNL     1     108.232 131.046 136.133  0.00  0.00    +0.000 C 
ATOM     38  C   UNL     1     108.709 131.195 136.789  0.00  0.00    +0.000 C 
ATOM     39  C   UNL     1     108.301 131.515 135.457  0.00  0.00    +0.000 C 
ATOM     40  C   UNL     1     108.848 132.133 135.438  0.00  0.00    +0.000 C 
ATOM     41  C   UNL     1     109.326 132.281 136.094  0.00  0.00    +0.000 C 
ATOM     42  C   UNL     1     109.872 132.899 136.074  0.00  0.00    +0.000 C 
ENDBRANCH  32  38
ENDBRANCH  31  32
ENDBRANCH  26  31
ENDBRANCH  21  30
ENDBRANCH   5  21
BRANCH  12  43
ATOM     43  C   UNL     1     110.391 127.207 136.093  0.00  0.00    +0.000 C 
BRANCH  43  44
ATOM     44  C   UNL     1     110.510 126.393 136.036  0.00  0.00    +0.000 C 
ATOM     45  C   UNL     1     110.528 126.029 135.296  0.00  0.00    +0.000 C 
ATOM     46  C   UNL     1     110.647 125.215 135.239  0.00  0.00    +0.000 C 
ATOM     47  C   UNL     1     110.427 126.480 134.612  0.00  0.00    +0.000 C 
ENDBRANCH  43  44
ENDBRANCH  12  43
TORSDOF 8
ENDMDL
MODEL 8
REMARK VINA RESULT:     -10.4      1.604      4.048
REMARK  Name = 125896
REMARK  8 active torsions:
REMARK  status: ('A' for Active; 'I' for Inactive)
REMARK    1  A    between atoms: O_2  and  C_22
REMARK    2  A    between atoms: O_2  and  C_24
REMARK    3  A    between atoms: O_4  and  C_20
REMARK    4  A    between atoms: O_4  and  C_28
REMARK    5  A    between atoms: C_16  and  C_24
REMARK    6  A    between atoms: C_31  and  C_38
REMARK    7  A    between atoms: C_35  and  C_37
REMARK    8  A    between atoms: C_37  and  C_39
REMARK                            x       y       z     vdW  Elec       q    Type
REMARK                         _______ _______ _______ _____ _____    ______ ____
ROOT
ATOM      1  O   UNL     1     112.017 126.477 137.505  0.00  0.00    +0.000 OA
ATOM      2  O   UNL     1     113.751 127.470 140.175  0.00  0.00    +0.000 OA
ATOM      3  O   UNL     1     114.225 126.137 139.326  0.00  0.00    +0.000 OA
ATOM      4  O   UNL     1     111.298 128.522 138.815  0.00  0.00    +0.000 OA
ATOM      5  C   UNL     1     112.652 127.651 139.279  0.00  0.00    +0.000 A 
ATOM      6  C   UNL     1     112.221 127.407 138.619  0.00  0.00    +0.000 A 
ATOM      7  C   UNL     1     112.458 126.741 138.195  0.00  0.00    +0.000 A 
ATOM      8  C   UNL     1     111.321 126.914 137.255  0.00  0.00    +0.000 C 
ATOM      9  C   UNL     1     113.320 127.227 139.515  0.00  0.00    +0.000 A 
ATOM     10  C   UNL     1     111.075 127.609 137.697  0.00  0.00    +0.000 C 
ATOM     11  C   UNL     1     111.527 127.857 138.384  0.00  0.00    +0.000 C 
ATOM     12  C   UNL     1     113.125 126.317 138.430  0.00  0.00    +0.000 A 
ATOM     13  C   UNL     1     113.556 126.561 139.090  0.00  0.00    +0.000 A 
ENDROOT
BRANCH   8  15
ATOM     14  O   UNL     1     109.605 125.933 134.612  0.00  0.00    +0.000 OA
ATOM     15  C   UNL     1     110.892 126.669 136.594  0.00  0.00    +0.000 A 
ATOM     16  C   UNL     1     111.162 126.851 135.836  0.00  0.00    +0.000 A 
ATOM     17  C   UNL     1     110.193 126.241 136.692  0.00  0.00    +0.000 A 
ATOM     18  C   UNL     1     110.733 126.606 135.176  0.00  0.00    +0.000 A 
ATOM     19  C   UNL     1     109.764 125.996 136.031  0.00  0.00    +0.000 A 
ATOM     20  C   UNL     1     110.034 126.178 135.273  0.00  0.00    +0.000 A 
ENDBRANCH   8  15
BRANCH   5  21
ATOM     21  O   UNL     1     112.416 128.317 139.704  0.00  0.00    +0.000 OA
BRANCH  21  30
ATOM     22  O   UNL     1     113.264 129.225 139.000  0.00  0.00    +0.000 OA
ATOM     23  O   UNL     1     114.269 131.047 139.660  0.00  0.00    +0.000 OA
ATOM     24  O   UNL     1     113.497 130.596 141.047  0.00  0.00    +0.000 OA
ATOM     25  O   UNL     1     112.571 129.231 141.069  0.00  0.00    +0.000 OA
ATOM     26  C   UNL     1     113.727 129.907 138.989  0.00  0.00    +0.000 C 
ATOM     27  C   UNL     1     113.805 130.365 139.671  0.00  0.00    +0.000 C 
ATOM     28  C   UNL     1     113.419 130.139 140.365  0.00  0.00    +0.000 C 
ATOM     29  C   UNL     1     112.956 129.456 140.376  0.00  0.00    +0.000 C 
ATOM     30  C   UNL     1     112.879 129.000 139.693  0.00  0.00    +0.000 C 
BRANCH  26  31
ATOM     31  C   UNL     1     114.114 130.133 138.295  0.00  0.00    +0.000 C 
BRANCH  31  32
ATOM     32  O   UNL     1     113.675 130.344 137.628  0.00  0.00    +0.000 OA
BRANCH  32  38
ATOM     33  O   UNL     1     114.061 129.460 136.574  0.00  0.00    +0.000 OA
ATOM     34  O   UNL     1     114.155 131.635 136.721  0.00  0.00    +0.000 OA
ATOM     35  O   UNL     1     114.780 131.397 135.212  0.00  0.00    +0.000 OA
ATOM     36  O   UNL     1     114.926 129.867 134.612  0.00  0.00    +0.000 OA
ATOM     37  C   UNL     1     114.227 130.870 136.421  0.00  0.00    +0.000 C 
ATOM     38  C   UNL     1     113.987 130.224 136.875  0.00  0.00    +0.000 C 
ATOM     39  C   UNL     1     114.540 130.751 135.666  0.00  0.00    +0.000 C 
ATOM     40  C   UNL     1     114.613 129.986 135.367  0.00  0.00    +0.000 C 
ATOM     41  C   UNL     1     114.373 129.340 135.821  0.00  0.00    +0.000 C 
ATOM     42  C   UNL     1     114.446 128.575 135.520  0.00  0.00    +0.000 C 
ENDBRANCH  32  38
ENDBRANCH  31  32
ENDBRANCH  26  31
ENDBRANCH  21  30
ENDBRANCH   5  21
BRANCH  12  43
ATOM     43  C   UNL     1     113.363 125.651 138.006  0.00  0.00    +0.000 C 
BRANCH  43  44
ATOM     44  C   UNL     1     114.060 125.667 137.566  0.00  0.00    +0.000 C 
ATOM     45  C   UNL     1     114.275 125.016 137.107  0.00  0.00    +0.000 C 
ATOM     46  C   UNL     1     114.972 125.033 136.668  0.00  0.00    +0.000 C 
ATOM     47  C   UNL     1     113.792 124.347 137.089  0.00  0.00    +0.000 C 
ENDBRANCH  43  44
ENDBRANCH  12  43
TORSDOF 8
ENDMDL
MODEL 9
REMARK VINA RESULT:     -10.3      2.101      4.233
REMARK  Name = 125896
REMARK  8 active torsions:
REMARK  status: ('A' for Active; 'I' for Inactive)
REMARK    1  A    between atoms: O_2  and  C_22
REMARK    2  A    between atoms: O_2  and  C_24
REMARK    3  A    between atoms: O_4  and  C_20
REMARK    4  A    between atoms: O_4  and  C_28
REMARK    5  A    between atoms: C_16  and  C_24
REMARK    6  A    between atoms: C_31  and  C_38
REMARK    7  A    between atoms: C_35  and  C_37
REMARK    8  A    between atoms: C_37  and  C_39
REMARK                            x       y       z     vdW  Elec       q    Type
REMARK                         _______ _______ _______ _____ _____    ______ ____
ROOT
ATOM      1  O   UNL     1     112.257 126.891 137.696  0.00  0.00    +0.000 OA
ATOM      2  O   UNL     1     109.585 128.488 138.891  0.00  0.00    +0.000 OA
ATOM      3  O   UNL     1     110.509 129.181 137.713  0.00  0.00    +0.000 OA
ATOM      4  O   UNL     1     110.833 125.835 139.504  0.00  0.00    +0.000 OA
ATOM      5  C   UNL     1     110.444 127.345 138.893  0.00  0.00    +0.000 A 
ATOM      6  C   UNL     1     111.105 126.948 138.599  0.00  0.00    +0.000 A 
ATOM      7  C   UNL     1     111.566 127.295 138.010  0.00  0.00    +0.000 A 
ATOM      8  C   UNL     1     112.469 126.115 137.999  0.00  0.00    +0.000 C 
ATOM      9  C   UNL     1     110.245 128.090 138.597  0.00  0.00    +0.000 A 
ATOM     10  C   UNL     1     111.988 125.754 138.613  0.00  0.00    +0.000 C 
ATOM     11  C   UNL     1     111.301 126.173 138.915  0.00  0.00    +0.000 C 
ATOM     12  C   UNL     1     111.368 128.039 137.715  0.00  0.00    +0.000 A 
ATOM     13  C   UNL     1     110.708 128.437 138.009  0.00  0.00    +0.000 A 
ENDROOT
BRANCH   8  15
ATOM     14  O   UNL     1     115.113 124.534 136.816  0.00  0.00    +0.000 OA
ATOM     15  C   UNL     1     113.130 125.720 137.704  0.00  0.00    +0.000 A 
ATOM     16  C   UNL     1     113.078 125.302 136.995  0.00  0.00    +0.000 A 
ATOM     17  C   UNL     1     113.843 125.743 138.118  0.00  0.00    +0.000 A 
ATOM     18  C   UNL     1     113.739 124.906 136.699  0.00  0.00    +0.000 A 
ATOM     19  C   UNL     1     114.504 125.347 137.822  0.00  0.00    +0.000 A 
ATOM     20  C   UNL     1     114.452 124.929 137.112  0.00  0.00    +0.000 A 
ENDBRANCH   8  15
BRANCH   5  21
ATOM     21  O   UNL     1     109.982 126.999 139.482  0.00  0.00    +0.000 OA
BRANCH  21  30
ATOM     22  O   UNL     1     110.732 127.635 140.518  0.00  0.00    +0.000 OA
ATOM     23  O   UNL     1     110.229 128.043 142.603  0.00  0.00    +0.000 OA
ATOM     24  O   UNL     1     108.852 127.292 142.091  0.00  0.00    +0.000 OA
ATOM     25  O   UNL     1     108.728 126.770 140.530  0.00  0.00    +0.000 OA
ATOM     26  C   UNL     1     110.794 127.896 141.298  0.00  0.00    +0.000 C 
ATOM     27  C   UNL     1     110.167 127.782 141.823  0.00  0.00    +0.000 C 
ATOM     28  C   UNL     1     109.478 127.406 141.566  0.00  0.00    +0.000 C 
ATOM     29  C   UNL     1     109.417 127.145 140.786  0.00  0.00    +0.000 C 
ATOM     30  C   UNL     1     110.044 127.260 140.262  0.00  0.00    +0.000 C 
BRANCH  26  31
ATOM     31  C   UNL     1     111.483 128.272 141.555  0.00  0.00    +0.000 C 
BRANCH  31  32
ATOM     32  O   UNL     1     111.682 129.016 141.258  0.00  0.00    +0.000 OA
BRANCH  32  38
ATOM     33  O   UNL     1     113.024 128.599 141.001  0.00  0.00    +0.000 OA
ATOM     34  O   UNL     1     112.155 130.594 141.170  0.00  0.00    +0.000 OA
ATOM     35  O   UNL     1     113.734 130.966 140.869  0.00  0.00    +0.000 OA
ATOM     36  O   UNL     1     114.840 129.760 140.656  0.00  0.00    +0.000 OA
ATOM     37  C   UNL     1     112.707 129.990 141.064  0.00  0.00    +0.000 C 
ATOM     38  C   UNL     1     112.471 129.201 141.108  0.00  0.00    +0.000 C 
ATOM     39  C   UNL     1     113.498 130.177 140.913  0.00  0.00    +0.000 C 
ATOM     40  C   UNL     1     114.050 129.573 140.807  0.00  0.00    +0.000 C 
ATOM     41  C   UNL     1     113.813 128.784 140.851  0.00  0.00    +0.000 C 
ATOM     42  C   UNL     1     114.367 128.182 140.744  0.00  0.00    +0.000 C 
ENDBRANCH  32  38
ENDBRANCH  31  32
ENDBRANCH  26  31
ENDBRANCH  21  30
ENDBRANCH   5  21
BRANCH  12  43
ATOM     43  C   UNL     1     111.830 128.386 137.126  0.00  0.00    +0.000 C 
BRANCH  43  44
ATOM     44  C   UNL     1     112.353 128.994 137.316  0.00  0.00    +0.000 C 
ATOM     45  C   UNL     1     112.840 129.318 136.733  0.00  0.00    +0.000 C 
ATOM     46  C   UNL     1     113.363 129.926 136.923  0.00  0.00    +0.000 C 
ATOM     47  C   UNL     1     112.802 129.033 135.960  0.00  0.00    +0.000 C 
ENDBRANCH  43  44
ENDBRANCH  12  43
TORSDOF 8
ENDMDL
MODEL 10
REMARK VINA RESULT:     -10.3      1.545      5.038
REMARK  Name = 125896
REMARK  8 active torsions:
REMARK  status: ('A' for Active; 'I' for Inactive)
REMARK    1  A    between atoms: O_2  and  C_22
REMARK    2  A    between atoms: O_2  and  C_24
REMARK    3  A    between atoms: O_4  and  C_20
REMARK    4  A    between atoms: O_4  and  C_28
REMARK    5  A    between atoms: C_16  and  C_24
REMARK    6  A    between atoms: C_31  and  C_38
REMARK    7  A    between atoms: C_35  and  C_37
REMARK    8  A    between atoms: C_37  and  C_39
REMARK                            x       y       z     vdW  Elec       q    Type
REMARK                         _______ _______ _______ _____ _____    ______ ____
ROOT
ATOM      1  O   UNL     1     112.488 129.634 136.715  0.00  0.00    +0.000 OA
ATOM      2  O   UNL     1     110.198 128.823 139.000  0.00  0.00    +0.000 OA
ATOM      3  O   UNL     1     109.775 128.953 137.410  0.00  0.00    +0.000 OA
ATOM      4  O   UNL     1     113.127 129.432 139.158  0.00  0.00    +0.000 OA
ATOM      5  C   UNL     1     111.547 129.160 138.669  0.00  0.00    +0.000 A 
ATOM      6  C   UNL     1     112.116 129.360 138.106  0.00  0.00    +0.000 A 
ATOM      7  C   UNL     1     111.904 129.425 137.312  0.00  0.00    +0.000 A 
ATOM      8  C   UNL     1     113.302 129.776 136.951  0.00  0.00    +0.000 C 
ATOM      9  C   UNL     1     110.766 129.024 138.437  0.00  0.00    +0.000 A 
ATOM     10  C   UNL     1     113.521 129.708 137.779  0.00  0.00    +0.000 C 
ATOM     11  C   UNL     1     112.925 129.499 138.361  0.00  0.00    +0.000 C 
ATOM     12  C   UNL     1     111.125 129.290 137.080  0.00  0.00    +0.000 A 
ATOM     13  C   UNL     1     110.556 129.089 137.642  0.00  0.00    +0.000 A 
ENDROOT
BRANCH   8  15
ATOM     14  O   UNL     1     115.569 130.579 134.691  0.00  0.00    +0.000 OA
ATOM     15  C   UNL     1     113.868 129.977 136.386  0.00  0.00    +0.000 A 
ATOM     16  C   UNL     1     114.097 130.764 136.292  0.00  0.00    +0.000 A 
ATOM     17  C   UNL     1     114.207 129.390 135.915  0.00  0.00    +0.000 A 
ATOM     18  C   UNL     1     114.663 130.965 135.727  0.00  0.00    +0.000 A 
ATOM     19  C   UNL     1     114.774 129.590 135.350  0.00  0.00    +0.000 A 
ATOM     20  C   UNL     1     115.002 130.379 135.256  0.00  0.00    +0.000 A 
ENDBRANCH   8  15
BRANCH   5  21
ATOM     21  O   UNL     1     111.758 129.095 139.464  0.00  0.00    +0.000 OA
BRANCH  21  30
ATOM     22  O   UNL     1     112.029 127.695 139.379  0.00  0.00    +0.000 OA
ATOM     23  O   UNL     1     111.926 126.124 140.891  0.00  0.00    +0.000 OA
ATOM     24  O   UNL     1     111.467 127.439 141.775  0.00  0.00    +0.000 OA
ATOM     25  O   UNL     1     111.383 128.924 141.062  0.00  0.00    +0.000 OA
ATOM     26  C   UNL     1     112.071 126.952 139.735  0.00  0.00    +0.000 C 
ATOM     27  C   UNL     1     111.884 126.866 140.534  0.00  0.00    +0.000 C 
ATOM     28  C   UNL     1     111.654 127.525 140.977  0.00  0.00    +0.000 C 
ATOM     29  C   UNL     1     111.612 128.267 140.620  0.00  0.00    +0.000 C 
ATOM     30  C   UNL     1     111.800 128.352 139.821  0.00  0.00    +0.000 C 
BRANCH  26  31
ATOM     31  C   UNL     1     112.300 126.294 139.293  0.00  0.00    +0.000 C 
BRANCH  31  32
ATOM     32  O   UNL     1     111.921 126.123 138.581  0.00  0.00    +0.000 OA
BRANCH  32  38
ATOM     33  O   UNL     1     113.096 125.534 138.019  0.00  0.00    +0.000 OA
ATOM     34  O   UNL     1     110.986 125.262 137.528  0.00  0.00    +0.000 OA
ATOM     35  O   UNL     1     111.694 124.243 136.440  0.00  0.00    +0.000 OA
ATOM     36  O   UNL     1     113.336 124.085 136.405  0.00  0.00    +0.000 OA
ATOM     37  C   UNL     1     111.807 125.183 137.511  0.00  0.00    +0.000 C 
ATOM     38  C   UNL     1     112.275 125.614 138.037  0.00  0.00    +0.000 C 
ATOM     39  C   UNL     1     112.161 124.673 136.966  0.00  0.00    +0.000 C 
ATOM     40  C   UNL     1     112.982 124.595 136.949  0.00  0.00    +0.000 C 
ATOM     41  C   UNL     1     113.449 125.025 137.476  0.00  0.00    +0.000 C 
ATOM     42  C   UNL     1     114.271 124.946 137.457  0.00  0.00    +0.000 C 
ENDBRANCH  32  38
ENDBRANCH  31  32
ENDBRANCH  26  31
ENDBRANCH  21  30
ENDBRANCH   5  21
BRANCH  12  43
ATOM     43  C   UNL     1     110.913 129.355 136.285  0.00  0.00    +0.000 C 
BRANCH  43  44
ATOM     44  C   UNL     1     110.736 128.678 135.848  0.00  0.00    +0.000 C 
ATOM     45  C   UNL     1     110.539 128.742 135.049  0.00  0.00    +0.000 C 
ATOM     46  C   UNL     1     110.362 128.065 134.612  0.00  0.00    +0.000 C 
ATOM     47  C   UNL     1     110.519 129.483 134.687  0.00  0.00    +0.000 C 
ENDBRANCH  43  44
ENDBRANCH  12  43
TORSDOF 8
ENDMDL
