MODEL 1
REMARK VINA RESULT:      -7.4      0.000      0.000
REMARK  Name = 471694
REMARK  6 active torsions:
REMARK  status: ('A' for Active; 'I' for Inactive)
REMARK    1  A    between atoms: O_2  and  C_14
REMARK    2  A    between atoms: O_3  and  C_17
REMARK    3  A    between atoms: O_4  and  C_18
REMARK    4  A    between atoms: O_5  and  C_19
REMARK    5  A    between atoms: O_6  and  C_20
REMARK    6  A    between atoms: C_8  and  C_11
REMARK                            x       y       z     vdW  Elec       q    Type
REMARK                         _______ _______ _______ _____ _____    ______ ____
ROOT
ATOM      1  C   UNL     1     113.269 128.149 136.484  0.00  0.00    +0.000 A 
ATOM      2  C   UNL     1     112.864 128.628 137.021  0.00  0.00    +0.000 A 
ATOM      3  C   UNL     1     113.764 128.489 135.919  0.00  0.00    +0.000 A 
ATOM      4  C   UNL     1     112.956 129.447 136.992  0.00  0.00    +0.000 A 
ATOM      5  C   UNL     1     113.854 129.309 135.890  0.00  0.00    +0.000 A 
ATOM      6  C   UNL     1     113.451 129.788 136.426  0.00  0.00    +0.000 A 
ENDROOT
BRANCH   1   9
ATOM      7  O   UNL     1     112.400 126.160 136.250  0.00  0.00    +0.000 OA
ATOM      8  O   UNL     1     113.414 123.524 136.962  0.00  0.00    +0.000 OA
ATOM      9  C   UNL     1     113.177 127.329 136.513  0.00  0.00    +0.000 C 
ATOM     10  C   UNL     1     113.775 126.860 136.836  0.00  0.00    +0.000 C 
ATOM     11  C   UNL     1     112.490 126.980 136.220  0.00  0.00    +0.000 C 
ATOM     12  C   UNL     1     113.683 126.040 136.866  0.00  0.00    +0.000 A 
ATOM     13  C   UNL     1     112.996 125.690 136.573  0.00  0.00    +0.000 A 
ATOM     14  C   UNL     1     114.312 125.562 137.205  0.00  0.00    +0.000 A 
ATOM     15  C   UNL     1     112.890 124.838 136.598  0.00  0.00    +0.000 A 
ATOM     16  C   UNL     1     114.223 124.708 137.238  0.00  0.00    +0.000 A 
ATOM     17  C   UNL     1     113.508 124.344 136.933  0.00  0.00    +0.000 A 
BRANCH  15  18
ATOM     18  O   UNL     1     112.199 124.497 136.303  0.00  0.00    +0.000 OA
ATOM     19  C   UNL     1     111.745 124.002 136.783  0.00  0.00    +0.000 C 
ENDBRANCH  15  18
ENDBRANCH   1   9
BRANCH   2  20
ATOM     20  O   UNL     1     112.369 128.288 137.586  0.00  0.00    +0.000 OA
ATOM     21  C   UNL     1     112.443 128.500 138.380  0.00  0.00    +0.000 C 
ENDBRANCH   2  20
BRANCH   4  22
ATOM     22  O   UNL     1     112.551 129.927 137.529  0.00  0.00    +0.000 OA
ATOM     23  C   UNL     1     111.858 130.310 137.298  0.00  0.00    +0.000 C 
ENDBRANCH   4  22
BRANCH   5  24
ATOM     24  O   UNL     1     114.349 129.649 135.325  0.00  0.00    +0.000 OA
ATOM     25  C   UNL     1     114.493 129.258 134.612  0.00  0.00    +0.000 C 
ENDBRANCH   5  24
BRANCH   6  26
ATOM     26  O   UNL     1     113.541 130.607 136.398  0.00  0.00    +0.000 OA
ATOM     27  C   UNL     1     114.211 130.959 136.725  0.00  0.00    +0.000 C 
ENDBRANCH   6  26
TORSDOF 6
ENDMDL
MODEL 2
REMARK VINA RESULT:      -7.3     12.810     14.593
REMARK  Name = 471694
REMARK  6 active torsions:
REMARK  status: ('A' for Active; 'I' for Inactive)
REMARK    1  A    between atoms: O_2  and  C_14
REMARK    2  A    between atoms: O_3  and  C_17
REMARK    3  A    between atoms: O_4  and  C_18
REMARK    4  A    between atoms: O_5  and  C_19
REMARK    5  A    between atoms: O_6  and  C_20
REMARK    6  A    between atoms: C_8  and  C_11
REMARK                            x       y       z     vdW  Elec       q    Type
REMARK                         _______ _______ _______ _____ _____    ______ ____
ROOT
ATOM      1  C   UNL     1     103.388 124.545 146.932  0.00  0.00    +0.000 A 
ATOM      2  C   UNL     1     103.095 123.970 146.416  0.00  0.00    +0.000 A 
ATOM      3  C   UNL     1     102.897 124.867 147.512  0.00  0.00    +0.000 A 
ATOM      4  C   UNL     1     102.312 123.718 146.482  0.00  0.00    +0.000 A 
ATOM      5  C   UNL     1     102.114 124.615 147.576  0.00  0.00    +0.000 A 
ATOM      6  C   UNL     1     101.822 124.041 147.062  0.00  0.00    +0.000 A 
ENDROOT
BRANCH   1   9
ATOM      7  O   UNL     1     105.180 125.535 146.176  0.00  0.00    +0.000 OA
ATOM      8  O   UNL     1     107.917 125.576 147.171  0.00  0.00    +0.000 OA
ATOM      9  C   UNL     1     104.170 124.796 146.866  0.00  0.00    +0.000 C 
ATOM     10  C   UNL     1     104.728 124.559 147.427  0.00  0.00    +0.000 C 
ATOM     11  C   UNL     1     104.397 125.284 146.241  0.00  0.00    +0.000 C 
ATOM     12  C   UNL     1     105.511 124.810 147.362  0.00  0.00    +0.000 A 
ATOM     13  C   UNL     1     105.737 125.299 146.736  0.00  0.00    +0.000 A 
ATOM     14  C   UNL     1     106.082 124.557 147.952  0.00  0.00    +0.000 A 
ATOM     15  C   UNL     1     106.550 125.567 146.658  0.00  0.00    +0.000 A 
ATOM     16  C   UNL     1     106.899 124.815 147.890  0.00  0.00    +0.000 A 
ATOM     17  C   UNL     1     107.134 125.323 147.239  0.00  0.00    +0.000 A 
BRANCH  15  18
ATOM     18  O   UNL     1     106.767 126.055 146.029  0.00  0.00    +0.000 OA
ATOM     19  C   UNL     1     107.025 126.825 146.175  0.00  0.00    +0.000 C 
ENDBRANCH  15  18
ENDBRANCH   1   9
BRANCH   2  20
ATOM     20  O   UNL     1     103.585 123.648 145.836  0.00  0.00    +0.000 OA
ATOM     21  C   UNL     1     103.604 122.832 145.720  0.00  0.00    +0.000 C 
ENDBRANCH   2  20
BRANCH   4  22
ATOM     22  O   UNL     1     102.019 123.144 145.966  0.00  0.00    +0.000 OA
ATOM     23  C   UNL     1     101.499 123.358 145.363  0.00  0.00    +0.000 C 
ENDBRANCH   4  22
BRANCH   5  24
ATOM     24  O   UNL     1     101.624 124.937 148.156  0.00  0.00    +0.000 OA
ATOM     25  C   UNL     1     101.752 125.708 148.423  0.00  0.00    +0.000 C 
ENDBRANCH   5  24
BRANCH   6  26
ATOM     26  O   UNL     1     101.039 123.788 147.126  0.00  0.00    +0.000 OA
ATOM     27  C   UNL     1     100.824 123.258 147.721  0.00  0.00    +0.000 C 
ENDBRANCH   6  26
TORSDOF 6
ENDMDL
MODEL 3
REMARK VINA RESULT:      -7.2      0.963      4.595
REMARK  Name = 471694
REMARK  6 active torsions:
REMARK  status: ('A' for Active; 'I' for Inactive)
REMARK    1  A    between atoms: O_2  and  C_14
REMARK    2  A    between atoms: O_3  and  C_17
REMARK    3  A    between atoms: O_4  and  C_18
REMARK    4  A    between atoms: O_5  and  C_19
REMARK    5  A    between atoms: O_6  and  C_20
REMARK    6  A    between atoms: C_8  and  C_11
REMARK                            x       y       z     vdW  Elec       q    Type
REMARK                         _______ _______ _______ _____ _____    ______ ____
ROOT
ATOM      1  C   UNL     1     112.781 126.643 136.650  0.00  0.00    +0.000 A 
ATOM      2  C   UNL     1     112.006 126.449 136.440  0.00  0.00    +0.000 A 
ATOM      3  C   UNL     1     113.338 126.046 136.767  0.00  0.00    +0.000 A 
ATOM      4  C   UNL     1     111.789 125.659 136.348  0.00  0.00    +0.000 A 
ATOM      5  C   UNL     1     113.120 125.255 136.675  0.00  0.00    +0.000 A 
ATOM      6  C   UNL     1     112.346 125.062 136.466  0.00  0.00    +0.000 A 
ENDROOT
BRANCH   1   9
ATOM      7  O   UNL     1     113.078 128.609 137.549  0.00  0.00    +0.000 OA
ATOM      8  O   UNL     1     114.237 131.057 136.479  0.00  0.00    +0.000 OA
ATOM      9  C   UNL     1     112.998 127.433 136.742  0.00  0.00    +0.000 C 
ATOM     10  C   UNL     1     113.351 127.839 136.116  0.00  0.00    +0.000 C 
ATOM     11  C   UNL     1     112.861 127.818 137.459  0.00  0.00    +0.000 C 
ATOM     12  C   UNL     1     113.568 128.630 136.208  0.00  0.00    +0.000 A 
ATOM     13  C   UNL     1     113.431 129.015 136.925  0.00  0.00    +0.000 A 
ATOM     14  C   UNL     1     113.936 129.042 135.549  0.00  0.00    +0.000 A 
ATOM     15  C   UNL     1     113.653 129.839 137.032  0.00  0.00    +0.000 A 
ATOM     16  C   UNL     1     114.164 129.865 135.638  0.00  0.00    +0.000 A 
ATOM     17  C   UNL     1     114.021 130.266 136.385  0.00  0.00    +0.000 A 
BRANCH  15  18
ATOM     18  O   UNL     1     113.512 130.215 137.752  0.00  0.00    +0.000 OA
ATOM     19  C   UNL     1     114.133 130.582 138.154  0.00  0.00    +0.000 C 
ENDBRANCH  15  18
ENDBRANCH   1   9
BRANCH   2  20
ATOM     20  O   UNL     1     111.449 127.047 136.323  0.00  0.00    +0.000 OA
ATOM     21  C   UNL     1     110.716 127.006 136.699  0.00  0.00    +0.000 C 
ENDBRANCH   2  20
BRANCH   4  22
ATOM     22  O   UNL     1     111.014 125.466 136.139  0.00  0.00    +0.000 OA
ATOM     23  C   UNL     1     110.825 125.322 135.349  0.00  0.00    +0.000 C 
ENDBRANCH   4  22
BRANCH   5  24
ATOM     24  O   UNL     1     113.677 124.658 136.792  0.00  0.00    +0.000 OA
ATOM     25  C   UNL     1     114.482 124.841 136.806  0.00  0.00    +0.000 C 
ENDBRANCH   5  24
BRANCH   6  26
ATOM     26  O   UNL     1     112.128 124.271 136.373  0.00  0.00    +0.000 OA
ATOM     27  C   UNL     1     111.975 123.806 137.037  0.00  0.00    +0.000 C 
ENDBRANCH   6  26
TORSDOF 6
ENDMDL
MODEL 4
REMARK VINA RESULT:      -7.2     12.442     13.978
REMARK  Name = 471694
REMARK  6 active torsions:
REMARK  status: ('A' for Active; 'I' for Inactive)
REMARK    1  A    between atoms: O_2  and  C_14
REMARK    2  A    between atoms: O_3  and  C_17
REMARK    3  A    between atoms: O_4  and  C_18
REMARK    4  A    between atoms: O_5  and  C_19
REMARK    5  A    between atoms: O_6  and  C_20
REMARK    6  A    between atoms: C_8  and  C_11
REMARK                            x       y       z     vdW  Elec       q    Type
REMARK                         _______ _______ _______ _____ _____    ______ ____
ROOT
ATOM      1  C   UNL     1     105.336 124.741 147.109  0.00  0.00    +0.000 A 
ATOM      2  C   UNL     1     105.727 125.235 146.575  0.00  0.00    +0.000 A 
ATOM      3  C   UNL     1     105.695 124.541 147.825  0.00  0.00    +0.000 A 
ATOM      4  C   UNL     1     106.475 125.530 146.759  0.00  0.00    +0.000 A 
ATOM      5  C   UNL     1     106.444 124.836 148.007  0.00  0.00    +0.000 A 
ATOM      6  C   UNL     1     106.833 125.330 147.475  0.00  0.00    +0.000 A 
ENDROOT
BRANCH   1   9
ATOM      7  O   UNL     1     103.763 123.482 146.269  0.00  0.00    +0.000 OA
ATOM      8  O   UNL     1     100.863 123.635 146.478  0.00  0.00    +0.000 OA
ATOM      9  C   UNL     1     104.588 124.446 146.926  0.00  0.00    +0.000 C 
ATOM     10  C   UNL     1     103.914 124.824 147.217  0.00  0.00    +0.000 C 
ATOM     11  C   UNL     1     104.513 123.775 146.452  0.00  0.00    +0.000 C 
ATOM     12  C   UNL     1     103.165 124.529 147.034  0.00  0.00    +0.000 A 
ATOM     13  C   UNL     1     103.090 123.858 146.560  0.00  0.00    +0.000 A 
ATOM     14  C   UNL     1     102.471 124.931 147.343  0.00  0.00    +0.000 A 
ATOM     15  C   UNL     1     102.315 123.543 146.362  0.00  0.00    +0.000 A 
ATOM     16  C   UNL     1     101.689 124.630 147.156  0.00  0.00    +0.000 A 
ATOM     17  C   UNL     1     101.610 123.931 146.662  0.00  0.00    +0.000 A 
BRANCH  15  18
ATOM     18  O   UNL     1     102.250 122.871 145.888  0.00  0.00    +0.000 OA
ATOM     19  C   UNL     1     101.720 122.863 145.255  0.00  0.00    +0.000 C 
ENDBRANCH  15  18
ENDBRANCH   1   9
BRANCH   2  20
ATOM     20  O   UNL     1     105.368 125.435 145.860  0.00  0.00    +0.000 OA
ATOM     21  C   UNL     1     105.775 125.328 145.151  0.00  0.00    +0.000 C 
ENDBRANCH   2  20
BRANCH   4  22
ATOM     22  O   UNL     1     106.865 126.024 146.225  0.00  0.00    +0.000 OA
ATOM     23  C   UNL     1     106.843 126.842 146.330  0.00  0.00    +0.000 C 
ENDBRANCH   4  22
BRANCH   5  24
ATOM     24  O   UNL     1     106.802 124.637 148.723  0.00  0.00    +0.000 OA
ATOM     25  C   UNL     1     106.341 124.381 149.359  0.00  0.00    +0.000 C 
ENDBRANCH   5  24
BRANCH   6  26
ATOM     26  O   UNL     1     107.582 125.625 147.657  0.00  0.00    +0.000 OA
ATOM     27  C   UNL     1     108.232 125.118 147.673  0.00  0.00    +0.000 C 
ENDBRANCH   6  26
TORSDOF 6
ENDMDL
MODEL 5
REMARK VINA RESULT:      -7.1      0.945      4.670
REMARK  Name = 471694
REMARK  6 active torsions:
REMARK  status: ('A' for Active; 'I' for Inactive)
REMARK    1  A    between atoms: O_2  and  C_14
REMARK    2  A    between atoms: O_3  and  C_17
REMARK    3  A    between atoms: O_4  and  C_18
REMARK    4  A    between atoms: O_5  and  C_19
REMARK    5  A    between atoms: O_6  and  C_20
REMARK    6  A    between atoms: C_8  and  C_11
REMARK                            x       y       z     vdW  Elec       q    Type
REMARK                         _______ _______ _______ _____ _____    ______ ____
ROOT
ATOM      1  C   UNL     1     112.816 126.611 136.708  0.00  0.00    +0.000 A 
ATOM      2  C   UNL     1     113.283 126.055 137.102  0.00  0.00    +0.000 A 
ATOM      3  C   UNL     1     112.158 126.365 136.276  0.00  0.00    +0.000 A 
ATOM      4  C   UNL     1     113.090 125.254 137.064  0.00  0.00    +0.000 A 
ATOM      5  C   UNL     1     111.966 125.563 136.239  0.00  0.00    +0.000 A 
ATOM      6  C   UNL     1     112.431 125.008 136.632  0.00  0.00    +0.000 A 
ENDROOT
BRANCH   1   9
ATOM      7  O   UNL     1     112.915 128.679 137.400  0.00  0.00    +0.000 OA
ATOM      8  O   UNL     1     114.282 131.007 136.310  0.00  0.00    +0.000 OA
ATOM      9  C   UNL     1     113.009 127.412 136.746  0.00  0.00    +0.000 C 
ATOM     10  C   UNL     1     113.491 127.748 136.165  0.00  0.00    +0.000 C 
ATOM     11  C   UNL     1     112.721 127.877 137.363  0.00  0.00    +0.000 C 
ATOM     12  C   UNL     1     113.684 128.549 136.203  0.00  0.00    +0.000 A 
ATOM     13  C   UNL     1     113.396 129.014 136.821  0.00  0.00    +0.000 A 
ATOM     14  C   UNL     1     114.186 128.888 135.593  0.00  0.00    +0.000 A 
ATOM     15  C   UNL     1     113.590 129.850 136.871  0.00  0.00    +0.000 A 
ATOM     16  C   UNL     1     114.390 129.721 135.627  0.00  0.00    +0.000 A 
ATOM     17  C   UNL     1     114.091 130.206 136.270  0.00  0.00    +0.000 A 
BRANCH  15  18
ATOM     18  O   UNL     1     113.298 130.308 137.492  0.00  0.00    +0.000 OA
ATOM     19  C   UNL     1     113.820 130.702 137.995  0.00  0.00    +0.000 C 
ENDBRANCH  15  18
ENDBRANCH   1   9
BRANCH   2  20
ATOM     20  O   UNL     1     113.941 126.302 137.533  0.00  0.00    +0.000 OA
ATOM     21  C   UNL     1     114.048 126.040 138.308  0.00  0.00    +0.000 C 
ENDBRANCH   2  20
BRANCH   4  22
ATOM     22  O   UNL     1     113.557 124.699 137.458  0.00  0.00    +0.000 OA
ATOM     23  C   UNL     1     114.161 124.309 137.055  0.00  0.00    +0.000 C 
ENDBRANCH   4  22
BRANCH   5  24
ATOM     24  O   UNL     1     111.307 125.317 135.807  0.00  0.00    +0.000 OA
ATOM     25  C   UNL     1     110.932 125.841 135.291  0.00  0.00    +0.000 C 
ENDBRANCH   5  24
BRANCH   6  26
ATOM     26  O   UNL     1     112.239 124.206 136.595  0.00  0.00    +0.000 OA
ATOM     27  C   UNL     1     111.675 123.894 137.109  0.00  0.00    +0.000 C 
ENDBRANCH   6  26
TORSDOF 6
ENDMDL
MODEL 6
REMARK VINA RESULT:      -7.0      2.193      4.765
REMARK  Name = 471694
REMARK  6 active torsions:
REMARK  status: ('A' for Active; 'I' for Inactive)
REMARK    1  A    between atoms: O_2  and  C_14
REMARK    2  A    between atoms: O_3  and  C_17
REMARK    3  A    between atoms: O_4  and  C_18
REMARK    4  A    between atoms: O_5  and  C_19
REMARK    5  A    between atoms: O_6  and  C_20
REMARK    6  A    between atoms: C_8  and  C_11
REMARK                            x       y       z     vdW  Elec       q    Type
REMARK                         _______ _______ _______ _____ _____    ______ ____
ROOT
ATOM      1  C   UNL     1     112.895 126.023 138.040  0.00  0.00    +0.000 A 
ATOM      2  C   UNL     1     112.119 125.832 137.833  0.00  0.00    +0.000 A 
ATOM      3  C   UNL     1     113.520 125.552 137.779  0.00  0.00    +0.000 A 
ATOM      4  C   UNL     1     111.969 125.170 137.364  0.00  0.00    +0.000 A 
ATOM      5  C   UNL     1     113.368 124.889 137.311  0.00  0.00    +0.000 A 
ATOM      6  C   UNL     1     112.594 124.698 137.103  0.00  0.00    +0.000 A 
ENDROOT
BRANCH   1   9
ATOM      7  O   UNL     1     113.136 128.104 138.654  0.00  0.00    +0.000 OA
ATOM      8  O   UNL     1     113.865 129.278 141.217  0.00  0.00    +0.000 OA
ATOM      9  C   UNL     1     113.044 126.685 138.508  0.00  0.00    +0.000 C 
ATOM     10  C   UNL     1     113.253 126.590 139.302  0.00  0.00    +0.000 C 
ATOM     11  C   UNL     1     112.986 127.442 138.185  0.00  0.00    +0.000 C 
ATOM     12  C   UNL     1     113.403 127.253 139.770  0.00  0.00    +0.000 A 
ATOM     13  C   UNL     1     113.344 128.009 139.446  0.00  0.00    +0.000 A 
ATOM     14  C   UNL     1     113.619 127.141 140.595  0.00  0.00    +0.000 A 
ATOM     15  C   UNL     1     113.498 128.707 139.925  0.00  0.00    +0.000 A 
ATOM     16  C   UNL     1     113.776 127.827 141.088  0.00  0.00    +0.000 A 
ATOM     17  C   UNL     1     113.715 128.614 140.751  0.00  0.00    +0.000 A 
BRANCH  15  18
ATOM     18  O   UNL     1     113.437 129.459 139.592  0.00  0.00    +0.000 OA
ATOM     19  C   UNL     1     114.066 129.990 139.655  0.00  0.00    +0.000 C 
ENDBRANCH  15  18
ENDBRANCH   1   9
BRANCH   2  20
ATOM     20  O   UNL     1     111.494 126.303 138.093  0.00  0.00    +0.000 OA
ATOM     21  C   UNL     1     110.842 125.957 138.461  0.00  0.00    +0.000 C 
ENDBRANCH   2  20
BRANCH   4  22
ATOM     22  O   UNL     1     111.193 124.978 137.157  0.00  0.00    +0.000 OA
ATOM     23  C   UNL     1     110.899 125.196 136.417  0.00  0.00    +0.000 C 
ENDBRANCH   4  22
BRANCH   5  24
ATOM     24  O   UNL     1     113.993 124.418 137.050  0.00  0.00    +0.000 OA
ATOM     25  C   UNL     1     114.740 124.750 136.932  0.00  0.00    +0.000 C 
ENDBRANCH   5  24
BRANCH   6  26
ATOM     26  O   UNL     1     112.443 124.036 136.635  0.00  0.00    +0.000 OA
ATOM     27  C   UNL     1     112.385 123.290 136.982  0.00  0.00    +0.000 C 
ENDBRANCH   6  26
TORSDOF 6
ENDMDL
MODEL 7
REMARK VINA RESULT:      -7.0      0.807      1.780
REMARK  Name = 471694
REMARK  6 active torsions:
REMARK  status: ('A' for Active; 'I' for Inactive)
REMARK    1  A    between atoms: O_2  and  C_14
REMARK    2  A    between atoms: O_3  and  C_17
REMARK    3  A    between atoms: O_4  and  C_18
REMARK    4  A    between atoms: O_5  and  C_19
REMARK    5  A    between atoms: O_6  and  C_20
REMARK    6  A    between atoms: C_8  and  C_11
REMARK                            x       y       z     vdW  Elec       q    Type
REMARK                         _______ _______ _______ _____ _____    ______ ____
ROOT
ATOM      1  C   UNL     1     113.332 128.450 136.858  0.00  0.00    +0.000 A 
ATOM      2  C   UNL     1     113.622 128.910 136.237  0.00  0.00    +0.000 A 
ATOM      3  C   UNL     1     113.182 128.795 137.593  0.00  0.00    +0.000 A 
ATOM      4  C   UNL     1     113.763 129.715 136.352  0.00  0.00    +0.000 A 
ATOM      5  C   UNL     1     113.323 129.600 137.706  0.00  0.00    +0.000 A 
ATOM      6  C   UNL     1     113.614 130.060 137.086  0.00  0.00    +0.000 A 
ENDROOT
BRANCH   1   9
ATOM      7  O   UNL     1     112.313 126.584 136.365  0.00  0.00    +0.000 OA
ATOM      8  O   UNL     1     113.228 123.820 136.431  0.00  0.00    +0.000 OA
ATOM      9  C   UNL     1     113.191 127.646 136.744  0.00  0.00    +0.000 C 
ATOM     10  C   UNL     1     113.789 127.097 136.894  0.00  0.00    +0.000 C 
ATOM     11  C   UNL     1     112.453 127.389 136.479  0.00  0.00    +0.000 C 
ATOM     12  C   UNL     1     113.649 126.293 136.779  0.00  0.00    +0.000 A 
ATOM     13  C   UNL     1     112.911 126.036 136.515  0.00  0.00    +0.000 A 
ATOM     14  C   UNL     1     114.280 125.731 136.939  0.00  0.00    +0.000 A 
ATOM     15  C   UNL     1     112.753 125.200 136.392  0.00  0.00    +0.000 A 
ATOM     16  C   UNL     1     114.140 124.892 136.822  0.00  0.00    +0.000 A 
ATOM     17  C   UNL     1     113.371 124.624 136.546  0.00  0.00    +0.000 A 
BRANCH  15  18
ATOM     18  O   UNL     1     112.011 124.953 136.127  0.00  0.00    +0.000 OA
ATOM     19  C   UNL     1     111.584 124.394 136.559  0.00  0.00    +0.000 C 
ENDBRANCH  15  18
ENDBRANCH   1   9
BRANCH   2  20
ATOM     20  O   UNL     1     113.772 128.566 135.503  0.00  0.00    +0.000 OA
ATOM     21  C   UNL     1     113.490 128.922 134.815  0.00  0.00    +0.000 C 
ENDBRANCH   2  20
BRANCH   4  22
ATOM     22  O   UNL     1     114.053 130.175 135.731  0.00  0.00    +0.000 OA
ATOM     23  C   UNL     1     114.858 130.355 135.693  0.00  0.00    +0.000 C 
ENDBRANCH   4  22
BRANCH   5  24
ATOM     24  O   UNL     1     113.174 129.945 138.440  0.00  0.00    +0.000 OA
ATOM     25  C   UNL     1     113.246 129.496 139.130  0.00  0.00    +0.000 C 
ENDBRANCH   5  24
BRANCH   6  26
ATOM     26  O   UNL     1     113.755 130.865 137.200  0.00  0.00    +0.000 OA
ATOM     27  C   UNL     1     113.130 131.403 137.159  0.00  0.00    +0.000 C 
ENDBRANCH   6  26
TORSDOF 6
ENDMDL
MODEL 8
REMARK VINA RESULT:      -7.0      1.983      2.956
REMARK  Name = 471694
REMARK  6 active torsions:
REMARK  status: ('A' for Active; 'I' for Inactive)
REMARK    1  A    between atoms: O_2  and  C_14
REMARK    2  A    between atoms: O_3  and  C_17
REMARK    3  A    between atoms: O_4  and  C_18
REMARK    4  A    between atoms: O_5  and  C_19
REMARK    5  A    between atoms: O_6  and  C_20
REMARK    6  A    between atoms: C_8  and  C_11
REMARK                            x       y       z     vdW  Elec       q    Type
REMARK                         _______ _______ _______ _____ _____    ______ ____
ROOT
ATOM      1  C   UNL     1     113.329 127.239 139.207  0.00  0.00    +0.000 A 
ATOM      2  C   UNL     1     113.003 127.979 139.038  0.00  0.00    +0.000 A 
ATOM      3  C   UNL     1     113.799 127.139 139.877  0.00  0.00    +0.000 A 
ATOM      4  C   UNL     1     113.149 128.617 139.540  0.00  0.00    +0.000 A 
ATOM      5  C   UNL     1     113.944 127.778 140.378  0.00  0.00    +0.000 A 
ATOM      6  C   UNL     1     113.619 128.517 140.210  0.00  0.00    +0.000 A 
ENDROOT
BRANCH   1   9
ATOM      7  O   UNL     1     112.299 125.595 138.205  0.00  0.00    +0.000 OA
ATOM      8  O   UNL     1     113.196 123.733 136.154  0.00  0.00    +0.000 OA
ATOM      9  C   UNL     1     113.183 126.601 138.705  0.00  0.00    +0.000 C 
ATOM     10  C   UNL     1     113.777 126.329 138.200  0.00  0.00    +0.000 C 
ATOM     11  C   UNL     1     112.444 126.234 138.708  0.00  0.00    +0.000 C 
ATOM     12  C   UNL     1     113.631 125.691 137.699  0.00  0.00    +0.000 A 
ATOM     13  C   UNL     1     112.893 125.324 137.701  0.00  0.00    +0.000 A 
ATOM     14  C   UNL     1     114.258 125.418 137.177  0.00  0.00    +0.000 A 
ATOM     15  C   UNL     1     112.729 124.658 137.182  0.00  0.00    +0.000 A 
ATOM     16  C   UNL     1     114.113 124.754 136.652  0.00  0.00    +0.000 A 
ATOM     17  C   UNL     1     113.343 124.371 136.655  0.00  0.00    +0.000 A 
BRANCH  15  18
ATOM     18  O   UNL     1     111.987 124.297 137.192  0.00  0.00    +0.000 OA
ATOM     19  C   UNL     1     111.547 124.242 136.496  0.00  0.00    +0.000 C 
ENDBRANCH  15  18
ENDBRANCH   1   9
BRANCH   2  20
ATOM     20  O   UNL     1     112.532 128.079 138.368  0.00  0.00    +0.000 OA
ATOM     21  C   UNL     1     112.688 128.696 137.844  0.00  0.00    +0.000 C 
ENDBRANCH   2  20
BRANCH   4  22
ATOM     22  O   UNL     1     112.823 129.357 139.371  0.00  0.00    +0.000 OA
ATOM     23  C   UNL     1     112.142 129.606 139.765  0.00  0.00    +0.000 C 
ENDBRANCH   4  22
BRANCH   5  24
ATOM     24  O   UNL     1     114.415 127.677 141.048  0.00  0.00    +0.000 OA
ATOM     25  C   UNL     1     114.608 126.918 141.308  0.00  0.00    +0.000 C 
ENDBRANCH   5  24
BRANCH   6  26
ATOM     26  O   UNL     1     113.765 129.156 140.711  0.00  0.00    +0.000 OA
ATOM     27  C   UNL     1     114.478 129.567 140.659  0.00  0.00    +0.000 C 
ENDBRANCH   6  26
TORSDOF 6
ENDMDL
MODEL 9
REMARK VINA RESULT:      -7.0     12.688     14.465
REMARK  Name = 471694
REMARK  6 active torsions:
REMARK  status: ('A' for Active; 'I' for Inactive)
REMARK    1  A    between atoms: O_2  and  C_14
REMARK    2  A    between atoms: O_3  and  C_17
REMARK    3  A    between atoms: O_4  and  C_18
REMARK    4  A    between atoms: O_5  and  C_19
REMARK    5  A    between atoms: O_6  and  C_20
REMARK    6  A    between atoms: C_8  and  C_11
REMARK                            x       y       z     vdW  Elec       q    Type
REMARK                         _______ _______ _______ _____ _____    ______ ____
ROOT
ATOM      1  C   UNL     1     103.840 124.258 146.935  0.00  0.00    +0.000 A 
ATOM      2  C   UNL     1     103.249 124.347 147.506  0.00  0.00    +0.000 A 
ATOM      3  C   UNL     1     103.684 123.837 146.243  0.00  0.00    +0.000 A 
ATOM      4  C   UNL     1     102.505 124.015 147.383  0.00  0.00    +0.000 A 
ATOM      5  C   UNL     1     102.938 123.506 146.121  0.00  0.00    +0.000 A 
ATOM      6  C   UNL     1     102.349 123.594 146.691  0.00  0.00    +0.000 A 
ENDROOT
BRANCH   1   9
ATOM      7  O   UNL     1     105.850 124.581 147.721  0.00  0.00    +0.000 OA
ATOM      8  O   UNL     1     107.838 126.627 147.132  0.00  0.00    +0.000 OA
ATOM      9  C   UNL     1     104.584 124.590 147.058  0.00  0.00    +0.000 C 
ATOM     10  C   UNL     1     104.809 125.266 146.640  0.00  0.00    +0.000 C 
ATOM     11  C   UNL     1     105.105 124.248 147.599  0.00  0.00    +0.000 C 
ATOM     12  C   UNL     1     105.553 125.598 146.763  0.00  0.00    +0.000 A 
ATOM     13  C   UNL     1     106.074 125.256 147.303  0.00  0.00    +0.000 A 
ATOM     14  C   UNL     1     105.775 126.302 146.321  0.00  0.00    +0.000 A 
ATOM     15  C   UNL     1     106.853 125.593 147.439  0.00  0.00    +0.000 A 
ATOM     16  C   UNL     1     106.550 126.653 146.445  0.00  0.00    +0.000 A 
ATOM     17  C   UNL     1     107.092 126.296 147.007  0.00  0.00    +0.000 A 
BRANCH  15  18
ATOM     18  O   UNL     1     107.367 125.244 147.982  0.00  0.00    +0.000 OA
ATOM     19  C   UNL     1     108.161 125.133 147.785  0.00  0.00    +0.000 C 
ENDBRANCH  15  18
ENDBRANCH   1   9
BRANCH   2  20
ATOM     20  O   UNL     1     103.405 124.768 148.198  0.00  0.00    +0.000 OA
ATOM     21  C   UNL     1     102.897 125.371 148.437  0.00  0.00    +0.000 C 
ENDBRANCH   2  20
BRANCH   4  22
ATOM     22  O   UNL     1     101.914 124.104 147.954  0.00  0.00    +0.000 OA
ATOM     23  C   UNL     1     101.744 123.483 148.470  0.00  0.00    +0.000 C 
ENDBRANCH   4  22
BRANCH   5  24
ATOM     24  O   UNL     1     102.783 123.085 145.429  0.00  0.00    +0.000 OA
ATOM     25  C   UNL     1     103.403 122.739 145.007  0.00  0.00    +0.000 C 
ENDBRANCH   5  24
BRANCH   6  26
ATOM     26  O   UNL     1     101.603 123.262 146.569  0.00  0.00    +0.000 OA
ATOM     27  C   UNL     1     101.075 123.618 146.045  0.00  0.00    +0.000 C 
ENDBRANCH   6  26
TORSDOF 6
ENDMDL
