MODEL 1
REMARK VINA RESULT:      -8.7      0.000      0.000
REMARK  Name = 14164881
REMARK  2 active torsions:
REMARK  status: ('A' for Active; 'I' for Inactive)
REMARK    1  A    between atoms: O_2  and  C_8
REMARK    2  A    between atoms: C_7  and  C_10
REMARK                            x       y       z     vdW  Elec       q    Type
REMARK                         _______ _______ _______ _____ _____    ______ ____
ROOT
ATOM      1  O   UNL     1     105.572 124.439 147.771  0.00  0.00    +0.000 OA
ATOM      2  O   UNL     1     106.958 125.632 146.104  0.00  0.00    +0.000 OA
ATOM      3  O   UNL     1     108.097 125.607 146.989  0.00  0.00    +0.000 OA
ATOM      4  O   UNL     1     107.827 124.350 149.612  0.00  0.00    +0.000 OA
ATOM      5  C   UNL     1     105.247 124.657 147.045  0.00  0.00    +0.000 C 
ATOM      6  C   UNL     1     105.709 125.055 146.489  0.00  0.00    +0.000 C 
ATOM      7  C   UNL     1     106.496 125.234 146.660  0.00  0.00    +0.000 C 
ATOM      8  C   UNL     1     106.821 125.016 147.385  0.00  0.00    +0.000 A 
ATOM      9  C   UNL     1     106.359 124.618 147.941  0.00  0.00    +0.000 A 
ATOM     10  C   UNL     1     107.643 125.209 147.551  0.00  0.00    +0.000 A 
ATOM     11  C   UNL     1     106.687 124.386 148.701  0.00  0.00    +0.000 A 
ATOM     12  C   UNL     1     107.987 124.984 148.306  0.00  0.00    +0.000 A 
ATOM     13  C   UNL     1     107.506 124.570 148.884  0.00  0.00    +0.000 A 
ENDROOT
BRANCH   5  15
ATOM     14  O   UNL     1     102.098 123.940 146.367  0.00  0.00    +0.000 OA
ATOM     15  C   UNL     1     104.460 124.477 146.875  0.00  0.00    +0.000 A 
ATOM     16  C   UNL     1     103.856 124.966 147.155  0.00  0.00    +0.000 A 
ATOM     17  C   UNL     1     104.277 123.810 146.426  0.00  0.00    +0.000 A 
ATOM     18  C   UNL     1     103.070 124.786 146.985  0.00  0.00    +0.000 A 
ATOM     19  C   UNL     1     103.489 123.631 146.257  0.00  0.00    +0.000 A 
ATOM     20  C   UNL     1     102.886 124.119 146.536  0.00  0.00    +0.000 A 
ENDBRANCH   5  15
BRANCH   6  21
ATOM     21  O   UNL     1     105.384 125.273 145.763  0.00  0.00    +0.000 OA
ATOM     22  C   UNL     1     105.827 125.723 145.232  0.00  0.00    +0.000 C 
ENDBRANCH   6  21
TORSDOF 2
ENDMDL
MODEL 2
REMARK VINA RESULT:      -8.0     12.535     13.481
REMARK  Name = 14164881
REMARK  2 active torsions:
REMARK  status: ('A' for Active; 'I' for Inactive)
REMARK    1  A    between atoms: O_2  and  C_8
REMARK    2  A    between atoms: C_7  and  C_10
REMARK                            x       y       z     vdW  Elec       q    Type
REMARK                         _______ _______ _______ _____ _____    ______ ____
ROOT
ATOM      1  O   UNL     1     111.961 125.757 136.037  0.00  0.00    +0.000 OA
ATOM      2  O   UNL     1     111.902 128.219 135.785  0.00  0.00    +0.000 OA
ATOM      3  O   UNL     1     110.640 128.146 135.091  0.00  0.00    +0.000 OA
ATOM      4  O   UNL     1     109.413 125.533 134.645  0.00  0.00    +0.000 OA
ATOM      5  C   UNL     1     112.577 126.218 136.338  0.00  0.00    +0.000 C 
ATOM      6  C   UNL     1     112.557 127.039 136.253  0.00  0.00    +0.000 C 
ATOM      7  C   UNL     1     111.922 127.398 135.869  0.00  0.00    +0.000 C 
ATOM      8  C   UNL     1     111.307 126.938 135.569  0.00  0.00    +0.000 A 
ATOM      9  C   UNL     1     111.327 126.118 135.653  0.00  0.00    +0.000 A 
ATOM     10  C   UNL     1     110.650 127.325 135.171  0.00  0.00    +0.000 A 
ATOM     11  C   UNL     1     110.691 125.627 135.345  0.00  0.00    +0.000 A 
ATOM     12  C   UNL     1     110.007 126.851 134.856  0.00  0.00    +0.000 A 
ATOM     13  C   UNL     1     110.027 125.997 134.944  0.00  0.00    +0.000 A 
ENDROOT
BRANCH   5  15
ATOM     14  O   UNL     1     115.115 124.776 137.877  0.00  0.00    +0.000 OA
ATOM     15  C   UNL     1     113.212 125.857 136.722  0.00  0.00    +0.000 A 
ATOM     16  C   UNL     1     113.205 125.778 137.543  0.00  0.00    +0.000 A 
ATOM     17  C   UNL     1     113.853 125.577 136.285  0.00  0.00    +0.000 A 
ATOM     18  C   UNL     1     113.840 125.417 137.928  0.00  0.00    +0.000 A 
ATOM     19  C   UNL     1     114.487 125.216 136.671  0.00  0.00    +0.000 A 
ATOM     20  C   UNL     1     114.481 125.136 137.491  0.00  0.00    +0.000 A 
ENDBRANCH   5  15
BRANCH   6  21
ATOM     21  O   UNL     1     113.172 127.498 136.553  0.00  0.00    +0.000 OA
ATOM     22  C   UNL     1     113.284 128.268 136.277  0.00  0.00    +0.000 C 
ENDBRANCH   6  21
TORSDOF 2
ENDMDL
MODEL 3
REMARK VINA RESULT:      -8.0     12.239     13.337
REMARK  Name = 14164881
REMARK  2 active torsions:
REMARK  status: ('A' for Active; 'I' for Inactive)
REMARK    1  A    between atoms: O_2  and  C_8
REMARK    2  A    between atoms: C_7  and  C_10
REMARK                            x       y       z     vdW  Elec       q    Type
REMARK                         _______ _______ _______ _____ _____    ______ ____
ROOT
ATOM      1  O   UNL     1     112.185 126.661 136.148  0.00  0.00    +0.000 OA
ATOM      2  O   UNL     1     110.719 124.758 135.553  0.00  0.00    +0.000 OA
ATOM      3  O   UNL     1     109.859 125.623 134.783  0.00  0.00    +0.000 OA
ATOM      4  O   UNL     1     110.495 128.469 134.612  0.00  0.00    +0.000 OA
ATOM      5  C   UNL     1     112.358 125.904 136.427  0.00  0.00    +0.000 C 
ATOM      6  C   UNL     1     111.869 125.269 136.229  0.00  0.00    +0.000 C 
ATOM      7  C   UNL     1     111.208 125.392 135.751  0.00  0.00    +0.000 C 
ATOM      8  C   UNL     1     111.034 126.149 135.473  0.00  0.00    +0.000 A 
ATOM      9  C   UNL     1     111.523 126.783 135.671  0.00  0.00    +0.000 A 
ATOM     10  C   UNL     1     110.342 126.264 134.976  0.00  0.00    +0.000 A 
ATOM     11  C   UNL     1     111.353 127.577 135.387  0.00  0.00    +0.000 A 
ATOM     12  C   UNL     1     110.157 127.049 134.683  0.00  0.00    +0.000 A 
ATOM     13  C   UNL     1     110.665 127.710 134.889  0.00  0.00    +0.000 A 
ENDROOT
BRANCH   5  15
ATOM     14  O   UNL     1     115.004 125.417 138.338  0.00  0.00    +0.000 OA
ATOM     15  C   UNL     1     113.019 125.782 136.904  0.00  0.00    +0.000 A 
ATOM     16  C   UNL     1     112.968 125.906 137.719  0.00  0.00    +0.000 A 
ATOM     17  C   UNL     1     113.732 125.537 136.568  0.00  0.00    +0.000 A 
ATOM     18  C   UNL     1     113.630 125.784 138.196  0.00  0.00    +0.000 A 
ATOM     19  C   UNL     1     114.393 125.415 137.046  0.00  0.00    +0.000 A 
ATOM     20  C   UNL     1     114.342 125.539 137.860  0.00  0.00    +0.000 A 
ENDBRANCH   5  15
BRANCH   6  21
ATOM     21  O   UNL     1     112.043 124.513 136.507  0.00  0.00    +0.000 OA
ATOM     22  C   UNL     1     111.622 123.863 136.223  0.00  0.00    +0.000 C 
ENDBRANCH   6  21
TORSDOF 2
ENDMDL
MODEL 4
REMARK VINA RESULT:      -8.0      6.656      8.257
REMARK  Name = 14164881
REMARK  2 active torsions:
REMARK  status: ('A' for Active; 'I' for Inactive)
REMARK    1  A    between atoms: O_2  and  C_8
REMARK    2  A    between atoms: C_7  and  C_10
REMARK                            x       y       z     vdW  Elec       q    Type
REMARK                         _______ _______ _______ _____ _____    ______ ____
ROOT
ATOM      1  O   UNL     1     103.374 130.179 142.337  0.00  0.00    +0.000 OA
ATOM      2  O   UNL     1     103.369 128.705 140.349  0.00  0.00    +0.000 OA
ATOM      3  O   UNL     1     104.323 127.818 140.968  0.00  0.00    +0.000 OA
ATOM      4  O   UNL     1     105.303 128.435 143.650  0.00  0.00    +0.000 OA
ATOM      5  C   UNL     1     102.900 130.364 141.687  0.00  0.00    +0.000 C 
ATOM      6  C   UNL     1     102.898 129.873 141.025  0.00  0.00    +0.000 C 
ATOM      7  C   UNL     1     103.370 129.196 141.012  0.00  0.00    +0.000 C 
ATOM      8  C   UNL     1     103.844 129.011 141.661  0.00  0.00    +0.000 A 
ATOM      9  C   UNL     1     103.846 129.503 142.324  0.00  0.00    +0.000 A 
ATOM     10  C   UNL     1     104.332 128.304 141.635  0.00  0.00    +0.000 A 
ATOM     11  C   UNL     1     104.336 129.320 143.006  0.00  0.00    +0.000 A 
ATOM     12  C   UNL     1     104.827 128.106 142.308  0.00  0.00    +0.000 A 
ATOM     13  C   UNL     1     104.829 128.618 142.998  0.00  0.00    +0.000 A 
ENDROOT
BRANCH   5  15
ATOM     14  O   UNL     1     101.015 133.072 141.742  0.00  0.00    +0.000 OA
ATOM     15  C   UNL     1     102.428 131.041 141.701  0.00  0.00    +0.000 A 
ATOM     16  C   UNL     1     102.734 131.762 141.439  0.00  0.00    +0.000 A 
ATOM     17  C   UNL     1     101.652 130.997 141.977  0.00  0.00    +0.000 A 
ATOM     18  C   UNL     1     102.262 132.438 141.453  0.00  0.00    +0.000 A 
ATOM     19  C   UNL     1     101.181 131.675 141.990  0.00  0.00    +0.000 A 
ATOM     20  C   UNL     1     101.486 132.395 141.729  0.00  0.00    +0.000 A 
ENDBRANCH   5  15
BRANCH   6  21
ATOM     21  O   UNL     1     102.424 130.058 140.376  0.00  0.00    +0.000 OA
ATOM     22  C   UNL     1     102.243 129.477 139.819  0.00  0.00    +0.000 C 
ENDBRANCH   6  21
TORSDOF 2
ENDMDL
MODEL 5
REMARK VINA RESULT:      -7.9      1.136      4.141
REMARK  Name = 14164881
REMARK  2 active torsions:
REMARK  status: ('A' for Active; 'I' for Inactive)
REMARK    1  A    between atoms: O_2  and  C_8
REMARK    2  A    between atoms: C_7  and  C_10
REMARK                            x       y       z     vdW  Elec       q    Type
REMARK                         _______ _______ _______ _____ _____    ______ ____
ROOT
ATOM      1  O   UNL     1     105.212 124.305 147.233  0.00  0.00    +0.000 OA
ATOM      2  O   UNL     1     103.657 125.739 148.518  0.00  0.00    +0.000 OA
ATOM      3  O   UNL     1     102.538 125.278 147.734  0.00  0.00    +0.000 OA
ATOM      4  O   UNL     1     103.001 123.329 145.608  0.00  0.00    +0.000 OA
ATOM      5  C   UNL     1     105.499 124.781 147.843  0.00  0.00    +0.000 C 
ATOM      6  C   UNL     1     104.981 125.259 148.272  0.00  0.00    +0.000 C 
ATOM      7  C   UNL     1     104.176 125.261 148.090  0.00  0.00    +0.000 C 
ATOM      8  C   UNL     1     103.889 124.785 147.480  0.00  0.00    +0.000 A 
ATOM      9  C   UNL     1     104.408 124.308 147.051  0.00  0.00    +0.000 A 
ATOM     10  C   UNL     1     103.049 124.797 147.300  0.00  0.00    +0.000 A 
ATOM     11  C   UNL     1     104.121 123.808 146.413  0.00  0.00    +0.000 A 
ATOM     12  C   UNL     1     102.745 124.304 146.665  0.00  0.00    +0.000 A 
ATOM     13  C   UNL     1     103.284 123.806 146.219  0.00  0.00    +0.000 A 
ENDROOT
BRANCH   5  15
ATOM     14  O   UNL     1     108.719 124.771 148.567  0.00  0.00    +0.000 OA
ATOM     15  C   UNL     1     106.304 124.778 148.025  0.00  0.00    +0.000 A 
ATOM     16  C   UNL     1     106.830 125.221 147.569  0.00  0.00    +0.000 A 
ATOM     17  C   UNL     1     106.582 124.333 148.661  0.00  0.00    +0.000 A 
ATOM     18  C   UNL     1     107.635 125.218 147.750  0.00  0.00    +0.000 A 
ATOM     19  C   UNL     1     107.387 124.331 148.841  0.00  0.00    +0.000 A 
ATOM     20  C   UNL     1     107.913 124.773 148.387  0.00  0.00    +0.000 A 
ENDBRANCH   5  15
BRANCH   6  21
ATOM     21  O   UNL     1     105.267 125.734 148.882  0.00  0.00    +0.000 OA
ATOM     22  C   UNL     1     104.850 126.408 149.110  0.00  0.00    +0.000 C 
ENDBRANCH   6  21
TORSDOF 2
ENDMDL
MODEL 6
REMARK VINA RESULT:      -7.9     10.050     11.846
REMARK  Name = 14164881
REMARK  2 active torsions:
REMARK  status: ('A' for Active; 'I' for Inactive)
REMARK    1  A    between atoms: O_2  and  C_8
REMARK    2  A    between atoms: C_7  and  C_10
REMARK                            x       y       z     vdW  Elec       q    Type
REMARK                         _______ _______ _______ _____ _____    ______ ____
ROOT
ATOM      1  O   UNL     1     113.670 126.396 138.894  0.00  0.00    +0.000 OA
ATOM      2  O   UNL     1     111.303 125.675 138.917  0.00  0.00    +0.000 OA
ATOM      3  O   UNL     1     111.092 126.308 140.196  0.00  0.00    +0.000 OA
ATOM      4  O   UNL     1     113.320 127.697 141.476  0.00  0.00    +0.000 OA
ATOM      5  C   UNL     1     113.366 125.958 138.264  0.00  0.00    +0.000 C 
ATOM      6  C   UNL     1     112.577 125.717 138.272  0.00  0.00    +0.000 C 
ATOM      7  C   UNL     1     112.092 125.915 138.909  0.00  0.00    +0.000 C 
ATOM      8  C   UNL     1     112.395 126.353 139.539  0.00  0.00    +0.000 A 
ATOM      9  C   UNL     1     113.184 126.593 139.531  0.00  0.00    +0.000 A 
ATOM     10  C   UNL     1     111.880 126.552 140.197  0.00  0.00    +0.000 A 
ATOM     11  C   UNL     1     113.513 127.050 140.181  0.00  0.00    +0.000 A 
ATOM     12  C   UNL     1     112.190 127.008 140.855  0.00  0.00    +0.000 A 
ATOM     13  C   UNL     1     113.012 127.259 140.848  0.00  0.00    +0.000 A 
ENDROOT
BRANCH   5  15
ATOM     14  O   UNL     1     115.308 125.171 135.715  0.00  0.00    +0.000 OA
ATOM     15  C   UNL     1     113.852 125.760 137.627  0.00  0.00    +0.000 A 
ATOM     16  C   UNL     1     113.874 126.246 136.960  0.00  0.00    +0.000 A 
ATOM     17  C   UNL     1     114.315 125.078 137.657  0.00  0.00    +0.000 A 
ATOM     18  C   UNL     1     114.360 126.049 136.323  0.00  0.00    +0.000 A 
ATOM     19  C   UNL     1     114.800 124.882 137.019  0.00  0.00    +0.000 A 
ATOM     20  C   UNL     1     114.823 125.367 136.353  0.00  0.00    +0.000 A 
ENDBRANCH   5  15
BRANCH   6  21
ATOM     21  O   UNL     1     112.273 125.280 137.642  0.00  0.00    +0.000 OA
ATOM     22  C   UNL     1     111.555 124.883 137.725  0.00  0.00    +0.000 C 
ENDBRANCH   6  21
TORSDOF 2
ENDMDL
MODEL 7
REMARK VINA RESULT:      -7.7     12.607     13.064
REMARK  Name = 14164881
REMARK  2 active torsions:
REMARK  status: ('A' for Active; 'I' for Inactive)
REMARK    1  A    between atoms: O_2  and  C_8
REMARK    2  A    between atoms: C_7  and  C_10
REMARK                            x       y       z     vdW  Elec       q    Type
REMARK                         _______ _______ _______ _____ _____    ______ ____
ROOT
ATOM      1  O   UNL     1     112.754 126.541 136.428  0.00  0.00    +0.000 OA
ATOM      2  O   UNL     1     111.230 124.639 135.999  0.00  0.00    +0.000 OA
ATOM      3  O   UNL     1     112.224 123.701 136.460  0.00  0.00    +0.000 OA
ATOM      4  O   UNL     1     114.809 124.707 137.374  0.00  0.00    +0.000 OA
ATOM      5  C   UNL     1     111.998 126.678 136.125  0.00  0.00    +0.000 C 
ATOM      6  C   UNL     1     111.490 126.044 135.982  0.00  0.00    +0.000 C 
ATOM      7  C   UNL     1     111.738 125.273 136.142  0.00  0.00    +0.000 C 
ATOM      8  C   UNL     1     112.493 125.136 136.444  0.00  0.00    +0.000 A 
ATOM      9  C   UNL     1     113.001 125.770 136.587  0.00  0.00    +0.000 A 
ATOM     10  C   UNL     1     112.739 124.329 136.606  0.00  0.00    +0.000 A 
ATOM     11  C   UNL     1     113.790 125.641 136.903  0.00  0.00    +0.000 A 
ATOM     12  C   UNL     1     113.524 124.180 136.922  0.00  0.00    +0.000 A 
ATOM     13  C   UNL     1     114.053 124.840 137.071  0.00  0.00    +0.000 A 
ENDROOT
BRANCH   5  15
ATOM     14  O   UNL     1     111.011 129.762 135.490  0.00  0.00    +0.000 OA
ATOM     15  C   UNL     1     111.752 127.449 135.966  0.00  0.00    +0.000 A 
ATOM     16  C   UNL     1     111.351 127.881 136.544  0.00  0.00    +0.000 A 
ATOM     17  C   UNL     1     111.906 127.788 135.230  0.00  0.00    +0.000 A 
ATOM     18  C   UNL     1     111.104 128.652 136.385  0.00  0.00    +0.000 A 
ATOM     19  C   UNL     1     111.658 128.559 135.072  0.00  0.00    +0.000 A 
ATOM     20  C   UNL     1     111.258 128.991 135.648  0.00  0.00    +0.000 A 
ENDBRANCH   5  15
BRANCH   6  21
ATOM     21  O   UNL     1     110.736 126.180 135.679  0.00  0.00    +0.000 OA
ATOM     22  C   UNL     1     110.325 125.571 135.305  0.00  0.00    +0.000 C 
ENDBRANCH   6  21
TORSDOF 2
ENDMDL
MODEL 8
REMARK VINA RESULT:      -7.7      7.633      9.419
REMARK  Name = 14164881
REMARK  2 active torsions:
REMARK  status: ('A' for Active; 'I' for Inactive)
REMARK    1  A    between atoms: O_2  and  C_8
REMARK    2  A    between atoms: C_7  and  C_10
REMARK                            x       y       z     vdW  Elec       q    Type
REMARK                         _______ _______ _______ _____ _____    ______ ____
ROOT
ATOM      1  O   UNL     1     102.068 130.930 140.984  0.00  0.00    +0.000 OA
ATOM      2  O   UNL     1     103.532 129.859 142.668  0.00  0.00    +0.000 OA
ATOM      3  O   UNL     1     103.798 128.755 141.778  0.00  0.00    +0.000 OA
ATOM      4  O   UNL     1     102.559 128.736 139.133  0.00  0.00    +0.000 OA
ATOM      5  C   UNL     1     102.189 131.292 141.716  0.00  0.00    +0.000 C 
ATOM      6  C   UNL     1     102.677 130.935 142.278  0.00  0.00    +0.000 C 
ATOM      7  C   UNL     1     103.044 130.216 142.107  0.00  0.00    +0.000 C 
ATOM      8  C   UNL     1     102.924 129.854 141.376  0.00  0.00    +0.000 A 
ATOM      9  C   UNL     1     102.436 130.211 140.815  0.00  0.00    +0.000 A 
ATOM     10  C   UNL     1     103.312 129.105 141.211  0.00  0.00    +0.000 A 
ATOM     11  C   UNL     1     102.303 129.843 140.049  0.00  0.00    +0.000 A 
ATOM     12  C   UNL     1     103.190 128.723 140.451  0.00  0.00    +0.000 A 
ATOM     13  C   UNL     1     102.682 129.095 139.866  0.00  0.00    +0.000 A 
ENDROOT
BRANCH   5  15
ATOM     14  O   UNL     1     100.721 134.169 142.393  0.00  0.00    +0.000 OA
ATOM     15  C   UNL     1     101.822 132.011 141.886  0.00  0.00    +0.000 A 
ATOM     16  C   UNL     1     102.200 132.721 141.701  0.00  0.00    +0.000 A 
ATOM     17  C   UNL     1     101.077 132.020 142.240  0.00  0.00    +0.000 A 
ATOM     18  C   UNL     1     101.833 133.440 141.870  0.00  0.00    +0.000 A 
ATOM     19  C   UNL     1     100.710 132.740 142.408  0.00  0.00    +0.000 A 
ATOM     20  C   UNL     1     101.088 133.449 142.224  0.00  0.00    +0.000 A 
ENDBRANCH   5  15
BRANCH   6  21
ATOM     21  O   UNL     1     102.797 131.297 143.008  0.00  0.00    +0.000 OA
ATOM     22  C   UNL     1     103.302 130.951 143.562  0.00  0.00    +0.000 C 
ENDBRANCH   6  21
TORSDOF 2
ENDMDL
MODEL 9
REMARK VINA RESULT:      -7.6     12.692     13.797
REMARK  Name = 14164881
REMARK  2 active torsions:
REMARK  status: ('A' for Active; 'I' for Inactive)
REMARK    1  A    between atoms: O_2  and  C_8
REMARK    2  A    between atoms: C_7  and  C_10
REMARK                            x       y       z     vdW  Elec       q    Type
REMARK                         _______ _______ _______ _____ _____    ______ ____
ROOT
ATOM      1  O   UNL     1     113.798 127.653 136.481  0.00  0.00    +0.000 OA
ATOM      2  O   UNL     1     111.417 127.519 135.818  0.00  0.00    +0.000 OA
ATOM      3  O   UNL     1     111.402 128.921 135.479  0.00  0.00    +0.000 OA
ATOM      4  O   UNL     1     113.843 130.488 135.817  0.00  0.00    +0.000 OA
ATOM      5  C   UNL     1     113.394 126.935 136.534  0.00  0.00    +0.000 C 
ATOM      6  C   UNL     1     112.600 126.890 136.313  0.00  0.00    +0.000 C 
ATOM      7  C   UNL     1     112.211 127.564 136.039  0.00  0.00    +0.000 C 
ATOM      8  C   UNL     1     112.613 128.281 135.985  0.00  0.00    +0.000 A 
ATOM      9  C   UNL     1     113.407 128.326 136.206  0.00  0.00    +0.000 A 
ATOM     10  C   UNL     1     112.196 128.975 135.697  0.00  0.00    +0.000 A 
ATOM     11  C   UNL     1     113.838 129.068 136.155  0.00  0.00    +0.000 A 
ATOM     12  C   UNL     1     112.610 129.725 135.639  0.00  0.00    +0.000 A 
ATOM     13  C   UNL     1     113.437 129.772 135.869  0.00  0.00    +0.000 A 
ENDROOT
BRANCH   5  15
ATOM     14  O   UNL     1     114.957 124.245 137.635  0.00  0.00    +0.000 OA
ATOM     15  C   UNL     1     113.785 126.263 136.809  0.00  0.00    +0.000 A 
ATOM     16  C   UNL     1     113.742 126.058 137.608  0.00  0.00    +0.000 A 
ATOM     17  C   UNL     1     114.218 125.794 136.286  0.00  0.00    +0.000 A 
ATOM     18  C   UNL     1     114.133 125.386 137.882  0.00  0.00    +0.000 A 
ATOM     19  C   UNL     1     114.609 125.122 136.562  0.00  0.00    +0.000 A 
ATOM     20  C   UNL     1     114.566 124.918 137.359  0.00  0.00    +0.000 A 
ENDBRANCH   5  15
BRANCH   6  21
ATOM     21  O   UNL     1     112.198 126.173 136.367  0.00  0.00    +0.000 OA
ATOM     22  C   UNL     1     111.510 126.052 135.926  0.00  0.00    +0.000 C 
ENDBRANCH   6  21
TORSDOF 2
ENDMDL
MODEL 10
REMARK VINA RESULT:      -7.6      1.512      4.185
REMARK  Name = 14164881
REMARK  2 active torsions:
REMARK  status: ('A' for Active; 'I' for Inactive)
REMARK    1  A    between atoms: O_2  and  C_8
REMARK    2  A    between atoms: C_7  and  C_10
REMARK                            x       y       z     vdW  Elec       q    Type
REMARK                         _______ _______ _______ _____ _____    ______ ____
ROOT
ATOM      1  O   UNL     1     103.500 124.034 147.235  0.00  0.00    +0.000 OA
ATOM      2  O   UNL     1     104.146 123.416 144.927  0.00  0.00    +0.000 OA
ATOM      3  O   UNL     1     102.876 122.765 144.715  0.00  0.00    +0.000 OA
ATOM      4  O   UNL     1     100.916 122.739 146.879  0.00  0.00    +0.000 OA
ATOM      5  C   UNL     1     104.241 124.250 146.942  0.00  0.00    +0.000 C 
ATOM      6  C   UNL     1     104.456 124.044 146.172  0.00  0.00    +0.000 C 
ATOM      7  C   UNL     1     103.930 123.622 145.696  0.00  0.00    +0.000 C 
ATOM      8  C   UNL     1     103.190 123.406 145.989  0.00  0.00    +0.000 A 
ATOM      9  C   UNL     1     102.975 123.612 146.758  0.00  0.00    +0.000 A 
ATOM     10  C   UNL     1     102.652 122.967 145.483  0.00  0.00    +0.000 A 
ATOM     11  C   UNL     1     102.206 123.393 147.074  0.00  0.00    +0.000 A 
ATOM     12  C   UNL     1     101.880 122.739 145.782  0.00  0.00    +0.000 A 
ATOM     13  C   UNL     1     101.656 122.953 146.583  0.00  0.00    +0.000 A 
ENDROOT
BRANCH   5  15
ATOM     14  O   UNL     1     106.340 125.935 148.850  0.00  0.00    +0.000 OA
ATOM     15  C   UNL     1     104.765 124.672 147.418  0.00  0.00    +0.000 A 
ATOM     16  C   UNL     1     105.339 124.270 147.856  0.00  0.00    +0.000 A 
ATOM     17  C   UNL     1     104.717 125.494 147.458  0.00  0.00    +0.000 A 
ATOM     18  C   UNL     1     105.863 124.692 148.333  0.00  0.00    +0.000 A 
ATOM     19  C   UNL     1     105.242 125.915 147.936  0.00  0.00    +0.000 A 
ATOM     20  C   UNL     1     105.815 125.514 148.373  0.00  0.00    +0.000 A 
ENDBRANCH   5  15
BRANCH   6  21
ATOM     21  O   UNL     1     105.196 124.260 145.880  0.00  0.00    +0.000 OA
ATOM     22  C   UNL     1     105.309 124.346 145.067  0.00  0.00    +0.000 C 
ENDBRANCH   6  21
TORSDOF 2
ENDMDL
