MODEL 1
REMARK VINA RESULT:      -9.9      0.000      0.000
REMARK  Name = 18625123
REMARK  5 active torsions:
REMARK  status: ('A' for Active; 'I' for Inactive)
REMARK    1  A    between atoms: O_2  and  C_16
REMARK    2  A    between atoms: O_2  and  C_18
REMARK    3  A    between atoms: O_10  and  C_32
REMARK    4  A    between atoms: C_15  and  C_17
REMARK    5  A    between atoms: C_20  and  C_25
REMARK                            x       y       z     vdW  Elec       q    Type
REMARK                         _______ _______ _______ _____ _____    ______ ____
ROOT
ATOM      1  O   UNL     1     104.270 123.545 139.619  0.00  0.00    +0.000 OA
ATOM      2  O   UNL     1     106.039 125.243 139.285  0.00  0.00    +0.000 OA
ATOM      3  O   UNL     1     105.006 123.299 142.425  0.00  0.00    +0.000 OA
ATOM      4  C   UNL     1     105.844 124.581 140.791  0.00  0.00    +0.000 A 
ATOM      5  C   UNL     1     105.338 124.337 140.140  0.00  0.00    +0.000 A 
ATOM      6  C   UNL     1     104.381 123.885 138.875  0.00  0.00    +0.000 C 
ATOM      7  C   UNL     1     104.970 124.451 138.763  0.00  0.00    +0.000 C 
ATOM      8  C   UNL     1     104.749 123.771 140.251  0.00  0.00    +0.000 A 
ATOM      9  C   UNL     1     105.449 124.677 139.397  0.00  0.00    +0.000 C 
ATOM     10  C   UNL     1     105.733 124.230 141.567  0.00  0.00    +0.000 A 
ATOM     11  C   UNL     1     104.624 123.410 141.020  0.00  0.00    +0.000 A 
ATOM     12  C   UNL     1     105.119 123.641 141.683  0.00  0.00    +0.000 A 
ENDROOT
BRANCH   6  14
ATOM     13  O   UNL     1     101.781 123.588 137.724  0.00  0.00    +0.000 OA
ATOM     14  C   UNL     1     103.901 123.658 138.243  0.00  0.00    +0.000 A 
ATOM     15  C   UNL     1     103.081 123.736 138.299  0.00  0.00    +0.000 A 
ATOM     16  C   UNL     1     104.240 123.354 137.555  0.00  0.00    +0.000 A 
ATOM     17  C   UNL     1     102.601 123.510 137.668  0.00  0.00    +0.000 A 
ATOM     18  C   UNL     1     103.760 123.127 136.924  0.00  0.00    +0.000 A 
ATOM     19  C   UNL     1     102.940 123.205 136.980  0.00  0.00    +0.000 A 
BRANCH  19  20
ATOM     20  O   UNL     1     102.460 122.979 136.349  0.00  0.00    +0.000 OA
ATOM     21  C   UNL     1     102.798 122.797 135.618  0.00  0.00    +0.000 C 
ENDBRANCH  19  20
ENDBRANCH   6  14
BRANCH   4  22
ATOM     22  O   UNL     1     106.431 125.147 140.671  0.00  0.00    +0.000 OA
BRANCH  22  31
ATOM     23  O   UNL     1     105.877 126.287 141.331  0.00  0.00    +0.000 OA
ATOM     24  O   UNL     1     108.022 126.642 142.516  0.00  0.00    +0.000 OA
ATOM     25  O   UNL     1     106.753 127.664 142.780  0.00  0.00    +0.000 OA
ATOM     26  O   UNL     1     107.860 125.384 141.460  0.00  0.00    +0.000 OA
ATOM     27  C   UNL     1     107.307 126.524 142.120  0.00  0.00    +0.000 C 
ATOM     28  C   UNL     1     106.673 127.034 142.253  0.00  0.00    +0.000 C 
ATOM     29  C   UNL     1     107.227 125.894 141.593  0.00  0.00    +0.000 C 
ATOM     30  C   UNL     1     105.958 126.916 141.858  0.00  0.00    +0.000 C 
ATOM     31  C   UNL     1     106.512 125.776 141.198  0.00  0.00    +0.000 C 
BRANCH  30  33
ATOM     32  O   UNL     1     104.873 127.697 141.355  0.00  0.00    +0.000 OA
ATOM     33  C   UNL     1     105.324 127.427 141.991  0.00  0.00    +0.000 C 
ENDBRANCH  30  33
ENDBRANCH  22  31
ENDBRANCH   4  22
TORSDOF 5
ENDMDL
MODEL 2
REMARK VINA RESULT:      -8.8      4.340      7.197
REMARK  Name = 18625123
REMARK  5 active torsions:
REMARK  status: ('A' for Active; 'I' for Inactive)
REMARK    1  A    between atoms: O_2  and  C_16
REMARK    2  A    between atoms: O_2  and  C_18
REMARK    3  A    between atoms: O_10  and  C_32
REMARK    4  A    between atoms: C_15  and  C_17
REMARK    5  A    between atoms: C_20  and  C_25
REMARK                            x       y       z     vdW  Elec       q    Type
REMARK                         _______ _______ _______ _____ _____    ______ ____
ROOT
ATOM      1  O   UNL     1     106.334 124.950 145.688  0.00  0.00    +0.000 OA
ATOM      2  O   UNL     1     106.054 127.376 145.282  0.00  0.00    +0.000 OA
ATOM      3  O   UNL     1     105.774 124.396 142.885  0.00  0.00    +0.000 OA
ATOM      4  C   UNL     1     105.864 126.329 144.013  0.00  0.00    +0.000 A 
ATOM      5  C   UNL     1     106.056 126.031 144.797  0.00  0.00    +0.000 A 
ATOM      6  C   UNL     1     106.425 125.486 146.309  0.00  0.00    +0.000 C 
ATOM      7  C   UNL     1     106.332 126.294 146.174  0.00  0.00    +0.000 C 
ATOM      8  C   UNL     1     106.149 125.223 144.932  0.00  0.00    +0.000 A 
ATOM      9  C   UNL     1     106.147 126.567 145.417  0.00  0.00    +0.000 C 
ATOM     10  C   UNL     1     105.768 125.776 143.363  0.00  0.00    +0.000 A 
ATOM     11  C   UNL     1     106.057 124.656 144.293  0.00  0.00    +0.000 A 
ATOM     12  C   UNL     1     105.864 124.934 143.504  0.00  0.00    +0.000 A 
ENDROOT
BRANCH   6  14
ATOM     13  O   UNL     1     105.600 124.346 148.797  0.00  0.00    +0.000 OA
ATOM     14  C   UNL     1     106.610 125.212 147.065  0.00  0.00    +0.000 A 
ATOM     15  C   UNL     1     106.013 124.916 147.553  0.00  0.00    +0.000 A 
ATOM     16  C   UNL     1     107.389 125.233 147.334  0.00  0.00    +0.000 A 
ATOM     17  C   UNL     1     106.197 124.642 148.309  0.00  0.00    +0.000 A 
ATOM     18  C   UNL     1     107.573 124.959 148.090  0.00  0.00    +0.000 A 
ATOM     19  C   UNL     1     106.976 124.663 148.578  0.00  0.00    +0.000 A 
BRANCH  19  20
ATOM     20  O   UNL     1     107.160 124.389 149.334  0.00  0.00    +0.000 OA
ATOM     21  C   UNL     1     107.946 124.366 149.584  0.00  0.00    +0.000 C 
ENDBRANCH  19  20
ENDBRANCH   6  14
BRANCH   4  22
ATOM     22  O   UNL     1     105.773 127.138 143.887  0.00  0.00    +0.000 OA
BRANCH  22  31
ATOM     23  O   UNL     1     106.937 127.444 143.118  0.00  0.00    +0.000 OA
ATOM     24  O   UNL     1     105.536 128.670 141.485  0.00  0.00    +0.000 OA
ATOM     25  O   UNL     1     107.168 128.567 141.260  0.00  0.00    +0.000 OA
ATOM     26  O   UNL     1     104.839 127.955 142.799  0.00  0.00    +0.000 OA
ATOM     27  C   UNL     1     106.003 128.261 142.030  0.00  0.00    +0.000 C 
ATOM     28  C   UNL     1     106.818 128.210 141.917  0.00  0.00    +0.000 C 
ATOM     29  C   UNL     1     105.654 127.904 142.686  0.00  0.00    +0.000 C 
ATOM     30  C   UNL     1     107.285 127.802 142.461  0.00  0.00    +0.000 C 
ATOM     31  C   UNL     1     106.121 127.495 143.230  0.00  0.00    +0.000 C 
BRANCH  30  33
ATOM     32  O   UNL     1     108.612 127.830 142.991  0.00  0.00    +0.000 OA
ATOM     33  C   UNL     1     108.102 127.751 142.348  0.00  0.00    +0.000 C 
ENDBRANCH  30  33
ENDBRANCH  22  31
ENDBRANCH   4  22
TORSDOF 5
ENDMDL
MODEL 3
REMARK VINA RESULT:      -8.8      8.221      9.487
REMARK  Name = 18625123
REMARK  5 active torsions:
REMARK  status: ('A' for Active; 'I' for Inactive)
REMARK    1  A    between atoms: O_2  and  C_16
REMARK    2  A    between atoms: O_2  and  C_18
REMARK    3  A    between atoms: O_10  and  C_32
REMARK    4  A    between atoms: C_15  and  C_17
REMARK    5  A    between atoms: C_20  and  C_25
REMARK                            x       y       z     vdW  Elec       q    Type
REMARK                         _______ _______ _______ _____ _____    ______ ____
ROOT
ATOM      1  O   UNL     1     113.260 127.362 136.222  0.00  0.00    +0.000 OA
ATOM      2  O   UNL     1     111.923 128.564 137.924  0.00  0.00    +0.000 OA
ATOM      3  O   UNL     1     114.008 129.893 134.992  0.00  0.00    +0.000 OA
ATOM      4  C   UNL     1     112.721 129.445 136.770  0.00  0.00    +0.000 A 
ATOM      5  C   UNL     1     112.772 128.586 136.774  0.00  0.00    +0.000 A 
ATOM      6  C   UNL     1     112.856 126.939 136.804  0.00  0.00    +0.000 C 
ATOM      7  C   UNL     1     112.410 127.339 137.371  0.00  0.00    +0.000 C 
ATOM      8  C   UNL     1     113.218 128.186 136.207  0.00  0.00    +0.000 A 
ATOM      9  C   UNL     1     112.369 128.164 137.356  0.00  0.00    +0.000 C 
ATOM     10  C   UNL     1     113.139 129.890 136.166  0.00  0.00    +0.000 A 
ATOM     11  C   UNL     1     113.642 128.615 135.596  0.00  0.00    +0.000 A 
ATOM     12  C   UNL     1     113.603 129.473 135.575  0.00  0.00    +0.000 A 
ENDROOT
BRANCH   6  14
ATOM     13  O   UNL     1     114.301 124.546 137.398  0.00  0.00    +0.000 OA
ATOM     14  C   UNL     1     112.898 126.115 136.818  0.00  0.00    +0.000 A 
ATOM     15  C   UNL     1     113.578 125.742 137.101  0.00  0.00    +0.000 A 
ATOM     16  C   UNL     1     112.262 125.664 136.550  0.00  0.00    +0.000 A 
ATOM     17  C   UNL     1     113.621 124.919 137.115  0.00  0.00    +0.000 A 
ATOM     18  C   UNL     1     112.305 124.840 136.564  0.00  0.00    +0.000 A 
ATOM     19  C   UNL     1     112.984 124.467 136.847  0.00  0.00    +0.000 A 
BRANCH  19  20
ATOM     20  O   UNL     1     113.027 123.644 136.862  0.00  0.00    +0.000 OA
ATOM     21  C   UNL     1     112.335 123.195 136.862  0.00  0.00    +0.000 C 
ENDBRANCH  19  20
ENDBRANCH   6  14
BRANCH   4  22
ATOM     22  O   UNL     1     112.274 129.836 137.340  0.00  0.00    +0.000 OA
BRANCH  22  31
ATOM     23  O   UNL     1     111.156 130.236 136.544  0.00  0.00    +0.000 OA
ATOM     24  O   UNL     1     111.230 132.488 137.570  0.00  0.00    +0.000 OA
ATOM     25  O   UNL     1     110.088 132.136 136.432  0.00  0.00    +0.000 OA
ATOM     26  O   UNL     1     112.323 131.337 138.024  0.00  0.00    +0.000 OA
ATOM     27  C   UNL     1     111.205 131.736 137.228  0.00  0.00    +0.000 C 
ATOM     28  C   UNL     1     110.635 131.561 136.659  0.00  0.00    +0.000 C 
ATOM     29  C   UNL     1     111.752 131.162 137.455  0.00  0.00    +0.000 C 
ATOM     30  C   UNL     1     110.610 130.811 136.318  0.00  0.00    +0.000 C 
ATOM     31  C   UNL     1     111.728 130.412 137.114  0.00  0.00    +0.000 C 
BRANCH  30  33
ATOM     32  O   UNL     1     109.647 129.909 135.768  0.00  0.00    +0.000 OA
ATOM     33  C   UNL     1     110.038 130.635 135.748  0.00  0.00    +0.000 C 
ENDBRANCH  30  33
ENDBRANCH  22  31
ENDBRANCH   4  22
TORSDOF 5
ENDMDL
MODEL 4
REMARK VINA RESULT:      -8.8      4.907      6.466
REMARK  Name = 18625123
REMARK  5 active torsions:
REMARK  status: ('A' for Active; 'I' for Inactive)
REMARK    1  A    between atoms: O_2  and  C_16
REMARK    2  A    between atoms: O_2  and  C_18
REMARK    3  A    between atoms: O_10  and  C_32
REMARK    4  A    between atoms: C_15  and  C_17
REMARK    5  A    between atoms: C_20  and  C_25
REMARK                            x       y       z     vdW  Elec       q    Type
REMARK                         _______ _______ _______ _____ _____    ______ ____
ROOT
ATOM      1  O   UNL     1     105.472 126.571 143.936  0.00  0.00    +0.000 OA
ATOM      2  O   UNL     1     107.072 127.303 145.677  0.00  0.00    +0.000 OA
ATOM      3  O   UNL     1     105.348 123.921 145.135  0.00  0.00    +0.000 OA
ATOM      4  C   UNL     1     106.501 125.749 145.722  0.00  0.00    +0.000 A 
ATOM      5  C   UNL     1     106.244 126.289 145.104  0.00  0.00    +0.000 A 
ATOM      6  C   UNL     1     105.766 127.342 143.928  0.00  0.00    +0.000 C 
ATOM      7  C   UNL     1     106.300 127.587 144.509  0.00  0.00    +0.000 C 
ATOM      8  C   UNL     1     105.711 126.044 144.524  0.00  0.00    +0.000 A 
ATOM      9  C   UNL     1     106.539 127.059 145.097  0.00  0.00    +0.000 C 
ATOM     10  C   UNL     1     106.199 124.945 145.735  0.00  0.00    +0.000 A 
ATOM     11  C   UNL     1     105.399 125.245 144.521  0.00  0.00    +0.000 A 
ATOM     12  C   UNL     1     105.644 124.691 145.131  0.00  0.00    +0.000 A 
ENDROOT
BRANCH   6  14
ATOM     13  O   UNL     1     106.108 128.460 141.320  0.00  0.00    +0.000 OA
ATOM     14  C   UNL     1     105.527 127.869 143.340  0.00  0.00    +0.000 A 
ATOM     15  C   UNL     1     105.937 127.901 142.624  0.00  0.00    +0.000 A 
ATOM     16  C   UNL     1     104.878 128.363 143.466  0.00  0.00    +0.000 A 
ATOM     17  C   UNL     1     105.698 128.427 142.036  0.00  0.00    +0.000 A 
ATOM     18  C   UNL     1     104.639 128.888 142.877  0.00  0.00    +0.000 A 
ATOM     19  C   UNL     1     105.049 128.921 142.162  0.00  0.00    +0.000 A 
BRANCH  19  20
ATOM     20  O   UNL     1     104.810 129.447 141.573  0.00  0.00    +0.000 OA
ATOM     21  C   UNL     1     104.122 129.892 141.672  0.00  0.00    +0.000 C 
ENDBRANCH  19  20
ENDBRANCH   6  14
BRANCH   4  22
ATOM     22  O   UNL     1     107.034 126.001 146.298  0.00  0.00    +0.000 OA
BRANCH  22  31
ATOM     23  O   UNL     1     106.231 125.971 147.480  0.00  0.00    +0.000 OA
ATOM     24  O   UNL     1     108.009 124.712 148.656  0.00  0.00    +0.000 OA
ATOM     25  O   UNL     1     106.613 125.102 149.445  0.00  0.00    +0.000 OA
ATOM     26  O   UNL     1     108.219 125.162 147.082  0.00  0.00    +0.000 OA
ATOM     27  C   UNL     1     107.416 125.132 148.264  0.00  0.00    +0.000 C 
ATOM     28  C   UNL     1     106.719 125.326 148.658  0.00  0.00    +0.000 C 
ATOM     29  C   UNL     1     107.522 125.357 147.477  0.00  0.00    +0.000 C 
ATOM     30  C   UNL     1     106.126 125.746 148.266  0.00  0.00    +0.000 C 
ATOM     31  C   UNL     1     106.929 125.776 147.085  0.00  0.00    +0.000 C 
BRANCH  30  33
ATOM     32  O   UNL     1     105.056 126.661 148.509  0.00  0.00    +0.000 OA
ATOM     33  C   UNL     1     105.428 125.941 148.661  0.00  0.00    +0.000 C 
ENDBRANCH  30  33
ENDBRANCH  22  31
ENDBRANCH   4  22
TORSDOF 5
ENDMDL
MODEL 5
REMARK VINA RESULT:      -8.7      8.220      9.320
REMARK  Name = 18625123
REMARK  5 active torsions:
REMARK  status: ('A' for Active; 'I' for Inactive)
REMARK    1  A    between atoms: O_2  and  C_16
REMARK    2  A    between atoms: O_2  and  C_18
REMARK    3  A    between atoms: O_10  and  C_32
REMARK    4  A    between atoms: C_15  and  C_17
REMARK    5  A    between atoms: C_20  and  C_25
REMARK                            x       y       z     vdW  Elec       q    Type
REMARK                         _______ _______ _______ _____ _____    ______ ____
ROOT
ATOM      1  O   UNL     1     112.805 127.534 138.082  0.00  0.00    +0.000 OA
ATOM      2  O   UNL     1     113.181 127.679 140.524  0.00  0.00    +0.000 OA
ATOM      3  O   UNL     1     112.175 130.375 137.988  0.00  0.00    +0.000 OA
ATOM      4  C   UNL     1     112.747 129.050 139.702  0.00  0.00    +0.000 A 
ATOM      5  C   UNL     1     112.839 128.304 139.284  0.00  0.00    +0.000 A 
ATOM      6  C   UNL     1     113.022 126.860 138.507  0.00  0.00    +0.000 C 
ATOM      7  C   UNL     1     113.147 126.908 139.321  0.00  0.00    +0.000 C 
ATOM      8  C   UNL     1     112.714 128.256 138.470  0.00  0.00    +0.000 A 
ATOM      9  C   UNL     1     113.056 127.631 139.710  0.00  0.00    +0.000 C 
ATOM     10  C   UNL     1     112.522 129.754 139.264  0.00  0.00    +0.000 A 
ATOM     11  C   UNL     1     112.488 128.949 138.017  0.00  0.00    +0.000 A 
ATOM     12  C   UNL     1     112.392 129.703 138.417  0.00  0.00    +0.000 A 
ENDROOT
BRANCH   6  14
ATOM     13  O   UNL     1     114.713 124.891 137.310  0.00  0.00    +0.000 OA
ATOM     14  C   UNL     1     113.113 126.139 138.117  0.00  0.00    +0.000 A 
ATOM     15  C   UNL     1     113.867 125.876 137.908  0.00  0.00    +0.000 A 
ATOM     16  C   UNL     1     112.451 125.680 137.935  0.00  0.00    +0.000 A 
ATOM     17  C   UNL     1     113.959 125.155 137.519  0.00  0.00    +0.000 A 
ATOM     18  C   UNL     1     112.543 124.959 137.546  0.00  0.00    +0.000 A 
ATOM     19  C   UNL     1     113.297 124.696 137.337  0.00  0.00    +0.000 A 
BRANCH  19  20
ATOM     20  O   UNL     1     113.389 123.975 136.947  0.00  0.00    +0.000 OA
ATOM     21  C   UNL     1     112.729 123.507 136.785  0.00  0.00    +0.000 C 
ENDBRANCH  19  20
ENDBRANCH   6  14
BRANCH   4  22
ATOM     22  O   UNL     1     112.874 129.089 140.515  0.00  0.00    +0.000 OA
BRANCH  22  31
ATOM     23  O   UNL     1     114.058 129.886 140.587  0.00  0.00    +0.000 OA
ATOM     24  O   UNL     1     112.993 131.312 142.308  0.00  0.00    +0.000 OA
ATOM     25  O   UNL     1     114.532 131.634 141.806  0.00  0.00    +0.000 OA
ATOM     26  O   UNL     1     112.165 130.039 141.662  0.00  0.00    +0.000 OA
ATOM     27  C   UNL     1     113.349 130.836 141.734  0.00  0.00    +0.000 C 
ATOM     28  C   UNL     1     114.117 130.997 141.484  0.00  0.00    +0.000 C 
ATOM     29  C   UNL     1     112.933 130.200 141.412  0.00  0.00    +0.000 C 
ATOM     30  C   UNL     1     114.472 130.522 140.910  0.00  0.00    +0.000 C 
ATOM     31  C   UNL     1     113.288 129.725 140.838  0.00  0.00    +0.000 C 
BRANCH  30  33
ATOM     32  O   UNL     1     115.692 130.090 140.304  0.00  0.00    +0.000 OA
ATOM     33  C   UNL     1     115.242 130.683 140.659  0.00  0.00    +0.000 C 
ENDBRANCH  30  33
ENDBRANCH  22  31
ENDBRANCH   4  22
TORSDOF 5
ENDMDL
MODEL 6
REMARK VINA RESULT:      -8.7      6.622      7.963
REMARK  Name = 18625123
REMARK  5 active torsions:
REMARK  status: ('A' for Active; 'I' for Inactive)
REMARK    1  A    between atoms: O_2  and  C_16
REMARK    2  A    between atoms: O_2  and  C_18
REMARK    3  A    between atoms: O_10  and  C_32
REMARK    4  A    between atoms: C_15  and  C_17
REMARK    5  A    between atoms: C_20  and  C_25
REMARK                            x       y       z     vdW  Elec       q    Type
REMARK                         _______ _______ _______ _____ _____    ______ ____
ROOT
ATOM      1  O   UNL     1     111.268 127.464 136.501  0.00  0.00    +0.000 OA
ATOM      2  O   UNL     1     108.860 128.016 136.362  0.00  0.00    +0.000 OA
ATOM      3  O   UNL     1     111.958 130.226 135.888  0.00  0.00    +0.000 OA
ATOM      4  C   UNL     1     109.969 129.218 136.100  0.00  0.00    +0.000 A 
ATOM      5  C   UNL     1     110.229 128.419 136.281  0.00  0.00    +0.000 A 
ATOM      6  C   UNL     1     110.702 126.877 136.629  0.00  0.00    +0.000 C 
ATOM      7  C   UNL     1     109.899 127.061 136.582  0.00  0.00    +0.000 C 
ATOM      8  C   UNL     1     111.032 128.235 136.327  0.00  0.00    +0.000 A 
ATOM      9  C   UNL     1     109.663 127.833 136.408  0.00  0.00    +0.000 C 
ATOM     10  C   UNL     1     110.554 129.833 135.967  0.00  0.00    +0.000 A 
ATOM     11  C   UNL     1     111.630 128.837 136.197  0.00  0.00    +0.000 A 
ATOM     12  C   UNL     1     111.390 129.641 136.015  0.00  0.00    +0.000 A 
ENDROOT
BRANCH   6  14
ATOM     13  O   UNL     1     111.288 124.843 138.549  0.00  0.00    +0.000 OA
ATOM     14  C   UNL     1     110.940 126.107 136.803  0.00  0.00    +0.000 A 
ATOM     15  C   UNL     1     110.995 125.860 137.588  0.00  0.00    +0.000 A 
ATOM     16  C   UNL     1     111.122 125.582 136.192  0.00  0.00    +0.000 A 
ATOM     17  C   UNL     1     111.233 125.090 137.763  0.00  0.00    +0.000 A 
ATOM     18  C   UNL     1     111.360 124.812 136.367  0.00  0.00    +0.000 A 
ATOM     19  C   UNL     1     111.415 124.566 137.153  0.00  0.00    +0.000 A 
BRANCH  19  20
ATOM     20  O   UNL     1     111.653 123.795 137.327  0.00  0.00    +0.000 OA
ATOM     21  C   UNL     1     112.119 123.376 136.791  0.00  0.00    +0.000 C 
ENDBRANCH  19  20
ENDBRANCH   6  14
BRANCH   4  22
ATOM     22  O   UNL     1     109.165 129.393 136.056  0.00  0.00    +0.000 OA
BRANCH  22  31
ATOM     23  O   UNL     1     108.987 130.172 137.240  0.00  0.00    +0.000 OA
ATOM     24  O   UNL     1     107.734 131.865 135.939  0.00  0.00    +0.000 OA
ATOM     25  O   UNL     1     107.974 132.080 137.557  0.00  0.00    +0.000 OA
ATOM     26  O   UNL     1     108.330 130.521 135.188  0.00  0.00    +0.000 OA
ATOM     27  C   UNL     1     108.152 131.300 136.373  0.00  0.00    +0.000 C 
ATOM     28  C   UNL     1     108.271 131.408 137.181  0.00  0.00    +0.000 C 
ATOM     29  C   UNL     1     108.449 130.629 135.997  0.00  0.00    +0.000 C 
ATOM     30  C   UNL     1     108.689 130.844 137.615  0.00  0.00    +0.000 C 
ATOM     31  C   UNL     1     108.867 130.065 136.431  0.00  0.00    +0.000 C 
BRANCH  30  33
ATOM     32  O   UNL     1     108.668 130.330 138.948  0.00  0.00    +0.000 OA
ATOM     33  C   UNL     1     108.809 130.952 138.425  0.00  0.00    +0.000 C 
ENDBRANCH  30  33
ENDBRANCH  22  31
ENDBRANCH   4  22
TORSDOF 5
ENDMDL
MODEL 7
REMARK VINA RESULT:      -8.6      6.898     10.137
REMARK  Name = 18625123
REMARK  5 active torsions:
REMARK  status: ('A' for Active; 'I' for Inactive)
REMARK    1  A    between atoms: O_2  and  C_16
REMARK    2  A    between atoms: O_2  and  C_18
REMARK    3  A    between atoms: O_10  and  C_32
REMARK    4  A    between atoms: C_15  and  C_17
REMARK    5  A    between atoms: C_20  and  C_25
REMARK                            x       y       z     vdW  Elec       q    Type
REMARK                         _______ _______ _______ _____ _____    ______ ____
ROOT
ATOM      1  O   UNL     1     113.032 129.157 139.151  0.00  0.00    +0.000 OA
ATOM      2  O   UNL     1     113.715 126.840 139.692  0.00  0.00    +0.000 OA
ATOM      3  O   UNL     1     112.737 128.438 136.345  0.00  0.00    +0.000 OA
ATOM      4  C   UNL     1     113.351 127.217 138.121  0.00  0.00    +0.000 A 
ATOM      5  C   UNL     1     113.303 127.818 138.734  0.00  0.00    +0.000 A 
ATOM      6  C   UNL     1     113.217 128.952 139.929  0.00  0.00    +0.000 C 
ATOM      7  C   UNL     1     113.445 128.180 140.109  0.00  0.00    +0.000 C 
ATOM      8  C   UNL     1     113.075 128.590 138.554  0.00  0.00    +0.000 A 
ATOM      9  C   UNL     1     113.488 127.612 139.511  0.00  0.00    +0.000 C 
ATOM     10  C   UNL     1     113.160 127.425 137.309  0.00  0.00    +0.000 A 
ATOM     11  C   UNL     1     112.880 128.815 137.748  0.00  0.00    +0.000 A 
ATOM     12  C   UNL     1     112.923 128.229 137.122  0.00  0.00    +0.000 A 
ENDROOT
BRANCH   6  14
ATOM     13  O   UNL     1     114.380 131.145 141.346  0.00  0.00    +0.000 OA
ATOM     14  C   UNL     1     113.174 129.520 140.526  0.00  0.00    +0.000 A 
ATOM     15  C   UNL     1     113.798 130.048 140.637  0.00  0.00    +0.000 A 
ATOM     16  C   UNL     1     112.508 129.560 141.011  0.00  0.00    +0.000 A 
ATOM     17  C   UNL     1     113.756 130.616 141.234  0.00  0.00    +0.000 A 
ATOM     18  C   UNL     1     112.466 130.128 141.608  0.00  0.00    +0.000 A 
ATOM     19  C   UNL     1     113.090 130.656 141.720  0.00  0.00    +0.000 A 
BRANCH  19  20
ATOM     20  O   UNL     1     113.048 131.224 142.316  0.00  0.00    +0.000 OA
ATOM     21  C   UNL     1     112.371 131.282 142.783  0.00  0.00    +0.000 C 
ENDBRANCH  19  20
ENDBRANCH   6  14
BRANCH   4  22
ATOM     22  O   UNL     1     113.579 126.448 138.309  0.00  0.00    +0.000 OA
BRANCH  22  31
ATOM     23  O   UNL     1     112.364 125.723 138.109  0.00  0.00    +0.000 OA
ATOM     24  O   UNL     1     113.588 124.046 136.760  0.00  0.00    +0.000 OA
ATOM     25  O   UNL     1     111.965 123.880 137.010  0.00  0.00    +0.000 OA
ATOM     26  O   UNL     1     114.395 125.330 137.410  0.00  0.00    +0.000 OA
ATOM     27  C   UNL     1     113.180 124.605 137.210  0.00  0.00    +0.000 C 
ATOM     28  C   UNL     1     112.369 124.522 137.335  0.00  0.00    +0.000 C 
ATOM     29  C   UNL     1     113.584 125.247 137.535  0.00  0.00    +0.000 C 
ATOM     30  C   UNL     1     111.961 125.081 137.784  0.00  0.00    +0.000 C 
ATOM     31  C   UNL     1     113.176 125.806 137.984  0.00  0.00    +0.000 C 
BRANCH  30  33
ATOM     32  O   UNL     1     110.830 125.149 138.655  0.00  0.00    +0.000 OA
ATOM     33  C   UNL     1     111.149 124.998 137.909  0.00  0.00    +0.000 C 
ENDBRANCH  30  33
ENDBRANCH  22  31
ENDBRANCH   4  22
TORSDOF 5
ENDMDL
MODEL 8
REMARK VINA RESULT:      -8.6      7.493      8.777
REMARK  Name = 18625123
REMARK  5 active torsions:
REMARK  status: ('A' for Active; 'I' for Inactive)
REMARK    1  A    between atoms: O_2  and  C_16
REMARK    2  A    between atoms: O_2  and  C_18
REMARK    3  A    between atoms: O_10  and  C_32
REMARK    4  A    between atoms: C_15  and  C_17
REMARK    5  A    between atoms: C_20  and  C_25
REMARK                            x       y       z     vdW  Elec       q    Type
REMARK                         _______ _______ _______ _____ _____    ______ ____
ROOT
ATOM      1  O   UNL     1     110.732 128.928 137.048  0.00  0.00    +0.000 OA
ATOM      2  O   UNL     1     112.115 127.736 135.376  0.00  0.00    +0.000 OA
ATOM      3  O   UNL     1     112.198 127.641 139.209  0.00  0.00    +0.000 OA
ATOM      4  C   UNL     1     112.407 127.473 136.985  0.00  0.00    +0.000 A 
ATOM      5  C   UNL     1     111.786 128.014 136.739  0.00  0.00    +0.000 A 
ATOM      6  C   UNL     1     110.600 129.048 136.242  0.00  0.00    +0.000 C 
ATOM      7  C   UNL     1     111.061 128.651 135.684  0.00  0.00    +0.000 C 
ATOM      8  C   UNL     1     111.325 128.411 137.296  0.00  0.00    +0.000 A 
ATOM      9  C   UNL     1     111.654 128.133 135.933  0.00  0.00    +0.000 C 
ATOM     10  C   UNL     1     112.549 127.345 137.822  0.00  0.00    +0.000 A 
ATOM     11  C   UNL     1     111.453 128.295 138.137  0.00  0.00    +0.000 A 
ATOM     12  C   UNL     1     112.069 127.759 138.402  0.00  0.00    +0.000 A 
ENDROOT
BRANCH   6  14
ATOM     13  O   UNL     1     107.839 129.585 135.738  0.00  0.00    +0.000 OA
ATOM     14  C   UNL     1     110.007 129.565 135.994  0.00  0.00    +0.000 A 
ATOM     15  C   UNL     1     109.219 129.317 135.989  0.00  0.00    +0.000 A 
ATOM     16  C   UNL     1     110.199 130.329 135.750  0.00  0.00    +0.000 A 
ATOM     17  C   UNL     1     108.626 129.833 135.742  0.00  0.00    +0.000 A 
ATOM     18  C   UNL     1     109.606 130.845 135.503  0.00  0.00    +0.000 A 
ATOM     19  C   UNL     1     108.818 130.597 135.498  0.00  0.00    +0.000 A 
BRANCH  19  20
ATOM     20  O   UNL     1     108.225 131.114 135.251  0.00  0.00    +0.000 OA
ATOM     21  C   UNL     1     108.418 131.878 135.008  0.00  0.00    +0.000 C 
ENDBRANCH  19  20
ENDBRANCH   6  14
BRANCH   4  22
ATOM     22  O   UNL     1     112.863 127.080 136.422  0.00  0.00    +0.000 OA
BRANCH  22  31
ATOM     23  O   UNL     1     112.375 125.742 136.540  0.00  0.00    +0.000 OA
ATOM     24  O   UNL     1     114.703 124.904 136.644  0.00  0.00    +0.000 OA
ATOM     25  O   UNL     1     113.439 123.845 136.727  0.00  0.00    +0.000 OA
ATOM     26  O   UNL     1     114.414 126.522 136.491  0.00  0.00    +0.000 OA
ATOM     27  C   UNL     1     113.926 125.184 136.609  0.00  0.00    +0.000 C 
ATOM     28  C   UNL     1     113.295 124.654 136.651  0.00  0.00    +0.000 C 
ATOM     29  C   UNL     1     113.783 125.993 136.533  0.00  0.00    +0.000 C 
ATOM     30  C   UNL     1     112.520 124.934 136.616  0.00  0.00    +0.000 C 
ATOM     31  C   UNL     1     113.007 126.272 136.498  0.00  0.00    +0.000 C 
BRANCH  30  33
ATOM     32  O   UNL     1     111.220 124.523 136.189  0.00  0.00    +0.000 OA
ATOM     33  C   UNL     1     111.888 124.404 136.658  0.00  0.00    +0.000 C 
ENDBRANCH  30  33
ENDBRANCH  22  31
ENDBRANCH   4  22
TORSDOF 5
ENDMDL
MODEL 9
REMARK VINA RESULT:      -8.5      7.343      8.820
REMARK  Name = 18625123
REMARK  5 active torsions:
REMARK  status: ('A' for Active; 'I' for Inactive)
REMARK    1  A    between atoms: O_2  and  C_16
REMARK    2  A    between atoms: O_2  and  C_18
REMARK    3  A    between atoms: O_10  and  C_32
REMARK    4  A    between atoms: C_15  and  C_17
REMARK    5  A    between atoms: C_20  and  C_25
REMARK                            x       y       z     vdW  Elec       q    Type
REMARK                         _______ _______ _______ _____ _____    ______ ____
ROOT
ATOM      1  O   UNL     1     113.035 126.714 138.869  0.00  0.00    +0.000 OA
ATOM      2  O   UNL     1     113.274 129.152 138.513  0.00  0.00    +0.000 OA
ATOM      3  O   UNL     1     114.321 126.947 141.471  0.00  0.00    +0.000 OA
ATOM      4  C   UNL     1     113.840 128.494 139.924  0.00  0.00    +0.000 A 
ATOM      5  C   UNL     1     113.471 127.995 139.329  0.00  0.00    +0.000 A 
ATOM      6  C   UNL     1     112.759 127.059 138.172  0.00  0.00    +0.000 C 
ATOM      7  C   UNL     1     112.838 127.871 138.053  0.00  0.00    +0.000 C 
ATOM      8  C   UNL     1     113.391 127.182 139.448  0.00  0.00    +0.000 A 
ATOM      9  C   UNL     1     113.195 128.339 138.632  0.00  0.00    +0.000 C 
ATOM     10  C   UNL     1     114.129 128.140 140.652  0.00  0.00    +0.000 A 
ATOM     11  C   UNL     1     113.675 126.812 140.169  0.00  0.00    +0.000 A 
ATOM     12  C   UNL     1     114.046 127.294 140.775  0.00  0.00    +0.000 A 
ENDROOT
BRANCH   6  14
ATOM     13  O   UNL     1     112.956 125.043 136.156  0.00  0.00    +0.000 OA
ATOM     14  C   UNL     1     112.403 126.590 137.594  0.00  0.00    +0.000 A 
ATOM     15  C   UNL     1     112.857 126.051 137.164  0.00  0.00    +0.000 A 
ATOM     16  C   UNL     1     111.595 126.659 137.445  0.00  0.00    +0.000 A 
ATOM     17  C   UNL     1     112.502 125.582 136.585  0.00  0.00    +0.000 A 
ATOM     18  C   UNL     1     111.240 126.190 136.867  0.00  0.00    +0.000 A 
ATOM     19  C   UNL     1     111.694 125.651 136.437  0.00  0.00    +0.000 A 
BRANCH  19  20
ATOM     20  O   UNL     1     111.339 125.182 135.858  0.00  0.00    +0.000 OA
ATOM     21  C   UNL     1     110.578 125.361 135.592  0.00  0.00    +0.000 C 
ENDBRANCH  19  20
ENDBRANCH   6  14
BRANCH   4  22
ATOM     22  O   UNL     1     113.915 129.304 139.797  0.00  0.00    +0.000 OA
BRANCH  22  31
ATOM     23  O   UNL     1     113.038 129.820 140.800  0.00  0.00    +0.000 OA
ATOM     24  O   UNL     1     114.773 131.450 141.480  0.00  0.00    +0.000 OA
ATOM     25  O   UNL     1     113.317 131.422 142.256  0.00  0.00    +0.000 OA
ATOM     26  O   UNL     1     115.072 130.390 140.251  0.00  0.00    +0.000 OA
ATOM     27  C   UNL     1     114.194 130.906 141.253  0.00  0.00    +0.000 C 
ATOM     28  C   UNL     1     113.467 130.893 141.641  0.00  0.00    +0.000 C 
ATOM     29  C   UNL     1     114.344 130.377 140.639  0.00  0.00    +0.000 C 
ATOM     30  C   UNL     1     112.889 130.350 141.415  0.00  0.00    +0.000 C 
ATOM     31  C   UNL     1     113.766 129.834 140.412  0.00  0.00    +0.000 C 
BRANCH  30  33
ATOM     32  O   UNL     1     111.468 130.203 141.375  0.00  0.00    +0.000 OA
ATOM     33  C   UNL     1     112.160 130.336 141.803  0.00  0.00    +0.000 C 
ENDBRANCH  30  33
ENDBRANCH  22  31
ENDBRANCH   4  22
TORSDOF 5
ENDMDL
MODEL 10
REMARK VINA RESULT:      -8.5      6.733      7.712
REMARK  Name = 18625123
REMARK  5 active torsions:
REMARK  status: ('A' for Active; 'I' for Inactive)
REMARK    1  A    between atoms: O_2  and  C_16
REMARK    2  A    between atoms: O_2  and  C_18
REMARK    3  A    between atoms: O_10  and  C_32
REMARK    4  A    between atoms: C_15  and  C_17
REMARK    5  A    between atoms: C_20  and  C_25
REMARK                            x       y       z     vdW  Elec       q    Type
REMARK                         _______ _______ _______ _____ _____    ______ ____
ROOT
ATOM      1  O   UNL     1     112.714 126.319 139.023  0.00  0.00    +0.000 OA
ATOM      2  O   UNL     1     110.947 127.271 140.471  0.00  0.00    +0.000 OA
ATOM      3  O   UNL     1     114.750 127.131 140.939  0.00  0.00    +0.000 OA
ATOM      4  C   UNL     1     112.524 127.373 140.967  0.00  0.00    +0.000 A 
ATOM      5  C   UNL     1     112.326 126.996 140.220  0.00  0.00    +0.000 A 
ATOM      6  C   UNL     1     111.923 126.277 138.791  0.00  0.00    +0.000 C 
ATOM      7  C   UNL     1     111.333 126.594 139.274  0.00  0.00    +0.000 C 
ATOM      8  C   UNL     1     112.915 126.679 139.737  0.00  0.00    +0.000 A 
ATOM      9  C   UNL     1     111.536 126.954 139.989  0.00  0.00    +0.000 C 
ATOM     10  C   UNL     1     113.345 127.420 141.213  0.00  0.00    +0.000 A 
ATOM     11  C   UNL     1     113.742 126.717 139.968  0.00  0.00    +0.000 A 
ATOM     12  C   UNL     1     113.958 127.090 140.710  0.00  0.00    +0.000 A 
ENDROOT
BRANCH   6  14
ATOM     13  O   UNL     1     111.532 123.910 137.237  0.00  0.00    +0.000 OA
ATOM     14  C   UNL     1     111.721 125.917 138.077  0.00  0.00    +0.000 A 
ATOM     15  C   UNL     1     111.727 125.093 138.014  0.00  0.00    +0.000 A 
ATOM     16  C   UNL     1     111.515 126.378 137.425  0.00  0.00    +0.000 A 
ATOM     17  C   UNL     1     111.526 124.733 137.300  0.00  0.00    +0.000 A 
ATOM     18  C   UNL     1     111.314 126.018 136.711  0.00  0.00    +0.000 A 
ATOM     19  C   UNL     1     111.320 125.194 136.648  0.00  0.00    +0.000 A 
BRANCH  19  20
ATOM     20  O   UNL     1     111.119 124.834 135.934  0.00  0.00    +0.000 OA
ATOM     21  C   UNL     1     110.705 125.258 135.360  0.00  0.00    +0.000 C 
ENDBRANCH  19  20
ENDBRANCH   6  14
BRANCH   4  22
ATOM     22  O   UNL     1     111.929 127.688 141.443  0.00  0.00    +0.000 OA
BRANCH  22  31
ATOM     23  O   UNL     1     112.257 129.073 141.318  0.00  0.00    +0.000 OA
ATOM     24  O   UNL     1     111.841 129.389 143.738  0.00  0.00    +0.000 OA
ATOM     25  O   UNL     1     112.309 130.669 142.807  0.00  0.00    +0.000 OA
ATOM     26  O   UNL     1     111.651 127.899 143.055  0.00  0.00    +0.000 OA
ATOM     27  C   UNL     1     111.980 129.284 142.931  0.00  0.00    +0.000 C 
ATOM     28  C   UNL     1     112.213 129.923 142.466  0.00  0.00    +0.000 C 
ATOM     29  C   UNL     1     111.885 128.538 142.591  0.00  0.00    +0.000 C 
ATOM     30  C   UNL     1     112.352 129.818 141.660  0.00  0.00    +0.000 C 
ATOM     31  C   UNL     1     112.024 128.433 141.784  0.00  0.00    +0.000 C 
BRANCH  30  33
ATOM     32  O   UNL     1     112.218 130.596 140.468  0.00  0.00    +0.000 OA
ATOM     33  C   UNL     1     112.586 130.458 141.194  0.00  0.00    +0.000 C 
ENDBRANCH  30  33
ENDBRANCH  22  31
ENDBRANCH   4  22
TORSDOF 5
ENDMDL
