MODEL 1
REMARK VINA RESULT:      -9.6      0.000      0.000
REMARK  Name = 44258908
REMARK  4 active torsions:
REMARK  status: ('A' for Active; 'I' for Inactive)
REMARK    1  A    between atoms: O_2  and  C_16
REMARK    2  A    between atoms: O_2  and  C_18
REMARK    3  A    between atoms: C_15  and  C_17
REMARK    4  A    between atoms: C_19  and  C_23
REMARK                            x       y       z     vdW  Elec       q    Type
REMARK                         _______ _______ _______ _____ _____    ______ ____
ROOT
ATOM      1  O   UNL     1     105.472 124.500 147.876  0.00  0.00    +0.000 OA
ATOM      2  O   UNL     1     106.874 125.444 146.067  0.00  0.00    +0.000 OA
ATOM      3  O   UNL     1     108.050 125.366 146.899  0.00  0.00    +0.000 OA
ATOM      4  O   UNL     1     107.803 124.312 149.612  0.00  0.00    +0.000 OA
ATOM      5  C   UNL     1     105.598 125.017 146.549  0.00  0.00    +0.000 A 
ATOM      6  C   UNL     1     105.130 124.702 147.152  0.00  0.00    +0.000 A 
ATOM      7  C   UNL     1     106.406 125.130 146.670  0.00  0.00    +0.000 A 
ATOM      8  C   UNL     1     106.747 124.928 147.394  0.00  0.00    +0.000 A 
ATOM      9  C   UNL     1     106.280 124.614 147.997  0.00  0.00    +0.000 A 
ATOM     10  C   UNL     1     107.590 125.050 147.508  0.00  0.00    +0.000 A 
ATOM     11  C   UNL     1     107.951 124.842 148.259  0.00  0.00    +0.000 A 
ATOM     12  C   UNL     1     106.623 124.399 148.755  0.00  0.00    +0.000 A 
ATOM     13  C   UNL     1     107.465 124.515 148.887  0.00  0.00    +0.000 A 
ATOM     14  C   UNL     1     108.759 124.956 148.377  0.00  0.00    +0.000 C 
ENDROOT
BRANCH   6  16
ATOM     15  O   UNL     1     101.897 124.251 146.670  0.00  0.00    +0.000 OA
ATOM     16  C   UNL     1     104.323 124.589 147.031  0.00  0.00    +0.000 A 
ATOM     17  C   UNL     1     103.777 125.084 147.403  0.00  0.00    +0.000 A 
ATOM     18  C   UNL     1     104.059 123.982 146.539  0.00  0.00    +0.000 A 
ATOM     19  C   UNL     1     102.968 124.971 147.283  0.00  0.00    +0.000 A 
ATOM     20  C   UNL     1     103.252 123.869 146.418  0.00  0.00    +0.000 A 
ATOM     21  C   UNL     1     102.706 124.363 146.790  0.00  0.00    +0.000 A 
ENDBRANCH   6  16
BRANCH   5  22
ATOM     22  O   UNL     1     105.257 125.218 145.826  0.00  0.00    +0.000 OA
BRANCH  22  31
ATOM     23  O   UNL     1     105.309 126.626 146.064  0.00  0.00    +0.000 OA
ATOM     24  O   UNL     1     105.539 127.030 143.633  0.00  0.00    +0.000 OA
ATOM     25  O   UNL     1     105.514 128.302 144.682  0.00  0.00    +0.000 OA
ATOM     26  O   UNL     1     105.411 125.488 144.205  0.00  0.00    +0.000 OA
ATOM     27  C   UNL     1     105.463 126.895 144.444  0.00  0.00    +0.000 C 
ATOM     28  C   UNL     1     105.450 127.532 144.969  0.00  0.00    +0.000 C 
ATOM     29  C   UNL     1     105.398 126.124 144.730  0.00  0.00    +0.000 C 
ATOM     30  C   UNL     1     105.373 127.397 145.778  0.00  0.00    +0.000 C 
ATOM     31  C   UNL     1     105.321 125.989 145.539  0.00  0.00    +0.000 C 
BRANCH  30  33
ATOM     32  O   UNL     1     104.704 128.154 146.788  0.00  0.00    +0.000 OA
ATOM     33  C   UNL     1     105.361 128.033 146.303  0.00  0.00    +0.000 C 
ENDBRANCH  30  33
ENDBRANCH  22  31
ENDBRANCH   5  22
TORSDOF 4
ENDMDL
MODEL 2
REMARK VINA RESULT:      -9.5      1.574      4.089
REMARK  Name = 44258908
REMARK  4 active torsions:
REMARK  status: ('A' for Active; 'I' for Inactive)
REMARK    1  A    between atoms: O_2  and  C_16
REMARK    2  A    between atoms: O_2  and  C_18
REMARK    3  A    between atoms: C_15  and  C_17
REMARK    4  A    between atoms: C_19  and  C_23
REMARK                            x       y       z     vdW  Elec       q    Type
REMARK                         _______ _______ _______ _____ _____    ______ ____
ROOT
ATOM      1  O   UNL     1     103.750 125.698 147.413  0.00  0.00    +0.000 OA
ATOM      2  O   UNL     1     105.748 124.599 146.449  0.00  0.00    +0.000 OA
ATOM      3  O   UNL     1     104.942 123.514 145.943  0.00  0.00    +0.000 OA
ATOM      4  O   UNL     1     102.061 123.543 146.422  0.00  0.00    +0.000 OA
ATOM      5  C   UNL     1     105.160 125.680 147.176  0.00  0.00    +0.000 A 
ATOM      6  C   UNL     1     104.494 126.047 147.498  0.00  0.00    +0.000 A 
ATOM      7  C   UNL     1     105.082 124.966 146.771  0.00  0.00    +0.000 A 
ATOM      8  C   UNL     1     104.338 124.618 146.686  0.00  0.00    +0.000 A 
ATOM      9  C   UNL     1     103.673 124.984 147.007  0.00  0.00    +0.000 A 
ATOM     10  C   UNL     1     104.270 123.874 146.262  0.00  0.00    +0.000 A 
ATOM     11  C   UNL     1     103.499 123.507 146.171  0.00  0.00    +0.000 A 
ATOM     12  C   UNL     1     102.893 124.633 146.927  0.00  0.00    +0.000 A 
ATOM     13  C   UNL     1     102.805 123.888 146.505  0.00  0.00    +0.000 A 
ATOM     14  C   UNL     1     103.424 122.793 145.765  0.00  0.00    +0.000 C 
ENDROOT
BRANCH   6  16
ATOM     15  O   UNL     1     104.804 128.904 149.120  0.00  0.00    +0.000 OA
ATOM     16  C   UNL     1     104.572 126.760 147.903  0.00  0.00    +0.000 A 
ATOM     17  C   UNL     1     104.723 127.456 147.487  0.00  0.00    +0.000 A 
ATOM     18  C   UNL     1     104.498 126.779 148.725  0.00  0.00    +0.000 A 
ATOM     19  C   UNL     1     104.801 128.171 147.893  0.00  0.00    +0.000 A 
ATOM     20  C   UNL     1     104.575 127.493 149.130  0.00  0.00    +0.000 A 
ATOM     21  C   UNL     1     104.727 128.189 148.714  0.00  0.00    +0.000 A 
ENDBRANCH   6  16
BRANCH   5  22
ATOM     22  O   UNL     1     105.903 126.027 147.260  0.00  0.00    +0.000 OA
BRANCH  22  31
ATOM     23  O   UNL     1     106.330 125.196 148.341  0.00  0.00    +0.000 OA
ATOM     24  O   UNL     1     108.653 125.283 147.491  0.00  0.00    +0.000 OA
ATOM     25  O   UNL     1     108.305 124.423 148.855  0.00  0.00    +0.000 OA
ATOM     26  O   UNL     1     107.452 126.085 146.694  0.00  0.00    +0.000 OA
ATOM     27  C   UNL     1     107.878 125.254 147.775  0.00  0.00    +0.000 C 
ATOM     28  C   UNL     1     107.704 124.824 148.456  0.00  0.00    +0.000 C 
ATOM     29  C   UNL     1     107.277 125.655 147.376  0.00  0.00    +0.000 C 
ATOM     30  C   UNL     1     106.931 124.795 148.739  0.00  0.00    +0.000 C 
ATOM     31  C   UNL     1     106.504 125.626 147.659  0.00  0.00    +0.000 C 
BRANCH  30  33
ATOM     32  O   UNL     1     106.288 123.686 149.372  0.00  0.00    +0.000 OA
ATOM     33  C   UNL     1     106.756 124.365 149.421  0.00  0.00    +0.000 C 
ENDBRANCH  30  33
ENDBRANCH  22  31
ENDBRANCH   5  22
TORSDOF 4
ENDMDL
MODEL 3
REMARK VINA RESULT:      -9.5      1.059      3.568
REMARK  Name = 44258908
REMARK  4 active torsions:
REMARK  status: ('A' for Active; 'I' for Inactive)
REMARK    1  A    between atoms: O_2  and  C_16
REMARK    2  A    between atoms: O_2  and  C_18
REMARK    3  A    between atoms: C_15  and  C_17
REMARK    4  A    between atoms: C_19  and  C_23
REMARK                            x       y       z     vdW  Elec       q    Type
REMARK                         _______ _______ _______ _____ _____    ______ ____
ROOT
ATOM      1  O   UNL     1     104.081 124.514 148.269  0.00  0.00    +0.000 OA
ATOM      2  O   UNL     1     104.134 124.362 145.799  0.00  0.00    +0.000 OA
ATOM      3  O   UNL     1     102.710 124.137 145.753  0.00  0.00    +0.000 OA
ATOM      4  O   UNL     1     101.203 124.066 148.255  0.00  0.00    +0.000 OA
ATOM      5  C   UNL     1     104.813 124.548 147.042  0.00  0.00    +0.000 A 
ATOM      6  C   UNL     1     104.796 124.599 147.866  0.00  0.00    +0.000 A 
ATOM      7  C   UNL     1     104.117 124.413 146.622  0.00  0.00    +0.000 A 
ATOM      8  C   UNL     1     103.401 124.328 147.026  0.00  0.00    +0.000 A 
ATOM      9  C   UNL     1     103.384 124.379 147.849  0.00  0.00    +0.000 A 
ATOM     10  C   UNL     1     102.682 124.187 146.577  0.00  0.00    +0.000 A 
ATOM     11  C   UNL     1     101.935 124.097 146.992  0.00  0.00    +0.000 A 
ATOM     12  C   UNL     1     102.646 124.292 148.281  0.00  0.00    +0.000 A 
ATOM     13  C   UNL     1     101.916 124.150 147.849  0.00  0.00    +0.000 A 
ATOM     14  C   UNL     1     101.240 123.962 146.569  0.00  0.00    +0.000 C 
ENDROOT
BRANCH   6  16
ATOM     15  O   UNL     1     107.584 125.143 149.546  0.00  0.00    +0.000 OA
ATOM     16  C   UNL     1     105.493 124.735 148.285  0.00  0.00    +0.000 A 
ATOM     17  C   UNL     1     105.621 125.466 148.646  0.00  0.00    +0.000 A 
ATOM     18  C   UNL     1     106.062 124.141 148.345  0.00  0.00    +0.000 A 
ATOM     19  C   UNL     1     106.318 125.602 149.067  0.00  0.00    +0.000 A 
ATOM     20  C   UNL     1     106.758 124.276 148.765  0.00  0.00    +0.000 A 
ATOM     21  C   UNL     1     106.886 125.007 149.126  0.00  0.00    +0.000 A 
ENDBRANCH   6  16
BRANCH   5  22
ATOM     22  O   UNL     1     105.528 124.633 146.639  0.00  0.00    +0.000 OA
BRANCH  22  31
ATOM     23  O   UNL     1     105.274 125.966 146.189  0.00  0.00    +0.000 OA
ATOM     24  O   UNL     1     106.542 125.508 144.114  0.00  0.00    +0.000 OA
ATOM     25  O   UNL     1     105.865 126.992 144.356  0.00  0.00    +0.000 OA
ATOM     26  O   UNL     1     106.374 124.328 145.255  0.00  0.00    +0.000 OA
ATOM     27  C   UNL     1     106.119 125.660 144.806  0.00  0.00    +0.000 C 
ATOM     28  C   UNL     1     105.781 126.403 144.927  0.00  0.00    +0.000 C 
ATOM     29  C   UNL     1     106.035 125.070 145.377  0.00  0.00    +0.000 C 
ATOM     30  C   UNL     1     105.358 126.555 145.618  0.00  0.00    +0.000 C 
ATOM     31  C   UNL     1     105.613 125.223 146.068  0.00  0.00    +0.000 C 
BRANCH  30  33
ATOM     32  O   UNL     1     105.250 127.755 146.387  0.00  0.00    +0.000 OA
ATOM     33  C   UNL     1     105.019 127.297 145.740  0.00  0.00    +0.000 C 
ENDBRANCH  30  33
ENDBRANCH  22  31
ENDBRANCH   5  22
TORSDOF 4
ENDMDL
MODEL 4
REMARK VINA RESULT:      -9.5      0.921      3.411
REMARK  Name = 44258908
REMARK  4 active torsions:
REMARK  status: ('A' for Active; 'I' for Inactive)
REMARK    1  A    between atoms: O_2  and  C_16
REMARK    2  A    between atoms: O_2  and  C_18
REMARK    3  A    between atoms: C_15  and  C_17
REMARK    4  A    between atoms: C_19  and  C_23
REMARK                            x       y       z     vdW  Elec       q    Type
REMARK                         _______ _______ _______ _____ _____    ______ ____
ROOT
ATOM      1  O   UNL     1     106.712 125.674 146.790  0.00  0.00    +0.000 OA
ATOM      2  O   UNL     1     104.876 124.783 148.192  0.00  0.00    +0.000 OA
ATOM      3  O   UNL     1     105.822 124.242 149.138  0.00  0.00    +0.000 OA
ATOM      4  O   UNL     1     108.680 124.610 148.655  0.00  0.00    +0.000 OA
ATOM      5  C   UNL     1     105.314 125.491 147.031  0.00  0.00    +0.000 A 
ATOM      6  C   UNL     1     105.926 125.788 146.563  0.00  0.00    +0.000 A 
ATOM      7  C   UNL     1     105.487 125.080 147.724  0.00  0.00    +0.000 A 
ATOM      8  C   UNL     1     106.273 124.966 147.951  0.00  0.00    +0.000 A 
ATOM      9  C   UNL     1     106.884 125.262 147.484  0.00  0.00    +0.000 A 
ATOM     10  C   UNL     1     106.441 124.535 148.676  0.00  0.00    +0.000 A 
ATOM     11  C   UNL     1     107.256 124.414 148.917  0.00  0.00    +0.000 A 
ATOM     12  C   UNL     1     107.706 125.150 147.709  0.00  0.00    +0.000 A 
ATOM     13  C   UNL     1     107.894 124.723 148.431  0.00  0.00    +0.000 A 
ATOM     14  C   UNL     1     107.427 124.002 149.612  0.00  0.00    +0.000 C 
ENDROOT
BRANCH   6  16
ATOM     15  O   UNL     1     105.234 127.433 143.787  0.00  0.00    +0.000 OA
ATOM     16  C   UNL     1     105.753 126.199 145.870  0.00  0.00    +0.000 A 
ATOM     17  C   UNL     1     105.886 125.845 145.137  0.00  0.00    +0.000 A 
ATOM     18  C   UNL     1     105.446 126.964 145.908  0.00  0.00    +0.000 A 
ATOM     19  C   UNL     1     105.713 126.257 144.442  0.00  0.00    +0.000 A 
ATOM     20  C   UNL     1     105.273 127.375 145.215  0.00  0.00    +0.000 A 
ATOM     21  C   UNL     1     105.407 127.021 144.482  0.00  0.00    +0.000 A 
ENDBRANCH   6  16
BRANCH   5  22
ATOM     22  O   UNL     1     104.530 125.605 146.804  0.00  0.00    +0.000 OA
BRANCH  22  31
ATOM     23  O   UNL     1     104.308 124.277 146.326  0.00  0.00    +0.000 OA
ATOM     24  O   UNL     1     101.978 124.366 147.157  0.00  0.00    +0.000 OA
ATOM     25  O   UNL     1     102.533 123.009 146.402  0.00  0.00    +0.000 OA
ATOM     26  O   UNL     1     102.977 125.664 147.359  0.00  0.00    +0.000 OA
ATOM     27  C   UNL     1     102.755 124.336 146.880  0.00  0.00    +0.000 C 
ATOM     28  C   UNL     1     103.033 123.658 146.502  0.00  0.00    +0.000 C 
ATOM     29  C   UNL     1     103.255 124.986 146.981  0.00  0.00    +0.000 C 
ATOM     30  C   UNL     1     103.808 123.628 146.225  0.00  0.00    +0.000 C 
ATOM     31  C   UNL     1     104.030 124.956 146.704  0.00  0.00    +0.000 C 
BRANCH  30  33
ATOM     32  O   UNL     1     104.361 122.994 145.070  0.00  0.00    +0.000 OA
ATOM     33  C   UNL     1     104.086 122.950 145.848  0.00  0.00    +0.000 C 
ENDBRANCH  30  33
ENDBRANCH  22  31
ENDBRANCH   5  22
TORSDOF 4
ENDMDL
MODEL 5
REMARK VINA RESULT:      -9.5      9.877     11.774
REMARK  Name = 44258908
REMARK  4 active torsions:
REMARK  status: ('A' for Active; 'I' for Inactive)
REMARK    1  A    between atoms: O_2  and  C_16
REMARK    2  A    between atoms: O_2  and  C_18
REMARK    3  A    between atoms: C_15  and  C_17
REMARK    4  A    between atoms: C_19  and  C_23
REMARK                            x       y       z     vdW  Elec       q    Type
REMARK                         _______ _______ _______ _____ _____    ______ ____
ROOT
ATOM      1  O   UNL     1     113.561 126.181 138.634  0.00  0.00    +0.000 OA
ATOM      2  O   UNL     1     111.177 125.634 138.250  0.00  0.00    +0.000 OA
ATOM      3  O   UNL     1     110.822 126.136 139.555  0.00  0.00    +0.000 OA
ATOM      4  O   UNL     1     112.918 127.212 141.281  0.00  0.00    +0.000 OA
ATOM      5  C   UNL     1     112.531 125.656 137.793  0.00  0.00    +0.000 A 
ATOM      6  C   UNL     1     113.326 125.838 137.920  0.00  0.00    +0.000 A 
ATOM      7  C   UNL     1     111.972 125.816 138.377  0.00  0.00    +0.000 A 
ATOM      8  C   UNL     1     112.207 126.160 139.091  0.00  0.00    +0.000 A 
ATOM      9  C   UNL     1     113.001 126.342 139.218  0.00  0.00    +0.000 A 
ATOM     10  C   UNL     1     111.614 126.322 139.692  0.00  0.00    +0.000 A 
ATOM     11  C   UNL     1     111.853 126.679 140.435  0.00  0.00    +0.000 A 
ATOM     12  C   UNL     1     113.258 126.699 139.956  0.00  0.00    +0.000 A 
ATOM     13  C   UNL     1     112.680 126.869 140.569  0.00  0.00    +0.000 A 
ATOM     14  C   UNL     1     111.291 126.838 141.018  0.00  0.00    +0.000 C 
ENDROOT
BRANCH   6  16
ATOM     15  O   UNL     1     115.564 125.195 135.582  0.00  0.00    +0.000 OA
ATOM     16  C   UNL     1     113.885 125.678 137.336  0.00  0.00    +0.000 A 
ATOM     17  C   UNL     1     114.152 124.905 137.222  0.00  0.00    +0.000 A 
ATOM     18  C   UNL     1     114.178 126.289 136.866  0.00  0.00    +0.000 A 
ATOM     19  C   UNL     1     114.712 124.744 136.637  0.00  0.00    +0.000 A 
ATOM     20  C   UNL     1     114.737 126.128 136.282  0.00  0.00    +0.000 A 
ATOM     21  C   UNL     1     115.004 125.356 136.167  0.00  0.00    +0.000 A 
ENDBRANCH   6  16
BRANCH   5  22
ATOM     22  O   UNL     1     112.296 125.313 137.080  0.00  0.00    +0.000 OA
BRANCH  22  31
ATOM     23  O   UNL     1     111.715 126.518 136.580  0.00  0.00    +0.000 OA
ATOM     24  O   UNL     1     110.142 125.190 135.206  0.00  0.00    +0.000 OA
ATOM     25  O   UNL     1     110.086 126.838 135.164  0.00  0.00    +0.000 OA
ATOM     26  O   UNL     1     111.247 124.427 136.165  0.00  0.00    +0.000 OA
ATOM     27  C   UNL     1     110.666 125.633 135.664  0.00  0.00    +0.000 C 
ATOM     28  C   UNL     1     110.639 126.457 135.643  0.00  0.00    +0.000 C 
ATOM     29  C   UNL     1     111.220 125.251 136.144  0.00  0.00    +0.000 C 
ATOM     30  C   UNL     1     111.162 126.899 136.100  0.00  0.00    +0.000 C 
ATOM     31  C   UNL     1     111.743 125.693 136.601  0.00  0.00    +0.000 C 
BRANCH  30  33
ATOM     32  O   UNL     1     111.776 128.150 135.781  0.00  0.00    +0.000 OA
ATOM     33  C   UNL     1     111.134 127.723 136.080  0.00  0.00    +0.000 C 
ENDBRANCH  30  33
ENDBRANCH  22  31
ENDBRANCH   5  22
TORSDOF 4
ENDMDL
MODEL 6
REMARK VINA RESULT:      -9.4     10.540     12.734
REMARK  Name = 44258908
REMARK  4 active torsions:
REMARK  status: ('A' for Active; 'I' for Inactive)
REMARK    1  A    between atoms: O_2  and  C_16
REMARK    2  A    between atoms: O_2  and  C_18
REMARK    3  A    between atoms: C_15  and  C_17
REMARK    4  A    between atoms: C_19  and  C_23
REMARK                            x       y       z     vdW  Elec       q    Type
REMARK                         _______ _______ _______ _____ _____    ______ ____
ROOT
ATOM      1  O   UNL     1     113.758 127.089 136.661  0.00  0.00    +0.000 OA
ATOM      2  O   UNL     1     111.552 126.345 135.821  0.00  0.00    +0.000 OA
ATOM      3  O   UNL     1     111.842 124.979 136.183  0.00  0.00    +0.000 OA
ATOM      4  O   UNL     1     114.414 124.355 137.418  0.00  0.00    +0.000 OA
ATOM      5  C   UNL     1     112.498 127.389 136.057  0.00  0.00    +0.000 A 
ATOM      6  C   UNL     1     113.233 127.638 136.337  0.00  0.00    +0.000 A 
ATOM      7  C   UNL     1     112.287 126.594 136.101  0.00  0.00    +0.000 A 
ATOM      8  C   UNL     1     112.812 126.045 136.425  0.00  0.00    +0.000 A 
ATOM      9  C   UNL     1     113.547 126.293 136.705  0.00  0.00    +0.000 A 
ATOM     10  C   UNL     1     112.580 125.218 136.466  0.00  0.00    +0.000 A 
ATOM     11  C   UNL     1     113.122 124.643 136.802  0.00  0.00    +0.000 A 
ATOM     12  C   UNL     1     114.102 125.732 137.045  0.00  0.00    +0.000 A 
ATOM     13  C   UNL     1     113.888 124.901 137.094  0.00  0.00    +0.000 A 
ATOM     14  C   UNL     1     112.908 123.847 136.845  0.00  0.00    +0.000 C 
ENDROOT
BRANCH   6  16
ATOM     15  O   UNL     1     114.079 130.823 136.159  0.00  0.00    +0.000 OA
ATOM     16  C   UNL     1     113.445 128.434 136.292  0.00  0.00    +0.000 A 
ATOM     17  C   UNL     1     113.661 128.763 135.568  0.00  0.00    +0.000 A 
ATOM     18  C   UNL     1     113.439 128.901 136.973  0.00  0.00    +0.000 A 
ATOM     19  C   UNL     1     113.873 129.560 135.523  0.00  0.00    +0.000 A 
ATOM     20  C   UNL     1     113.650 129.697 136.929  0.00  0.00    +0.000 A 
ATOM     21  C   UNL     1     113.867 130.026 136.204  0.00  0.00    +0.000 A 
ENDBRANCH   6  16
BRANCH   5  22
ATOM     22  O   UNL     1     111.974 127.938 135.733  0.00  0.00    +0.000 OA
BRANCH  22  31
ATOM     23  O   UNL     1     111.100 127.949 136.863  0.00  0.00    +0.000 OA
ATOM     24  O   UNL     1     109.180 128.422 135.374  0.00  0.00    +0.000 OA
ATOM     25  O   UNL     1     108.947 128.276 137.001  0.00  0.00    +0.000 OA
ATOM     26  O   UNL     1     110.694 128.253 134.740  0.00  0.00    +0.000 OA
ATOM     27  C   UNL     1     109.820 128.265 135.871  0.00  0.00    +0.000 C 
ATOM     28  C   UNL     1     109.704 128.191 136.684  0.00  0.00    +0.000 C 
ATOM     29  C   UNL     1     110.578 128.180 135.553  0.00  0.00    +0.000 C 
ATOM     30  C   UNL     1     110.343 128.034 137.180  0.00  0.00    +0.000 C 
ATOM     31  C   UNL     1     111.217 128.022 136.049  0.00  0.00    +0.000 C 
BRANCH  30  33
ATOM     32  O   UNL     1     110.597 128.486 138.511  0.00  0.00    +0.000 OA
ATOM     33  C   UNL     1     110.227 127.961 137.993  0.00  0.00    +0.000 C 
ENDBRANCH  30  33
ENDBRANCH  22  31
ENDBRANCH   5  22
TORSDOF 4
ENDMDL
MODEL 7
REMARK VINA RESULT:      -9.3     11.580     12.807
REMARK  Name = 44258908
REMARK  4 active torsions:
REMARK  status: ('A' for Active; 'I' for Inactive)
REMARK    1  A    between atoms: O_2  and  C_16
REMARK    2  A    between atoms: O_2  and  C_18
REMARK    3  A    between atoms: C_15  and  C_17
REMARK    4  A    between atoms: C_19  and  C_23
REMARK                            x       y       z     vdW  Elec       q    Type
REMARK                         _______ _______ _______ _____ _____    ______ ____
ROOT
ATOM      1  O   UNL     1     111.926 125.618 136.109  0.00  0.00    +0.000 OA
ATOM      2  O   UNL     1     111.247 127.774 137.119  0.00  0.00    +0.000 OA
ATOM      3  O   UNL     1     110.000 127.754 136.393  0.00  0.00    +0.000 OA
ATOM      4  O   UNL     1     109.430 125.510 134.613  0.00  0.00    +0.000 OA
ATOM      5  C   UNL     1     112.200 126.719 136.979  0.00  0.00    +0.000 A 
ATOM      6  C   UNL     1     112.427 126.000 136.643  0.00  0.00    +0.000 A 
ATOM      7  C   UNL     1     111.474 127.056 136.783  0.00  0.00    +0.000 A 
ATOM      8  C   UNL     1     110.973 126.674 136.249  0.00  0.00    +0.000 A 
ATOM      9  C   UNL     1     111.199 125.956 135.912  0.00  0.00    +0.000 A 
ATOM     10  C   UNL     1     110.218 127.035 136.052  0.00  0.00    +0.000 A 
ATOM     11  C   UNL     1     109.693 126.643 135.497  0.00  0.00    +0.000 A 
ATOM     12  C   UNL     1     110.687 125.548 135.356  0.00  0.00    +0.000 A 
ATOM     13  C   UNL     1     109.928 125.894 135.146  0.00  0.00    +0.000 A 
ATOM     14  C   UNL     1     108.967 126.982 135.302  0.00  0.00    +0.000 C 
ENDROOT
BRANCH   6  16
ATOM     15  O   UNL     1     115.335 124.652 137.429  0.00  0.00    +0.000 OA
ATOM     16  C   UNL     1     113.154 125.663 136.840  0.00  0.00    +0.000 A 
ATOM     17  C   UNL     1     113.770 125.664 136.291  0.00  0.00    +0.000 A 
ATOM     18  C   UNL     1     113.265 125.326 137.584  0.00  0.00    +0.000 A 
ATOM     19  C   UNL     1     114.498 125.326 136.488  0.00  0.00    +0.000 A 
ATOM     20  C   UNL     1     113.991 124.989 137.781  0.00  0.00    +0.000 A 
ATOM     21  C   UNL     1     114.607 124.989 137.233  0.00  0.00    +0.000 A 
ENDBRANCH   6  16
BRANCH   5  22
ATOM     22  O   UNL     1     112.701 127.100 137.513  0.00  0.00    +0.000 OA
BRANCH  22  31
ATOM     23  O   UNL     1     113.134 128.103 136.591  0.00  0.00    +0.000 OA
ATOM     24  O   UNL     1     113.354 129.719 138.453  0.00  0.00    +0.000 OA
ATOM     25  O   UNL     1     113.713 130.182 136.911  0.00  0.00    +0.000 OA
ATOM     26  O   UNL     1     112.848 128.178 138.754  0.00  0.00    +0.000 OA
ATOM     27  C   UNL     1     113.281 129.180 137.832  0.00  0.00    +0.000 C 
ATOM     28  C   UNL     1     113.460 129.412 137.061  0.00  0.00    +0.000 C 
ATOM     29  C   UNL     1     113.027 128.409 137.982  0.00  0.00    +0.000 C 
ATOM     30  C   UNL     1     113.387 128.874 136.441  0.00  0.00    +0.000 C 
ATOM     31  C   UNL     1     112.954 127.871 137.363  0.00  0.00    +0.000 C 
BRANCH  30  33
ATOM     32  O   UNL     1     114.189 128.744 135.266  0.00  0.00    +0.000 OA
ATOM     33  C   UNL     1     113.566 129.105 135.670  0.00  0.00    +0.000 C 
ENDBRANCH  30  33
ENDBRANCH  22  31
ENDBRANCH   5  22
TORSDOF 4
ENDMDL
MODEL 8
REMARK VINA RESULT:      -9.2     11.081     12.709
REMARK  Name = 44258908
REMARK  4 active torsions:
REMARK  status: ('A' for Active; 'I' for Inactive)
REMARK    1  A    between atoms: O_2  and  C_16
REMARK    2  A    between atoms: O_2  and  C_18
REMARK    3  A    between atoms: C_15  and  C_17
REMARK    4  A    between atoms: C_19  and  C_23
REMARK                            x       y       z     vdW  Elec       q    Type
REMARK                         _______ _______ _______ _____ _____    ______ ____
ROOT
ATOM      1  O   UNL     1     111.744 129.460 135.691  0.00  0.00    +0.000 OA
ATOM      2  O   UNL     1     112.324 130.737 137.731  0.00  0.00    +0.000 OA
ATOM      3  O   UNL     1     113.702 130.835 137.313  0.00  0.00    +0.000 OA
ATOM      4  O   UNL     1     114.507 129.618 134.783  0.00  0.00    +0.000 OA
ATOM      5  C   UNL     1     111.355 130.058 136.930  0.00  0.00    +0.000 A 
ATOM      6  C   UNL     1     111.161 129.632 136.250  0.00  0.00    +0.000 A 
ATOM      7  C   UNL     1     112.130 130.312 137.051  0.00  0.00    +0.000 A 
ATOM      8  C   UNL     1     112.713 130.140 136.492  0.00  0.00    +0.000 A 
ATOM      9  C   UNL     1     112.520 129.715 135.813  0.00  0.00    +0.000 A 
ATOM     10  C   UNL     1     113.517 130.410 136.630  0.00  0.00    +0.000 A 
ATOM     11  C   UNL     1     114.128 130.235 136.051  0.00  0.00    +0.000 A 
ATOM     12  C   UNL     1     113.117 129.530 135.223  0.00  0.00    +0.000 A 
ATOM     13  C   UNL     1     113.927 129.791 135.343  0.00  0.00    +0.000 A 
ATOM     14  C   UNL     1     114.902 130.490 136.175  0.00  0.00    +0.000 C 
ENDROOT
BRANCH   6  16
ATOM     15  O   UNL     1     108.059 128.616 135.764  0.00  0.00    +0.000 OA
ATOM     16  C   UNL     1     110.387 129.378 136.129  0.00  0.00    +0.000 A 
ATOM     17  C   UNL     1     109.914 129.752 135.565  0.00  0.00    +0.000 A 
ATOM     18  C   UNL     1     110.083 128.750 136.570  0.00  0.00    +0.000 A 
ATOM     19  C   UNL     1     109.137 129.498 135.444  0.00  0.00    +0.000 A 
ATOM     20  C   UNL     1     109.309 128.497 136.449  0.00  0.00    +0.000 A 
ATOM     21  C   UNL     1     108.836 128.870 135.886  0.00  0.00    +0.000 A 
ENDBRANCH   6  16
BRANCH   5  22
ATOM     22  O   UNL     1     110.773 130.229 137.489  0.00  0.00    +0.000 OA
BRANCH  22  31
ATOM     23  O   UNL     1     110.653 131.607 137.130  0.00  0.00    +0.000 OA
ATOM     24  O   UNL     1     110.111 132.171 139.479  0.00  0.00    +0.000 OA
ATOM     25  O   UNL     1     110.171 133.360 138.338  0.00  0.00    +0.000 OA
ATOM     26  O   UNL     1     110.412 130.605 139.054  0.00  0.00    +0.000 OA
ATOM     27  C   UNL     1     110.292 131.983 138.696  0.00  0.00    +0.000 C 
ATOM     28  C   UNL     1     110.322 132.577 138.125  0.00  0.00    +0.000 C 
ATOM     29  C   UNL     1     110.442 131.199 138.483  0.00  0.00    +0.000 C 
ATOM     30  C   UNL     1     110.502 132.390 137.343  0.00  0.00    +0.000 C 
ATOM     31  C   UNL     1     110.622 131.012 137.701  0.00  0.00    +0.000 C 
BRANCH  30  33
ATOM     32  O   UNL     1     109.995 132.982 136.145  0.00  0.00    +0.000 OA
ATOM     33  C   UNL     1     110.532 132.984 136.772  0.00  0.00    +0.000 C 
ENDBRANCH  30  33
ENDBRANCH  22  31
ENDBRANCH   5  22
TORSDOF 4
ENDMDL
MODEL 9
REMARK VINA RESULT:      -9.1      9.989     12.130
REMARK  Name = 44258908
REMARK  4 active torsions:
REMARK  status: ('A' for Active; 'I' for Inactive)
REMARK    1  A    between atoms: O_2  and  C_16
REMARK    2  A    between atoms: O_2  and  C_18
REMARK    3  A    between atoms: C_15  and  C_17
REMARK    4  A    between atoms: C_19  and  C_23
REMARK                            x       y       z     vdW  Elec       q    Type
REMARK                         _______ _______ _______ _____ _____    ______ ____
ROOT
ATOM      1  O   UNL     1     113.586 127.298 136.668  0.00  0.00    +0.000 OA
ATOM      2  O   UNL     1     112.157 128.226 138.463  0.00  0.00    +0.000 OA
ATOM      3  O   UNL     1     112.386 129.569 137.991  0.00  0.00    +0.000 OA
ATOM      4  O   UNL     1     114.094 129.982 135.657  0.00  0.00    +0.000 OA
ATOM      5  C   UNL     1     112.750 127.101 137.810  0.00  0.00    +0.000 A 
ATOM      6  C   UNL     1     113.226 126.791 137.212  0.00  0.00    +0.000 A 
ATOM      7  C   UNL     1     112.633 127.916 137.865  0.00  0.00    +0.000 A 
ATOM      8  C   UNL     1     112.994 128.422 137.321  0.00  0.00    +0.000 A 
ATOM      9  C   UNL     1     113.470 128.113 136.723  0.00  0.00    +0.000 A 
ATOM     10  C   UNL     1     112.864 129.269 137.389  0.00  0.00    +0.000 A 
ATOM     11  C   UNL     1     113.237 129.800 136.825  0.00  0.00    +0.000 A 
ATOM     12  C   UNL     1     113.850 128.628 136.151  0.00  0.00    +0.000 A 
ATOM     13  C   UNL     1     113.733 129.478 136.202  0.00  0.00    +0.000 A 
ATOM     14  C   UNL     1     113.118 130.615 136.883  0.00  0.00    +0.000 C 
ENDROOT
BRANCH   6  16
ATOM     15  O   UNL     1     113.692 123.532 136.992  0.00  0.00    +0.000 OA
ATOM     16  C   UNL     1     113.343 125.977 137.157  0.00  0.00    +0.000 A 
ATOM     17  C   UNL     1     112.738 125.492 136.874  0.00  0.00    +0.000 A 
ATOM     18  C   UNL     1     114.064 125.647 137.385  0.00  0.00    +0.000 A 
ATOM     19  C   UNL     1     112.855 124.677 136.819  0.00  0.00    +0.000 A 
ATOM     20  C   UNL     1     114.180 124.832 137.330  0.00  0.00    +0.000 A 
ATOM     21  C   UNL     1     113.576 124.347 137.047  0.00  0.00    +0.000 A 
ENDBRANCH   6  16
BRANCH   5  22
ATOM     22  O   UNL     1     112.390 126.596 138.354  0.00  0.00    +0.000 OA
BRANCH  22  31
ATOM     23  O   UNL     1     113.275 126.941 139.421  0.00  0.00    +0.000 OA
ATOM     24  O   UNL     1     111.487 126.455 141.062  0.00  0.00    +0.000 OA
ATOM     25  O   UNL     1     112.968 126.962 141.581  0.00  0.00    +0.000 OA
ATOM     26  O   UNL     1     111.198 126.272 139.448  0.00  0.00    +0.000 OA
ATOM     27  C   UNL     1     112.083 126.617 140.515  0.00  0.00    +0.000 C 
ATOM     28  C   UNL     1     112.824 126.871 140.774  0.00  0.00    +0.000 C 
ATOM     29  C   UNL     1     111.939 126.525 139.707  0.00  0.00    +0.000 C 
ATOM     30  C   UNL     1     113.419 127.032 140.228  0.00  0.00    +0.000 C 
ATOM     31  C   UNL     1     112.534 126.687 139.161  0.00  0.00    +0.000 C 
BRANCH  30  33
ATOM     32  O   UNL     1     114.820 126.799 140.391  0.00  0.00    +0.000 OA
ATOM     33  C   UNL     1     114.160 127.286 140.488  0.00  0.00    +0.000 C 
ENDBRANCH  30  33
ENDBRANCH  22  31
ENDBRANCH   5  22
TORSDOF 4
ENDMDL
MODEL 10
REMARK VINA RESULT:      -9.1     10.651     12.079
REMARK  Name = 44258908
REMARK  4 active torsions:
REMARK  status: ('A' for Active; 'I' for Inactive)
REMARK    1  A    between atoms: O_2  and  C_16
REMARK    2  A    between atoms: O_2  and  C_18
REMARK    3  A    between atoms: C_15  and  C_17
REMARK    4  A    between atoms: C_19  and  C_23
REMARK                            x       y       z     vdW  Elec       q    Type
REMARK                         _______ _______ _______ _____ _____    ______ ____
ROOT
ATOM      1  O   UNL     1     111.536 125.598 136.528  0.00  0.00    +0.000 OA
ATOM      2  O   UNL     1     113.287 127.325 136.250  0.00  0.00    +0.000 OA
ATOM      3  O   UNL     1     114.321 126.368 136.563  0.00  0.00    +0.000 OA
ATOM      4  O   UNL     1     113.568 123.612 137.168  0.00  0.00    +0.000 OA
ATOM      5  C   UNL     1     111.910 126.945 136.233  0.00  0.00    +0.000 A 
ATOM      6  C   UNL     1     111.325 126.370 136.325  0.00  0.00    +0.000 A 
ATOM      7  C   UNL     1     112.703 126.750 136.343  0.00  0.00    +0.000 A 
ATOM      8  C   UNL     1     112.913 125.977 136.546  0.00  0.00    +0.000 A 
ATOM      9  C   UNL     1     112.330 125.402 136.638  0.00  0.00    +0.000 A 
ATOM     10  C   UNL     1     113.744 125.786 136.657  0.00  0.00    +0.000 A 
ATOM     11  C   UNL     1     113.968 124.984 136.869  0.00  0.00    +0.000 A 
ATOM     12  C   UNL     1     112.535 124.595 136.849  0.00  0.00    +0.000 A 
ATOM     13  C   UNL     1     113.360 124.384 136.965  0.00  0.00    +0.000 A 
ATOM     14  C   UNL     1     114.763 124.791 136.978  0.00  0.00    +0.000 C 
ENDROOT
BRANCH   6  16
ATOM     15  O   UNL     1     108.150 127.154 135.886  0.00  0.00    +0.000 OA
ATOM     16  C   UNL     1     110.532 126.566 136.215  0.00  0.00    +0.000 A 
ATOM     17  C   UNL     1     110.031 126.636 136.867  0.00  0.00    +0.000 A 
ATOM     18  C   UNL     1     110.239 126.692 135.454  0.00  0.00    +0.000 A 
ATOM     19  C   UNL     1     109.236 126.832 136.757  0.00  0.00    +0.000 A 
ATOM     20  C   UNL     1     109.446 126.887 135.344  0.00  0.00    +0.000 A 
ATOM     21  C   UNL     1     108.944 126.958 135.996  0.00  0.00    +0.000 A 
ENDBRANCH   6  16
BRANCH   5  22
ATOM     22  O   UNL     1     111.700 127.717 136.030  0.00  0.00    +0.000 OA
BRANCH  22  31
ATOM     23  O   UNL     1     111.930 128.248 137.337  0.00  0.00    +0.000 OA
ATOM     24  O   UNL     1     112.550 130.428 136.342  0.00  0.00    +0.000 OA
ATOM     25  O   UNL     1     112.573 130.231 137.980  0.00  0.00    +0.000 OA
ATOM     26  O   UNL     1     112.113 129.170 135.367  0.00  0.00    +0.000 OA
ATOM     27  C   UNL     1     112.343 129.701 136.674  0.00  0.00    +0.000 C 
ATOM     28  C   UNL     1     112.355 129.602 137.493  0.00  0.00    +0.000 C 
ATOM     29  C   UNL     1     112.125 129.072 136.186  0.00  0.00    +0.000 C 
ATOM     30  C   UNL     1     112.148 128.877 137.824  0.00  0.00    +0.000 C 
ATOM     31  C   UNL     1     111.918 128.346 136.517  0.00  0.00    +0.000 C 
BRANCH  30  33
ATOM     32  O   UNL     1     111.465 128.585 139.044  0.00  0.00    +0.000 OA
ATOM     33  C   UNL     1     112.160 128.778 138.643  0.00  0.00    +0.000 C 
ENDBRANCH  30  33
ENDBRANCH  22  31
ENDBRANCH   5  22
TORSDOF 4
ENDMDL
