MODEL 1
REMARK VINA RESULT:      -9.0      0.000      0.000
REMARK  Name = 20222511
REMARK  2 active torsions:
REMARK  status: ('A' for Active; 'I' for Inactive)
REMARK    1  A    between atoms: O_5  and  C_21
REMARK    2  A    between atoms: C_7  and  C_12
REMARK                            x       y       z     vdW  Elec       q    Type
REMARK                         _______ _______ _______ _____ _____    ______ ____
ROOT
ATOM      1  O   UNL     1     103.023 130.510 142.222  0.00  0.00    +0.000 OA
ATOM      2  O   UNL     1     102.907 129.214 140.050  0.00  0.00    +0.000 OA
ATOM      3  O   UNL     1     103.859 128.273 140.587  0.00  0.00    +0.000 OA
ATOM      4  O   UNL     1     104.921 128.587 143.222  0.00  0.00    +0.000 OA
ATOM      5  C   UNL     1     102.510 130.789 141.592  0.00  0.00    +0.000 C 
ATOM      6  C   UNL     1     102.468 130.352 140.854  0.00  0.00    +0.000 C 
ATOM      7  C   UNL     1     103.448 129.376 141.397  0.00  0.00    +0.000 A 
ATOM      8  C   UNL     1     103.488 129.797 142.106  0.00  0.00    +0.000 A 
ATOM      9  C   UNL     1     102.940 129.641 140.755  0.00  0.00    +0.000 C 
ATOM     10  C   UNL     1     103.979 129.534 142.713  0.00  0.00    +0.000 A 
ATOM     11  C   UNL     1     103.899 128.693 141.296  0.00  0.00    +0.000 A 
ATOM     12  C   UNL     1     104.389 128.430 141.905  0.00  0.00    +0.000 A 
ATOM     13  C   UNL     1     104.429 128.851 142.613  0.00  0.00    +0.000 A 
ATOM     14  C   UNL     1     104.018 129.954 143.422  0.00  0.00    +0.000 C 
ATOM     15  C   UNL     1     104.841 127.746 141.804  0.00  0.00    +0.000 C 
ENDROOT
BRANCH   5  17
ATOM     16  O   UNL     1     100.710 133.525 142.004  0.00  0.00    +0.000 OA
ATOM     17  C   UNL     1     102.060 131.473 141.695  0.00  0.00    +0.000 A 
ATOM     18  C   UNL     1     102.378 132.209 141.501  0.00  0.00    +0.000 A 
ATOM     19  C   UNL     1     101.292 131.420 141.992  0.00  0.00    +0.000 A 
ATOM     20  C   UNL     1     101.928 132.893 141.604  0.00  0.00    +0.000 A 
ATOM     21  C   UNL     1     100.842 132.105 142.095  0.00  0.00    +0.000 A 
ATOM     22  C   UNL     1     101.160 132.841 141.901  0.00  0.00    +0.000 A 
BRANCH  20  23
ATOM     23  O   UNL     1     102.246 133.629 141.410  0.00  0.00    +0.000 OA
ATOM     24  C   UNL     1     103.053 133.769 141.508  0.00  0.00    +0.000 C 
ENDBRANCH  20  23
ENDBRANCH   5  17
TORSDOF 2
ENDMDL
MODEL 2
REMARK VINA RESULT:      -8.9      7.906      8.945
REMARK  Name = 20222511
REMARK  2 active torsions:
REMARK  status: ('A' for Active; 'I' for Inactive)
REMARK    1  A    between atoms: O_5  and  C_21
REMARK    2  A    between atoms: C_7  and  C_12
REMARK                            x       y       z     vdW  Elec       q    Type
REMARK                         _______ _______ _______ _____ _____    ______ ____
ROOT
ATOM      1  O   UNL     1     105.317 124.558 147.918  0.00  0.00    +0.000 OA
ATOM      2  O   UNL     1     106.609 125.427 145.921  0.00  0.00    +0.000 OA
ATOM      3  O   UNL     1     107.818 125.368 146.706  0.00  0.00    +0.000 OA
ATOM      4  O   UNL     1     107.775 124.470 149.419  0.00  0.00    +0.000 OA
ATOM      5  C   UNL     1     104.898 124.729 147.188  0.00  0.00    +0.000 C 
ATOM      6  C   UNL     1     105.334 125.024 146.509  0.00  0.00    +0.000 C 
ATOM      7  C   UNL     1     106.584 124.968 147.308  0.00  0.00    +0.000 A 
ATOM      8  C   UNL     1     106.166 124.684 147.960  0.00  0.00    +0.000 A 
ATOM      9  C   UNL     1     106.182 125.144 146.569  0.00  0.00    +0.000 C 
ATOM     10  C   UNL     1     106.563 124.519 148.663  0.00  0.00    +0.000 A 
ATOM     11  C   UNL     1     107.399 125.085 147.359  0.00  0.00    +0.000 A 
ATOM     12  C   UNL     1     107.795 124.919 148.063  0.00  0.00    +0.000 A 
ATOM     13  C   UNL     1     107.377 124.636 148.715  0.00  0.00    +0.000 A 
ATOM     14  C   UNL     1     106.145 124.236 149.316  0.00  0.00    +0.000 C 
ATOM     15  C   UNL     1     108.611 125.036 148.114  0.00  0.00    +0.000 C 
ENDROOT
BRANCH   5  17
ATOM     16  O   UNL     1     101.638 124.255 146.992  0.00  0.00    +0.000 OA
ATOM     17  C   UNL     1     104.083 124.611 147.139  0.00  0.00    +0.000 A 
ATOM     18  C   UNL     1     103.787 123.912 146.817  0.00  0.00    +0.000 A 
ATOM     19  C   UNL     1     103.565 125.192 147.412  0.00  0.00    +0.000 A 
ATOM     20  C   UNL     1     102.972 123.793 146.768  0.00  0.00    +0.000 A 
ATOM     21  C   UNL     1     102.750 125.073 147.362  0.00  0.00    +0.000 A 
ATOM     22  C   UNL     1     102.453 124.374 147.041  0.00  0.00    +0.000 A 
BRANCH  20  23
ATOM     23  O   UNL     1     102.675 123.094 146.447  0.00  0.00    +0.000 OA
ATOM     24  C   UNL     1     103.056 122.740 145.806  0.00  0.00    +0.000 C 
ENDBRANCH  20  23
ENDBRANCH   5  17
TORSDOF 2
ENDMDL
MODEL 3
REMARK VINA RESULT:      -8.8      9.345     11.538
REMARK  Name = 20222511
REMARK  2 active torsions:
REMARK  status: ('A' for Active; 'I' for Inactive)
REMARK    1  A    between atoms: O_5  and  C_21
REMARK    2  A    between atoms: C_7  and  C_12
REMARK                            x       y       z     vdW  Elec       q    Type
REMARK                         _______ _______ _______ _____ _____    ______ ____
ROOT
ATOM      1  O   UNL     1     111.969 125.964 136.262  0.00  0.00    +0.000 OA
ATOM      2  O   UNL     1     112.044 123.498 136.830  0.00  0.00    +0.000 OA
ATOM      3  O   UNL     1     113.458 123.622 137.085  0.00  0.00    +0.000 OA
ATOM      4  O   UNL     1     114.796 126.130 136.790  0.00  0.00    +0.000 OA
ATOM      5  C   UNL     1     111.247 125.500 136.222  0.00  0.00    +0.000 C 
ATOM      6  C   UNL     1     111.269 124.663 136.414  0.00  0.00    +0.000 C 
ATOM      7  C   UNL     1     112.725 124.780 136.679  0.00  0.00    +0.000 A 
ATOM      8  C   UNL     1     112.704 125.584 136.494  0.00  0.00    +0.000 A 
ATOM      9  C   UNL     1     112.013 124.301 136.644  0.00  0.00    +0.000 C 
ATOM     10  C   UNL     1     113.394 126.034 136.531  0.00  0.00    +0.000 A 
ATOM     11  C   UNL     1     113.436 124.426 136.901  0.00  0.00    +0.000 A 
ATOM     12  C   UNL     1     114.126 124.877 136.937  0.00  0.00    +0.000 A 
ATOM     13  C   UNL     1     114.105 125.680 136.753  0.00  0.00    +0.000 A 
ATOM     14  C   UNL     1     113.373 126.837 136.347  0.00  0.00    +0.000 C 
ATOM     15  C   UNL     1     114.838 124.523 137.159  0.00  0.00    +0.000 C 
ENDROOT
BRANCH   5  17
ATOM     16  O   UNL     1     108.405 126.926 135.334  0.00  0.00    +0.000 OA
ATOM     17  C   UNL     1     110.536 125.857 136.000  0.00  0.00    +0.000 A 
ATOM     18  C   UNL     1     110.114 126.310 136.545  0.00  0.00    +0.000 A 
ATOM     19  C   UNL     1     110.248 125.759 135.233  0.00  0.00    +0.000 A 
ATOM     20  C   UNL     1     109.404 126.666 136.323  0.00  0.00    +0.000 A 
ATOM     21  C   UNL     1     109.537 126.116 135.011  0.00  0.00    +0.000 A 
ATOM     22  C   UNL     1     109.115 126.570 135.556  0.00  0.00    +0.000 A 
BRANCH  20  23
ATOM     23  O   UNL     1     108.982 127.120 136.868  0.00  0.00    +0.000 OA
ATOM     24  C   UNL     1     109.383 127.623 137.385  0.00  0.00    +0.000 C 
ENDBRANCH  20  23
ENDBRANCH   5  17
TORSDOF 2
ENDMDL
MODEL 4
REMARK VINA RESULT:      -8.7      7.286      8.721
REMARK  Name = 20222511
REMARK  2 active torsions:
REMARK  status: ('A' for Active; 'I' for Inactive)
REMARK    1  A    between atoms: O_5  and  C_21
REMARK    2  A    between atoms: C_7  and  C_12
REMARK                            x       y       z     vdW  Elec       q    Type
REMARK                         _______ _______ _______ _____ _____    ______ ____
ROOT
ATOM      1  O   UNL     1     104.386 124.180 146.578  0.00  0.00    +0.000 OA
ATOM      2  O   UNL     1     102.794 125.515 148.026  0.00  0.00    +0.000 OA
ATOM      3  O   UNL     1     101.694 124.773 147.461  0.00  0.00    +0.000 OA
ATOM      4  O   UNL     1     102.135 122.743 145.498  0.00  0.00    +0.000 OA
ATOM      5  C   UNL     1     104.700 124.781 147.106  0.00  0.00    +0.000 C 
ATOM      6  C   UNL     1     104.162 125.236 147.598  0.00  0.00    +0.000 C 
ATOM      7  C   UNL     1     103.022 124.478 147.023  0.00  0.00    +0.000 A 
ATOM      8  C   UNL     1     103.538 124.042 146.550  0.00  0.00    +0.000 A 
ATOM      9  C   UNL     1     103.318 125.083 147.557  0.00  0.00    +0.000 C 
ATOM     10  C   UNL     1     103.242 123.464 146.042  0.00  0.00    +0.000 A 
ATOM     11  C   UNL     1     102.210 124.336 146.988  0.00  0.00    +0.000 A 
ATOM     12  C   UNL     1     101.915 123.758 146.479  0.00  0.00    +0.000 A 
ATOM     13  C   UNL     1     102.431 123.321 146.006  0.00  0.00    +0.000 A 
ATOM     14  C   UNL     1     103.759 123.027 145.569  0.00  0.00    +0.000 C 
ATOM     15  C   UNL     1     101.102 123.616 146.444  0.00  0.00    +0.000 C 
ENDROOT
BRANCH   5  17
ATOM     16  O   UNL     1     107.949 125.342 147.239  0.00  0.00    +0.000 OA
ATOM     17  C   UNL     1     105.512 124.921 147.139  0.00  0.00    +0.000 A 
ATOM     18  C   UNL     1     105.891 125.304 146.514  0.00  0.00    +0.000 A 
ATOM     19  C   UNL     1     105.945 124.679 147.798  0.00  0.00    +0.000 A 
ATOM     20  C   UNL     1     106.703 125.443 146.548  0.00  0.00    +0.000 A 
ATOM     21  C   UNL     1     106.758 124.819 147.831  0.00  0.00    +0.000 A 
ATOM     22  C   UNL     1     107.137 125.202 147.206  0.00  0.00    +0.000 A 
BRANCH  20  23
ATOM     23  O   UNL     1     107.082 125.826 145.922  0.00  0.00    +0.000 OA
ATOM     24  C   UNL     1     106.686 126.409 145.493  0.00  0.00    +0.000 C 
ENDBRANCH  20  23
ENDBRANCH   5  17
TORSDOF 2
ENDMDL
MODEL 5
REMARK VINA RESULT:      -8.6     11.173     12.069
REMARK  Name = 20222511
REMARK  2 active torsions:
REMARK  status: ('A' for Active; 'I' for Inactive)
REMARK    1  A    between atoms: O_5  and  C_21
REMARK    2  A    between atoms: C_7  and  C_12
REMARK                            x       y       z     vdW  Elec       q    Type
REMARK                         _______ _______ _______ _____ _____    ______ ____
ROOT
ATOM      1  O   UNL     1     113.485 126.725 136.654  0.00  0.00    +0.000 OA
ATOM      2  O   UNL     1     111.124 126.320 135.835  0.00  0.00    +0.000 OA
ATOM      3  O   UNL     1     111.292 124.915 136.113  0.00  0.00    +0.000 OA
ATOM      4  O   UNL     1     113.743 123.905 137.182  0.00  0.00    +0.000 OA
ATOM      5  C   UNL     1     113.016 127.389 136.377  0.00  0.00    +0.000 C 
ATOM      6  C   UNL     1     112.214 127.255 136.099  0.00  0.00    +0.000 C 
ATOM      7  C   UNL     1     112.377 125.806 136.381  0.00  0.00    +0.000 A 
ATOM      8  C   UNL     1     113.147 125.935 136.649  0.00  0.00    +0.000 A 
ATOM      9  C   UNL     1     111.893 126.459 136.101  0.00  0.00    +0.000 C 
ATOM     10  C   UNL     1     113.602 125.301 136.915  0.00  0.00    +0.000 A 
ATOM     11  C   UNL     1     112.062 125.044 136.381  0.00  0.00    +0.000 A 
ATOM     12  C   UNL     1     112.518 124.410 136.648  0.00  0.00    +0.000 A 
ATOM     13  C   UNL     1     113.288 124.539 136.915  0.00  0.00    +0.000 A 
ATOM     14  C   UNL     1     114.371 125.430 137.183  0.00  0.00    +0.000 C 
ATOM     15  C   UNL     1     112.203 123.647 136.647  0.00  0.00    +0.000 C 
ENDROOT
BRANCH   5  17
ATOM     16  O   UNL     1     114.283 130.437 136.383  0.00  0.00    +0.000 OA
ATOM     17  C   UNL     1     113.333 128.151 136.378  0.00  0.00    +0.000 A 
ATOM     18  C   UNL     1     113.215 128.645 137.028  0.00  0.00    +0.000 A 
ATOM     19  C   UNL     1     113.767 128.418 135.730  0.00  0.00    +0.000 A 
ATOM     20  C   UNL     1     113.532 129.407 137.030  0.00  0.00    +0.000 A 
ATOM     21  C   UNL     1     114.084 129.181 135.732  0.00  0.00    +0.000 A 
ATOM     22  C   UNL     1     113.966 129.675 136.382  0.00  0.00    +0.000 A 
BRANCH  20  23
ATOM     23  O   UNL     1     113.414 129.901 137.680  0.00  0.00    +0.000 OA
ATOM     24  C   UNL     1     113.389 129.584 138.441  0.00  0.00    +0.000 C 
ENDBRANCH  20  23
ENDBRANCH   5  17
TORSDOF 2
ENDMDL
MODEL 6
REMARK VINA RESULT:      -8.5     10.758     12.253
REMARK  Name = 20222511
REMARK  2 active torsions:
REMARK  status: ('A' for Active; 'I' for Inactive)
REMARK    1  A    between atoms: O_5  and  C_21
REMARK    2  A    between atoms: C_7  and  C_12
REMARK                            x       y       z     vdW  Elec       q    Type
REMARK                         _______ _______ _______ _____ _____    ______ ____
ROOT
ATOM      1  O   UNL     1     112.750 126.709 136.275  0.00  0.00    +0.000 OA
ATOM      2  O   UNL     1     114.589 125.300 137.299  0.00  0.00    +0.000 OA
ATOM      3  O   UNL     1     113.736 124.143 137.182  0.00  0.00    +0.000 OA
ATOM      4  O   UNL     1     111.109 124.349 136.075  0.00  0.00    +0.000 OA
ATOM      5  C   UNL     1     113.490 127.082 136.501  0.00  0.00    +0.000 C 
ATOM      6  C   UNL     1     114.116 126.607 136.849  0.00  0.00    +0.000 C 
ATOM      7  C   UNL     1     113.247 125.408 136.733  0.00  0.00    +0.000 A 
ATOM      8  C   UNL     1     112.646 125.865 136.399  0.00  0.00    +0.000 A 
ATOM      9  C   UNL     1     113.994 125.765 136.966  0.00  0.00    +0.000 C 
ATOM     10  C   UNL     1     111.934 125.512 136.180  0.00  0.00    +0.000 A 
ATOM     11  C   UNL     1     113.135 124.599 136.848  0.00  0.00    +0.000 A 
ATOM     12  C   UNL     1     112.423 124.247 136.628  0.00  0.00    +0.000 A 
ATOM     13  C   UNL     1     111.822 124.703 136.294  0.00  0.00    +0.000 A 
ATOM     14  C   UNL     1     111.333 125.968 135.846  0.00  0.00    +0.000 C 
ATOM     15  C   UNL     1     112.311 123.437 136.743  0.00  0.00    +0.000 C 
ENDROOT
BRANCH   5  17
ATOM     16  O   UNL     1     113.927 130.321 136.039  0.00  0.00    +0.000 OA
ATOM     17  C   UNL     1     113.599 127.891 136.385  0.00  0.00    +0.000 A 
ATOM     18  C   UNL     1     113.320 128.429 136.945  0.00  0.00    +0.000 A 
ATOM     19  C   UNL     1     113.988 128.163 135.710  0.00  0.00    +0.000 A 
ATOM     20  C   UNL     1     113.430 129.239 136.829  0.00  0.00    +0.000 A 
ATOM     21  C   UNL     1     114.097 128.973 135.595  0.00  0.00    +0.000 A 
ATOM     22  C   UNL     1     113.817 129.511 136.155  0.00  0.00    +0.000 A 
BRANCH  20  23
ATOM     23  O   UNL     1     113.150 129.777 137.389  0.00  0.00    +0.000 OA
ATOM     24  C   UNL     1     112.449 129.623 137.796  0.00  0.00    +0.000 C 
ENDBRANCH  20  23
ENDBRANCH   5  17
TORSDOF 2
ENDMDL
MODEL 7
REMARK VINA RESULT:      -8.5     10.623     11.689
REMARK  Name = 20222511
REMARK  2 active torsions:
REMARK  status: ('A' for Active; 'I' for Inactive)
REMARK    1  A    between atoms: O_5  and  C_21
REMARK    2  A    between atoms: C_7  and  C_12
REMARK                            x       y       z     vdW  Elec       q    Type
REMARK                         _______ _______ _______ _____ _____    ______ ____
ROOT
ATOM      1  O   UNL     1     113.515 126.173 138.437  0.00  0.00    +0.000 OA
ATOM      2  O   UNL     1     111.091 125.496 138.718  0.00  0.00    +0.000 OA
ATOM      3  O   UNL     1     111.253 124.551 137.641  0.00  0.00    +0.000 OA
ATOM      4  O   UNL     1     113.758 124.261 136.295  0.00  0.00    +0.000 OA
ATOM      5  C   UNL     1     113.038 126.554 139.042  0.00  0.00    +0.000 C 
ATOM      6  C   UNL     1     112.216 126.327 139.140  0.00  0.00    +0.000 C 
ATOM      7  C   UNL     1     112.372 125.350 138.032  0.00  0.00    +0.000 A 
ATOM      8  C   UNL     1     113.162 125.568 137.938  0.00  0.00    +0.000 A 
ATOM      9  C   UNL     1     111.880 125.721 138.632  0.00  0.00    +0.000 C 
ATOM     10  C   UNL     1     113.623 125.206 137.359  0.00  0.00    +0.000 A 
ATOM     11  C   UNL     1     112.043 124.769 137.547  0.00  0.00    +0.000 A 
ATOM     12  C   UNL     1     112.506 124.407 136.968  0.00  0.00    +0.000 A 
ATOM     13  C   UNL     1     113.296 124.625 136.874  0.00  0.00    +0.000 A 
ATOM     14  C   UNL     1     114.413 125.424 137.265  0.00  0.00    +0.000 C 
ATOM     15  C   UNL     1     112.178 123.825 136.483  0.00  0.00    +0.000 C 
ENDROOT
BRANCH   5  17
ATOM     16  O   UNL     1     114.360 128.879 140.976  0.00  0.00    +0.000 OA
ATOM     17  C   UNL     1     113.369 127.135 139.525  0.00  0.00    +0.000 A 
ATOM     18  C   UNL     1     113.273 127.933 139.337  0.00  0.00    +0.000 A 
ATOM     19  C   UNL     1     113.795 126.919 140.198  0.00  0.00    +0.000 A 
ATOM     20  C   UNL     1     113.603 128.513 139.821  0.00  0.00    +0.000 A 
ATOM     21  C   UNL     1     114.126 127.501 140.681  0.00  0.00    +0.000 A 
ATOM     22  C   UNL     1     114.030 128.298 140.493  0.00  0.00    +0.000 A 
BRANCH  20  23
ATOM     23  O   UNL     1     113.507 129.311 139.632  0.00  0.00    +0.000 OA
ATOM     24  C   UNL     1     113.441 129.544 138.843  0.00  0.00    +0.000 C 
ENDBRANCH  20  23
ENDBRANCH   5  17
TORSDOF 2
ENDMDL
MODEL 8
REMARK VINA RESULT:      -8.5      8.067      9.005
REMARK  Name = 20222511
REMARK  2 active torsions:
REMARK  status: ('A' for Active; 'I' for Inactive)
REMARK    1  A    between atoms: O_5  and  C_21
REMARK    2  A    between atoms: C_7  and  C_12
REMARK                            x       y       z     vdW  Elec       q    Type
REMARK                         _______ _______ _______ _____ _____    ______ ____
ROOT
ATOM      1  O   UNL     1     104.461 125.059 147.571  0.00  0.00    +0.000 OA
ATOM      2  O   UNL     1     103.831 123.672 145.548  0.00  0.00    +0.000 OA
ATOM      3  O   UNL     1     102.447 123.767 145.943  0.00  0.00    +0.000 OA
ATOM      4  O   UNL     1     101.675 125.202 148.291  0.00  0.00    +0.000 OA
ATOM      5  C   UNL     1     105.078 124.786 147.039  0.00  0.00    +0.000 C 
ATOM      6  C   UNL     1     104.867 124.315 146.352  0.00  0.00    +0.000 C 
ATOM      7  C   UNL     1     103.439 124.406 146.749  0.00  0.00    +0.000 A 
ATOM      8  C   UNL     1     103.641 124.858 147.408  0.00  0.00    +0.000 A 
ATOM      9  C   UNL     1     104.043 124.124 146.206  0.00  0.00    +0.000 C 
ATOM     10  C   UNL     1     103.054 125.124 147.922  0.00  0.00    +0.000 A 
ATOM     11  C   UNL     1     102.649 124.219 146.603  0.00  0.00    +0.000 A 
ATOM     12  C   UNL     1     102.062 124.485 147.117  0.00  0.00    +0.000 A 
ATOM     13  C   UNL     1     102.264 124.937 147.777  0.00  0.00    +0.000 A 
ATOM     14  C   UNL     1     103.256 125.576 148.582  0.00  0.00    +0.000 C 
ATOM     15  C   UNL     1     101.271 124.298 146.971  0.00  0.00    +0.000 C 
ENDROOT
BRANCH   5  17
ATOM     16  O   UNL     1     108.236 125.538 147.631  0.00  0.00    +0.000 OA
ATOM     17  C   UNL     1     105.867 124.974 147.187  0.00  0.00    +0.000 A 
ATOM     18  C   UNL     1     106.260 124.632 147.827  0.00  0.00    +0.000 A 
ATOM     19  C   UNL     1     106.264 125.504 146.695  0.00  0.00    +0.000 A 
ATOM     20  C   UNL     1     107.050 124.820 147.975  0.00  0.00    +0.000 A 
ATOM     21  C   UNL     1     107.054 125.692 146.843  0.00  0.00    +0.000 A 
ATOM     22  C   UNL     1     107.447 125.350 147.483  0.00  0.00    +0.000 A 
BRANCH  20  23
ATOM     23  O   UNL     1     107.442 124.478 148.615  0.00  0.00    +0.000 OA
ATOM     24  C   UNL     1     107.022 124.273 149.295  0.00  0.00    +0.000 C 
ENDBRANCH  20  23
ENDBRANCH   5  17
TORSDOF 2
ENDMDL
MODEL 9
REMARK VINA RESULT:      -8.3      8.666     10.709
REMARK  Name = 20222511
REMARK  2 active torsions:
REMARK  status: ('A' for Active; 'I' for Inactive)
REMARK    1  A    between atoms: O_5  and  C_21
REMARK    2  A    between atoms: C_7  and  C_12
REMARK                            x       y       z     vdW  Elec       q    Type
REMARK                         _______ _______ _______ _____ _____    ______ ____
ROOT
ATOM      1  O   UNL     1     110.537 127.490 135.829  0.00  0.00    +0.000 OA
ATOM      2  O   UNL     1     108.013 127.523 136.020  0.00  0.00    +0.000 OA
ATOM      3  O   UNL     1     108.034 128.942 135.765  0.00  0.00    +0.000 OA
ATOM      4  O   UNL     1     110.495 130.327 135.326  0.00  0.00    +0.000 OA
ATOM      5  C   UNL     1     110.118 126.759 135.992  0.00  0.00    +0.000 C 
ATOM      6  C   UNL     1     109.261 126.766 136.057  0.00  0.00    +0.000 C 
ATOM      7  C   UNL     1     109.272 128.228 135.796  0.00  0.00    +0.000 A 
ATOM      8  C   UNL     1     110.094 128.221 135.733  0.00  0.00    +0.000 A 
ATOM      9  C   UNL     1     108.835 127.506 135.959  0.00  0.00    +0.000 C 
ATOM     10  C   UNL     1     110.502 128.920 135.576  0.00  0.00    +0.000 A 
ATOM     11  C   UNL     1     108.857 128.935 135.702  0.00  0.00    +0.000 A 
ATOM     12  C   UNL     1     109.265 129.634 135.546  0.00  0.00    +0.000 A 
ATOM     13  C   UNL     1     110.088 129.627 135.483  0.00  0.00    +0.000 A 
ATOM     14  C   UNL     1     111.324 128.913 135.514  0.00  0.00    +0.000 C 
ATOM     15  C   UNL     1     108.850 130.342 135.452  0.00  0.00    +0.000 C 
ENDROOT
BRANCH   5  17
ATOM     16  O   UNL     1     111.786 123.935 136.365  0.00  0.00    +0.000 OA
ATOM     17  C   UNL     1     110.535 126.053 136.085  0.00  0.00    +0.000 A 
ATOM     18  C   UNL     1     110.798 125.825 136.833  0.00  0.00    +0.000 A 
ATOM     19  C   UNL     1     110.689 125.575 135.430  0.00  0.00    +0.000 A 
ATOM     20  C   UNL     1     111.215 125.119 136.926  0.00  0.00    +0.000 A 
ATOM     21  C   UNL     1     111.106 124.869 135.524  0.00  0.00    +0.000 A 
ATOM     22  C   UNL     1     111.369 124.641 136.272  0.00  0.00    +0.000 A 
BRANCH  20  23
ATOM     23  O   UNL     1     111.478 124.891 137.674  0.00  0.00    +0.000 OA
ATOM     24  C   UNL     1     111.721 125.462 138.219  0.00  0.00    +0.000 C 
ENDBRANCH  20  23
ENDBRANCH   5  17
TORSDOF 2
ENDMDL
