MODEL 1
REMARK VINA RESULT:      -9.7      0.000      0.000
REMARK  Name = 44259460
REMARK  6 active torsions:
REMARK  status: ('A' for Active; 'I' for Inactive)
REMARK    1  A    between atoms: O_1  and  C_18
REMARK    2  A    between atoms: O_1  and  C_21
REMARK    3  A    between atoms: O_4  and  C_22
REMARK    4  A    between atoms: O_4  and  C_30
REMARK    5  A    between atoms: C_24  and  C_28
REMARK    6  A    between atoms: C_31  and  C_34
REMARK                            x       y       z     vdW  Elec       q    Type
REMARK                         _______ _______ _______ _____ _____    ______ ____
ROOT
ATOM      1  O   UNL     1     111.152 128.311 138.520  0.00  0.00    +0.000 OA
ENDROOT
BRANCH   1   6
ATOM      2  O   UNL     1     112.408 126.006 138.856  0.00  0.00    +0.000 OA
ATOM      3  O   UNL     1     112.450 128.362 137.000  0.00  0.00    +0.000 OA
ATOM      4  O   UNL     1     113.746 127.649 136.068  0.00  0.00    +0.000 OA
ATOM      5  O   UNL     1     115.024 124.491 137.033  0.00  0.00    +0.000 OA
ATOM      6  C   UNL     1     111.787 127.551 138.379  0.00  0.00    +0.000 A 
ATOM      7  C   UNL     1     111.773 126.766 138.998  0.00  0.00    +0.000 A 
ATOM      8  C   UNL     1     112.436 127.577 137.618  0.00  0.00    +0.000 A 
ATOM      9  C   UNL     1     113.071 126.817 137.477  0.00  0.00    +0.000 A 
ATOM     10  C   UNL     1     113.056 126.032 138.096  0.00  0.00    +0.000 A 
ATOM     11  C   UNL     1     113.741 126.858 136.680  0.00  0.00    +0.000 A 
ATOM     12  C   UNL     1     113.712 125.233 137.961  0.00  0.00    +0.000 A 
ATOM     13  C   UNL     1     114.405 126.071 136.526  0.00  0.00    +0.000 A 
ATOM     14  C   UNL     1     114.391 125.253 137.171  0.00  0.00    +0.000 A 
BRANCH   7  18
ATOM     15  O   UNL     1     110.874 127.709 142.207  0.00  0.00    +0.000 OA
ATOM     16  O   UNL     1     108.779 125.668 140.350  0.00  0.00    +0.000 OA
ATOM     17  O   UNL     1     109.177 126.663 142.039  0.00  0.00    +0.000 OA
ATOM     18  C   UNL     1     111.124 126.740 139.758  0.00  0.00    +0.000 A 
ATOM     19  C   UNL     1     110.276 126.217 139.674  0.00  0.00    +0.000 A 
ATOM     20  C   UNL     1     111.323 127.237 140.603  0.00  0.00    +0.000 A 
ATOM     21  C   UNL     1     110.674 127.211 141.363  0.00  0.00    +0.000 A 
ATOM     22  C   UNL     1     109.627 126.191 140.434  0.00  0.00    +0.000 A 
ATOM     23  C   UNL     1     109.826 126.689 141.279  0.00  0.00    +0.000 A 
ENDBRANCH   7  18
ENDBRANCH   1   6
BRANCH   1  30
ATOM     24  O   UNL     1     110.038 127.716 137.336  0.00  0.00    +0.000 OA
ATOM     25  O   UNL     1     108.961 130.490 136.955  0.00  0.00    +0.000 OA
ATOM     26  O   UNL     1     108.205 128.970 135.897  0.00  0.00    +0.000 OA
ATOM     27  C   UNL     1     110.056 129.400 137.738  0.00  0.00    +0.000 C 
ATOM     28  C   UNL     1     109.320 129.565 137.082  0.00  0.00    +0.000 C 
ATOM     29  C   UNL     1     108.942 128.805 136.553  0.00  0.00    +0.000 C 
ATOM     30  C   UNL     1     110.415 128.476 137.865  0.00  0.00    +0.000 C 
ATOM     31  C   UNL     1     109.301 127.881 136.680  0.00  0.00    +0.000 C 
BRANCH  31  33
ATOM     32  O   UNL     1     109.459 126.287 136.021  0.00  0.00    +0.000 OA
ATOM     33  C   UNL     1     108.923 127.121 136.151  0.00  0.00    +0.000 C 
ENDBRANCH  31  33
BRANCH  27  34
ATOM     34  O   UNL     1     110.434 130.160 138.267  0.00  0.00    +0.000 OA
BRANCH  34  39
ATOM     35  O   UNL     1     109.216 129.961 139.482  0.00  0.00    +0.000 OA
ATOM     36  O   UNL     1     111.483 131.324 139.510  0.00  0.00    +0.000 OA
ATOM     37  O   UNL     1     110.789 131.707 141.346  0.00  0.00    +0.000 OA
ATOM     38  O   UNL     1     109.047 130.925 141.940  0.00  0.00    +0.000 OA
ATOM     39  C   UNL     1     110.087 130.351 139.185  0.00  0.00    +0.000 C 
ATOM     40  C   UNL     1     110.612 130.933 139.807  0.00  0.00    +0.000 C 
ATOM     41  C   UNL     1     110.265 131.125 140.725  0.00  0.00    +0.000 C 
ATOM     42  C   UNL     1     109.394 130.734 141.022  0.00  0.00    +0.000 C 
ATOM     43  C   UNL     1     108.869 130.152 140.400  0.00  0.00    +0.000 C 
ATOM     44  C   UNL     1     107.998 129.761 140.697  0.00  0.00    +0.000 C 
ENDBRANCH  34  39
ENDBRANCH  27  34
ENDBRANCH   1  30
TORSDOF 6
ENDMDL
MODEL 2
REMARK VINA RESULT:      -9.5      2.353      5.692
REMARK  Name = 44259460
REMARK  6 active torsions:
REMARK  status: ('A' for Active; 'I' for Inactive)
REMARK    1  A    between atoms: O_1  and  C_18
REMARK    2  A    between atoms: O_1  and  C_21
REMARK    3  A    between atoms: O_4  and  C_22
REMARK    4  A    between atoms: O_4  and  C_30
REMARK    5  A    between atoms: C_24  and  C_28
REMARK    6  A    between atoms: C_31  and  C_34
REMARK                            x       y       z     vdW  Elec       q    Type
REMARK                         _______ _______ _______ _____ _____    ______ ____
ROOT
ATOM      1  O   UNL     1     111.508 130.529 141.139  0.00  0.00    +0.000 OA
ENDROOT
BRANCH   1   6
ATOM      2  O   UNL     1     111.961 129.836 143.652  0.00  0.00    +0.000 OA
ATOM      3  O   UNL     1     111.387 132.306 142.049  0.00  0.00    +0.000 OA
ATOM      4  O   UNL     1     111.451 133.297 143.488  0.00  0.00    +0.000 OA
ATOM      5  O   UNL     1     112.108 131.760 146.609  0.00  0.00    +0.000 OA
ATOM      6  C   UNL     1     111.639 130.594 142.128  0.00  0.00    +0.000 A 
ATOM      7  C   UNL     1     111.830 129.771 142.663  0.00  0.00    +0.000 A 
ATOM      8  C   UNL     1     111.578 131.483 142.583  0.00  0.00    +0.000 A 
ATOM      9  C   UNL     1     111.709 131.548 143.572  0.00  0.00    +0.000 A 
ATOM     10  C   UNL     1     111.900 130.725 144.107  0.00  0.00    +0.000 A 
ATOM     11  C   UNL     1     111.643 132.480 144.032  0.00  0.00    +0.000 A 
ATOM     12  C   UNL     1     112.039 130.777 145.138  0.00  0.00    +0.000 A 
ATOM     13  C   UNL     1     111.778 132.556 145.063  0.00  0.00    +0.000 A 
ATOM     14  C   UNL     1     111.977 131.699 145.619  0.00  0.00    +0.000 A 
BRANCH   7  18
ATOM     15  O   UNL     1     113.610 127.493 140.754  0.00  0.00    +0.000 OA
ATOM     16  O   UNL     1     110.415 126.717 141.843  0.00  0.00    +0.000 OA
ATOM     17  O   UNL     1     112.073 126.217 140.844  0.00  0.00    +0.000 OA
ATOM     18  C   UNL     1     111.891 128.882 142.208  0.00  0.00    +0.000 A 
ATOM     19  C   UNL     1     111.122 128.244 142.253  0.00  0.00    +0.000 A 
ATOM     20  C   UNL     1     112.720 128.632 141.708  0.00  0.00    +0.000 A 
ATOM     21  C   UNL     1     112.781 127.744 141.253  0.00  0.00    +0.000 A 
ATOM     22  C   UNL     1     111.183 127.356 141.798  0.00  0.00    +0.000 A 
ATOM     23  C   UNL     1     112.012 127.105 141.298  0.00  0.00    +0.000 A 
ENDBRANCH   7  18
ENDBRANCH   1   6
BRANCH   1  30
ATOM     24  O   UNL     1     109.786 130.609 141.311  0.00  0.00    +0.000 OA
ATOM     25  O   UNL     1     109.532 131.348 138.415  0.00  0.00    +0.000 OA
ATOM     26  O   UNL     1     107.895 131.181 139.552  0.00  0.00    +0.000 OA
ATOM     27  C   UNL     1     110.520 130.938 139.777  0.00  0.00    +0.000 C 
ATOM     28  C   UNL     1     109.617 131.101 139.380  0.00  0.00    +0.000 C 
ATOM     29  C   UNL     1     108.798 131.018 139.949  0.00  0.00    +0.000 C 
ATOM     30  C   UNL     1     110.605 130.692 140.742  0.00  0.00    +0.000 C 
ATOM     31  C   UNL     1     108.883 130.772 140.914  0.00  0.00    +0.000 C 
BRANCH  31  33
ATOM     32  O   UNL     1     108.070 131.035 142.421  0.00  0.00    +0.000 OA
ATOM     33  C   UNL     1     108.065 130.688 141.483  0.00  0.00    +0.000 C 
ENDBRANCH  31  33
BRANCH  27  34
ATOM     34  O   UNL     1     111.338 131.021 139.208  0.00  0.00    +0.000 OA
BRANCH  34  39
ATOM     35  O   UNL     1     111.091 129.424 138.587  0.00  0.00    +0.000 OA
ATOM     36  O   UNL     1     113.159 131.062 138.381  0.00  0.00    +0.000 OA
ATOM     37  O   UNL     1     113.822 129.484 137.346  0.00  0.00    +0.000 OA
ATOM     38  O   UNL     1     112.665 127.866 137.138  0.00  0.00    +0.000 OA
ATOM     39  C   UNL     1     111.670 130.233 138.691  0.00  0.00    +0.000 C 
ATOM     40  C   UNL     1     112.580 130.253 138.277  0.00  0.00    +0.000 C 
ATOM     41  C   UNL     1     112.912 129.464 137.760  0.00  0.00    +0.000 C 
ATOM     42  C   UNL     1     112.333 128.655 137.656  0.00  0.00    +0.000 C 
ATOM     43  C   UNL     1     111.423 128.635 138.069  0.00  0.00    +0.000 C 
ATOM     44  C   UNL     1     110.844 127.826 137.966  0.00  0.00    +0.000 C 
ENDBRANCH  34  39
ENDBRANCH  27  34
ENDBRANCH   1  30
TORSDOF 6
ENDMDL
MODEL 3
REMARK VINA RESULT:      -9.5      1.584      2.698
REMARK  Name = 44259460
REMARK  6 active torsions:
REMARK  status: ('A' for Active; 'I' for Inactive)
REMARK    1  A    between atoms: O_1  and  C_18
REMARK    2  A    between atoms: O_1  and  C_21
REMARK    3  A    between atoms: O_4  and  C_22
REMARK    4  A    between atoms: O_4  and  C_30
REMARK    5  A    between atoms: C_24  and  C_28
REMARK    6  A    between atoms: C_31  and  C_34
REMARK                            x       y       z     vdW  Elec       q    Type
REMARK                         _______ _______ _______ _____ _____    ______ ____
ROOT
ATOM      1  O   UNL     1     111.163 127.950 138.376  0.00  0.00    +0.000 OA
ENDROOT
BRANCH   1   6
ATOM      2  O   UNL     1     113.611 126.958 138.523  0.00  0.00    +0.000 OA
ATOM      3  O   UNL     1     110.952 126.266 137.319  0.00  0.00    +0.000 OA
ATOM      4  O   UNL     1     111.603 124.790 136.643  0.00  0.00    +0.000 OA
ATOM      5  O   UNL     1     115.010 124.000 137.196  0.00  0.00    +0.000 OA
ATOM      6  C   UNL     1     111.944 127.339 138.249  0.00  0.00    +0.000 A 
ATOM      7  C   UNL     1     112.831 127.569 138.650  0.00  0.00    +0.000 A 
ATOM      8  C   UNL     1     111.839 126.496 137.720  0.00  0.00    +0.000 A 
ATOM      9  C   UNL     1     112.619 125.885 137.593  0.00  0.00    +0.000 A 
ATOM     10  C   UNL     1     113.506 126.115 137.994  0.00  0.00    +0.000 A 
ATOM     11  C   UNL     1     112.494 125.011 137.040  0.00  0.00    +0.000 A 
ATOM     12  C   UNL     1     114.329 125.488 137.870  0.00  0.00    +0.000 A 
ATOM     13  C   UNL     1     113.303 124.369 136.903  0.00  0.00    +0.000 A 
ATOM     14  C   UNL     1     114.227 124.609 137.321  0.00  0.00    +0.000 A 
BRANCH   7  18
ATOM     15  O   UNL     1     113.760 130.901 138.830  0.00  0.00    +0.000 OA
ATOM     16  O   UNL     1     112.534 129.291 141.641  0.00  0.00    +0.000 OA
ATOM     17  O   UNL     1     113.253 130.938 140.764  0.00  0.00    +0.000 OA
ATOM     18  C   UNL     1     112.936 128.412 139.179  0.00  0.00    +0.000 A 
ATOM     19  C   UNL     1     112.682 128.430 140.146  0.00  0.00    +0.000 A 
ATOM     20  C   UNL     1     113.295 129.235 138.740  0.00  0.00    +0.000 A 
ATOM     21  C   UNL     1     113.401 130.078 139.269  0.00  0.00    +0.000 A 
ATOM     22  C   UNL     1     112.788 129.272 140.674  0.00  0.00    +0.000 A 
ATOM     23  C   UNL     1     113.147 130.096 140.236  0.00  0.00    +0.000 A 
ENDBRANCH   7  18
ENDBRANCH   1   6
BRANCH   1  30
ATOM     24  O   UNL     1     111.301 128.540 136.754  0.00  0.00    +0.000 OA
ATOM     25  O   UNL     1     108.505 129.617 136.907  0.00  0.00    +0.000 OA
ATOM     26  O   UNL     1     109.575 129.847 135.233  0.00  0.00    +0.000 OA
ATOM     27  C   UNL     1     109.834 128.783 137.642  0.00  0.00    +0.000 C 
ATOM     28  C   UNL     1     109.437 129.258 136.856  0.00  0.00    +0.000 C 
ATOM     29  C   UNL     1     109.972 129.373 136.019  0.00  0.00    +0.000 C 
ATOM     30  C   UNL     1     110.766 128.424 137.591  0.00  0.00    +0.000 C 
ATOM     31  C   UNL     1     110.904 129.014 135.968  0.00  0.00    +0.000 C 
BRANCH  31  33
ATOM     32  O   UNL     1     112.385 128.808 135.094  0.00  0.00    +0.000 OA
ATOM     33  C   UNL     1     111.439 129.130 135.131  0.00  0.00    +0.000 C 
ENDBRANCH  31  33
BRANCH  27  34
ATOM     34  O   UNL     1     109.299 128.668 138.479  0.00  0.00    +0.000 OA
BRANCH  34  39
ATOM     35  O   UNL     1     109.702 130.270 138.998  0.00  0.00    +0.000 OA
ATOM     36  O   UNL     1     108.679 128.224 140.327  0.00  0.00    +0.000 OA
ATOM     37  O   UNL     1     108.772 129.604 141.772  0.00  0.00    +0.000 OA
ATOM     38  O   UNL     1     109.484 131.429 141.367  0.00  0.00    +0.000 OA
ATOM     39  C   UNL     1     109.346 129.358 139.201  0.00  0.00    +0.000 C 
ATOM     40  C   UNL     1     109.036 129.136 140.125  0.00  0.00    +0.000 C 
ATOM     41  C   UNL     1     109.082 129.826 140.847  0.00  0.00    +0.000 C 
ATOM     42  C   UNL     1     109.438 130.738 140.645  0.00  0.00    +0.000 C 
ATOM     43  C   UNL     1     109.748 130.961 139.721  0.00  0.00    +0.000 C 
ATOM     44  C   UNL     1     110.104 131.873 139.518  0.00  0.00    +0.000 C 
ENDBRANCH  34  39
ENDBRANCH  27  34
ENDBRANCH   1  30
TORSDOF 6
ENDMDL
MODEL 4
REMARK VINA RESULT:      -9.5      1.946      5.109
REMARK  Name = 44259460
REMARK  6 active torsions:
REMARK  status: ('A' for Active; 'I' for Inactive)
REMARK    1  A    between atoms: O_1  and  C_18
REMARK    2  A    between atoms: O_1  and  C_21
REMARK    3  A    between atoms: O_4  and  C_22
REMARK    4  A    between atoms: O_4  and  C_30
REMARK    5  A    between atoms: C_24  and  C_28
REMARK    6  A    between atoms: C_31  and  C_34
REMARK                            x       y       z     vdW  Elec       q    Type
REMARK                         _______ _______ _______ _____ _____    ______ ____
ROOT
ATOM      1  O   UNL     1     111.019 129.499 139.347  0.00  0.00    +0.000 OA
ENDROOT
BRANCH   1   6
ATOM      2  O   UNL     1     111.500 128.456 141.731  0.00  0.00    +0.000 OA
ATOM      3  O   UNL     1     110.999 131.141 140.489  0.00  0.00    +0.000 OA
ATOM      4  O   UNL     1     111.142 131.925 142.046  0.00  0.00    +0.000 OA
ATOM      5  O   UNL     1     111.805 129.956 144.912  0.00  0.00    +0.000 OA
ATOM      6  C   UNL     1     111.176 129.425 140.332  0.00  0.00    +0.000 A 
ATOM      7  C   UNL     1     111.343 128.530 140.746  0.00  0.00    +0.000 A 
ATOM      8  C   UNL     1     111.166 130.246 140.903  0.00  0.00    +0.000 A 
ATOM      9  C   UNL     1     111.323 130.172 141.888  0.00  0.00    +0.000 A 
ATOM     10  C   UNL     1     111.490 129.277 142.302  0.00  0.00    +0.000 A 
ATOM     11  C   UNL     1     111.310 131.036 142.470  0.00  0.00    +0.000 A 
ATOM     12  C   UNL     1     111.656 129.184 143.326  0.00  0.00    +0.000 A 
ATOM     13  C   UNL     1     111.473 130.966 143.497  0.00  0.00    +0.000 A 
ATOM     14  C   UNL     1     111.647 130.034 143.928  0.00  0.00    +0.000 A 
BRANCH   7  18
ATOM     15  O   UNL     1     113.104 126.064 139.068  0.00  0.00    +0.000 OA
ATOM     16  O   UNL     1     109.641 126.072 138.997  0.00  0.00    +0.000 OA
ATOM     17  O   UNL     1     111.383 125.247 138.462  0.00  0.00    +0.000 OA
ATOM     18  C   UNL     1     111.353 127.709 140.175  0.00  0.00    +0.000 A 
ATOM     19  C   UNL     1     110.492 127.301 139.871  0.00  0.00    +0.000 A 
ATOM     20  C   UNL     1     112.224 127.297 139.907  0.00  0.00    +0.000 A 
ATOM     21  C   UNL     1     112.234 126.476 139.336  0.00  0.00    +0.000 A 
ATOM     22  C   UNL     1     110.502 126.480 139.300  0.00  0.00    +0.000 A 
ATOM     23  C   UNL     1     111.373 126.068 139.033  0.00  0.00    +0.000 A 
ENDBRANCH   7  18
ENDBRANCH   1   6
BRANCH   1  30
ATOM     24  O   UNL     1     112.634 130.065 139.080  0.00  0.00    +0.000 OA
ATOM     25  O   UNL     1     111.814 131.139 136.401  0.00  0.00    +0.000 OA
ATOM     26  O   UNL     1     113.702 131.346 137.027  0.00  0.00    +0.000 OA
ATOM     27  C   UNL     1     111.416 130.319 137.874  0.00  0.00    +0.000 C 
ATOM     28  C   UNL     1     112.087 130.781 137.294  0.00  0.00    +0.000 C 
ATOM     29  C   UNL     1     113.031 130.885 137.607  0.00  0.00    +0.000 C 
ATOM     30  C   UNL     1     111.689 129.961 138.767  0.00  0.00    +0.000 C 
ATOM     31  C   UNL     1     113.304 130.527 138.500  0.00  0.00    +0.000 C 
BRANCH  31  33
ATOM     32  O   UNL     1     114.435 130.907 139.755  0.00  0.00    +0.000 OA
ATOM     33  C   UNL     1     114.249 130.630 138.813  0.00  0.00    +0.000 C 
ENDBRANCH  31  33
BRANCH  27  34
ATOM     34  O   UNL     1     110.472 130.215 137.562  0.00  0.00    +0.000 OA
BRANCH  34  39
ATOM     35  O   UNL     1     110.928 128.819 136.643  0.00  0.00    +0.000 OA
ATOM     36  O   UNL     1     108.562 129.937 137.037  0.00  0.00    +0.000 OA
ATOM     37  O   UNL     1     108.063 128.402 135.856  0.00  0.00    +0.000 OA
ATOM     38  O   UNL     1     109.474 127.145 135.199  0.00  0.00    +0.000 OA
ATOM     39  C   UNL     1     110.223 129.448 136.971  0.00  0.00    +0.000 C 
ATOM     40  C   UNL     1     109.268 129.308 136.709  0.00  0.00    +0.000 C 
ATOM     41  C   UNL     1     109.018 128.541 136.118  0.00  0.00    +0.000 C 
ATOM     42  C   UNL     1     109.723 127.913 135.790  0.00  0.00    +0.000 C 
ATOM     43  C   UNL     1     110.678 128.052 136.052  0.00  0.00    +0.000 C 
ATOM     44  C   UNL     1     111.384 127.423 135.724  0.00  0.00    +0.000 C 
ENDBRANCH  34  39
ENDBRANCH  27  34
ENDBRANCH   1  30
TORSDOF 6
ENDMDL
MODEL 5
REMARK VINA RESULT:      -9.3      2.041      3.827
REMARK  Name = 44259460
REMARK  6 active torsions:
REMARK  status: ('A' for Active; 'I' for Inactive)
REMARK    1  A    between atoms: O_1  and  C_18
REMARK    2  A    between atoms: O_1  and  C_21
REMARK    3  A    between atoms: O_4  and  C_22
REMARK    4  A    between atoms: O_4  and  C_30
REMARK    5  A    between atoms: C_24  and  C_28
REMARK    6  A    between atoms: C_31  and  C_34
REMARK                            x       y       z     vdW  Elec       q    Type
REMARK                         _______ _______ _______ _____ _____    ______ ____
ROOT
ATOM      1  O   UNL     1     111.856 128.522 137.743  0.00  0.00    +0.000 OA
ENDROOT
BRANCH   1   6
ATOM      2  O   UNL     1     113.495 130.580 137.464  0.00  0.00    +0.000 OA
ATOM      3  O   UNL     1     112.661 128.125 135.956  0.00  0.00    +0.000 OA
ATOM      4  O   UNL     1     113.744 128.522 134.642  0.00  0.00    +0.000 OA
ATOM      5  O   UNL     1     115.709 131.459 134.858  0.00  0.00    +0.000 OA
ATOM      6  C   UNL     1     112.536 129.142 137.352  0.00  0.00    +0.000 A 
ATOM      7  C   UNL     1     112.814 129.960 137.855  0.00  0.00    +0.000 A 
ATOM      8  C   UNL     1     112.939 128.943 136.459  0.00  0.00    +0.000 A 
ATOM      9  C   UNL     1     113.619 129.563 136.068  0.00  0.00    +0.000 A 
ATOM     10  C   UNL     1     113.897 130.382 136.570  0.00  0.00    +0.000 A 
ATOM     11  C   UNL     1     114.030 129.343 135.136  0.00  0.00    +0.000 A 
ATOM     12  C   UNL     1     114.605 131.037 136.176  0.00  0.00    +0.000 A 
ATOM     13  C   UNL     1     114.739 129.984 134.722  0.00  0.00    +0.000 A 
ATOM     14  C   UNL     1     115.029 130.837 135.246  0.00  0.00    +0.000 A 
BRANCH   7  18
ATOM     15  O   UNL     1     110.406 131.545 139.775  0.00  0.00    +0.000 OA
ATOM     16  O   UNL     1     112.808 129.567 141.297  0.00  0.00    +0.000 OA
ATOM     17  O   UNL     1     111.204 130.755 141.429  0.00  0.00    +0.000 OA
ATOM     18  C   UNL     1     112.412 130.159 138.749  0.00  0.00    +0.000 A 
ATOM     19  C   UNL     1     112.811 129.764 139.576  0.00  0.00    +0.000 A 
ATOM     20  C   UNL     1     111.610 130.753 138.815  0.00  0.00    +0.000 A 
ATOM     21  C   UNL     1     111.208 130.951 139.709  0.00  0.00    +0.000 A 
ATOM     22  C   UNL     1     112.409 129.962 140.469  0.00  0.00    +0.000 A 
ATOM     23  C   UNL     1     111.607 130.556 140.536  0.00  0.00    +0.000 A 
ENDBRANCH   7  18
ENDBRANCH   1   6
BRANCH   1  30
ATOM     24  O   UNL     1     110.622 129.131 136.691  0.00  0.00    +0.000 OA
ATOM     25  O   UNL     1     108.967 126.684 137.215  0.00  0.00    +0.000 OA
ATOM     26  O   UNL     1     108.285 128.109 135.989  0.00  0.00    +0.000 OA
ATOM     27  C   UNL     1     110.412 127.603 137.479  0.00  0.00    +0.000 C 
ATOM     28  C   UNL     1     109.519 127.500 137.040  0.00  0.00    +0.000 C 
ATOM     29  C   UNL     1     109.178 128.212 136.427  0.00  0.00    +0.000 C 
ATOM     30  C   UNL     1     110.963 128.419 137.304  0.00  0.00    +0.000 C 
ATOM     31  C   UNL     1     109.729 129.028 136.253  0.00  0.00    +0.000 C 
BRANCH  31  33
ATOM     32  O   UNL     1     109.921 130.574 135.496  0.00  0.00    +0.000 OA
ATOM     33  C   UNL     1     109.388 129.740 135.640  0.00  0.00    +0.000 C 
ENDBRANCH  31  33
BRANCH  27  34
ATOM     34  O   UNL     1     110.753 126.891 138.092  0.00  0.00    +0.000 OA
BRANCH  34  39
ATOM     35  O   UNL     1     109.834 127.515 139.421  0.00  0.00    +0.000 OA
ATOM     36  O   UNL     1     111.936 125.909 139.371  0.00  0.00    +0.000 OA
ATOM     37  O   UNL     1     111.608 126.042 141.340  0.00  0.00    +0.000 OA
ATOM     38  O   UNL     1     110.098 127.158 142.029  0.00  0.00    +0.000 OA
ATOM     39  C   UNL     1     110.589 126.957 139.076  0.00  0.00    +0.000 C 
ATOM     40  C   UNL     1     111.181 126.466 139.716  0.00  0.00    +0.000 C 
ATOM     41  C   UNL     1     111.017 126.533 140.700  0.00  0.00    +0.000 C 
ATOM     42  C   UNL     1     110.262 127.091 141.045  0.00  0.00    +0.000 C 
ATOM     43  C   UNL     1     109.671 127.582 140.405  0.00  0.00    +0.000 C 
ATOM     44  C   UNL     1     108.916 128.140 140.750  0.00  0.00    +0.000 C 
ENDBRANCH  34  39
ENDBRANCH  27  34
ENDBRANCH   1  30
TORSDOF 6
ENDMDL
MODEL 6
REMARK VINA RESULT:      -9.3      1.841      5.702
REMARK  Name = 44259460
REMARK  6 active torsions:
REMARK  status: ('A' for Active; 'I' for Inactive)
REMARK    1  A    between atoms: O_1  and  C_18
REMARK    2  A    between atoms: O_1  and  C_21
REMARK    3  A    between atoms: O_4  and  C_22
REMARK    4  A    between atoms: O_4  and  C_30
REMARK    5  A    between atoms: C_24  and  C_28
REMARK    6  A    between atoms: C_31  and  C_34
REMARK                            x       y       z     vdW  Elec       q    Type
REMARK                         _______ _______ _______ _____ _____    ______ ____
ROOT
ATOM      1  O   UNL     1     111.474 128.410 137.114  0.00  0.00    +0.000 OA
ENDROOT
BRANCH   1   6
ATOM      2  O   UNL     1     109.809 129.585 138.801  0.00  0.00    +0.000 OA
ATOM      3  O   UNL     1     110.632 129.779 135.923  0.00  0.00    +0.000 OA
ATOM      4  O   UNL     1     109.516 131.098 135.656  0.00  0.00    +0.000 OA
ATOM      5  O   UNL     1     107.528 132.243 138.353  0.00  0.00    +0.000 OA
ATOM      6  C   UNL     1     110.778 129.030 137.478  0.00  0.00    +0.000 A 
ATOM      7  C   UNL     1     110.504 128.965 138.437  0.00  0.00    +0.000 A 
ATOM      8  C   UNL     1     110.358 129.714 136.882  0.00  0.00    +0.000 A 
ATOM      9  C   UNL     1     109.663 130.334 137.246  0.00  0.00    +0.000 A 
ATOM     10  C   UNL     1     109.388 130.270 138.206  0.00  0.00    +0.000 A 
ATOM     11  C   UNL     1     109.234 131.042 136.614  0.00  0.00    +0.000 A 
ATOM     12  C   UNL     1     108.665 130.909 138.599  0.00  0.00    +0.000 A 
ATOM     13  C   UNL     1     108.509 131.692 136.986  0.00  0.00    +0.000 A 
ATOM     14  C   UNL     1     108.223 131.624 137.985  0.00  0.00    +0.000 A 
BRANCH   7  18
ATOM     15  O   UNL     1     110.736 125.693 139.549  0.00  0.00    +0.000 OA
ATOM     16  O   UNL     1     112.795 128.130 140.898  0.00  0.00    +0.000 OA
ATOM     17  O   UNL     1     112.186 126.227 140.819  0.00  0.00    +0.000 OA
ATOM     18  C   UNL     1     110.924 128.281 139.033  0.00  0.00    +0.000 A 
ATOM     19  C   UNL     1     111.649 128.548 139.668  0.00  0.00    +0.000 A 
ATOM     20  C   UNL     1     110.620 127.329 138.993  0.00  0.00    +0.000 A 
ATOM     21  C   UNL     1     111.041 126.644 139.588  0.00  0.00    +0.000 A 
ATOM     22  C   UNL     1     112.070 127.863 140.263  0.00  0.00    +0.000 A 
ATOM     23  C   UNL     1     111.766 126.912 140.223  0.00  0.00    +0.000 A 
ENDBRANCH   7  18
ENDBRANCH   1   6
BRANCH   1  30
ATOM     24  O   UNL     1     112.721 129.604 137.249  0.00  0.00    +0.000 OA
ATOM     25  O   UNL     1     114.324 128.164 135.161  0.00  0.00    +0.000 OA
ATOM     26  O   UNL     1     115.037 129.838 135.992  0.00  0.00    +0.000 OA
ATOM     27  C   UNL     1     112.899 128.287 136.138  0.00  0.00    +0.000 C 
ATOM     28  C   UNL     1     113.790 128.644 135.857  0.00  0.00    +0.000 C 
ATOM     29  C   UNL     1     114.146 129.481 136.272  0.00  0.00    +0.000 C 
ATOM     30  C   UNL     1     112.365 128.767 136.833  0.00  0.00    +0.000 C 
ATOM     31  C   UNL     1     113.612 129.961 136.968  0.00  0.00    +0.000 C 
BRANCH  31  33
ATOM     32  O   UNL     1     113.446 131.263 138.098  0.00  0.00    +0.000 OA
ATOM     33  C   UNL     1     113.968 130.798 137.383  0.00  0.00    +0.000 C 
ENDBRANCH  31  33
BRANCH  27  34
ATOM     34  O   UNL     1     112.543 127.450 135.722  0.00  0.00    +0.000 OA
BRANCH  34  39
ATOM     35  O   UNL     1     113.456 126.454 136.805  0.00  0.00    +0.000 OA
ATOM     36  O   UNL     1     111.324 125.912 135.334  0.00  0.00    +0.000 OA
ATOM     37  O   UNL     1     111.628 124.147 136.224  0.00  0.00    +0.000 OA
ATOM     38  O   UNL     1     113.151 123.919 137.501  0.00  0.00    +0.000 OA
ATOM     39  C   UNL     1     112.695 126.567 136.167  0.00  0.00    +0.000 C 
ATOM     40  C   UNL     1     112.086 125.798 135.973  0.00  0.00    +0.000 C 
ATOM     41  C   UNL     1     112.238 124.916 136.418  0.00  0.00    +0.000 C 
ATOM     42  C   UNL     1     112.999 124.802 137.056  0.00  0.00    +0.000 C 
ATOM     43  C   UNL     1     113.608 125.571 137.250  0.00  0.00    +0.000 C 
ATOM     44  C   UNL     1     114.369 125.457 137.888  0.00  0.00    +0.000 C 
ENDBRANCH  34  39
ENDBRANCH  27  34
ENDBRANCH   1  30
TORSDOF 6
ENDMDL
MODEL 7
REMARK VINA RESULT:      -9.3      1.800      4.818
REMARK  Name = 44259460
REMARK  6 active torsions:
REMARK  status: ('A' for Active; 'I' for Inactive)
REMARK    1  A    between atoms: O_1  and  C_18
REMARK    2  A    between atoms: O_1  and  C_21
REMARK    3  A    between atoms: O_4  and  C_22
REMARK    4  A    between atoms: O_4  and  C_30
REMARK    5  A    between atoms: C_24  and  C_28
REMARK    6  A    between atoms: C_31  and  C_34
REMARK                            x       y       z     vdW  Elec       q    Type
REMARK                         _______ _______ _______ _____ _____    ______ ____
ROOT
ATOM      1  O   UNL     1     111.539 128.419 138.321  0.00  0.00    +0.000 OA
ENDROOT
BRANCH   1   6
ATOM      2  O   UNL     1     112.061 127.355 140.687  0.00  0.00    +0.000 OA
ATOM      3  O   UNL     1     110.943 129.891 139.537  0.00  0.00    +0.000 OA
ATOM      4  O   UNL     1     110.705 130.552 141.138  0.00  0.00    +0.000 OA
ATOM      5  O   UNL     1     111.616 128.612 143.956  0.00  0.00    +0.000 OA
ATOM      6  C   UNL     1     111.614 128.310 139.312  0.00  0.00    +0.000 A 
ATOM      7  C   UNL     1     111.986 127.465 139.696  0.00  0.00    +0.000 A 
ATOM      8  C   UNL     1     111.316 129.046 139.920  0.00  0.00    +0.000 A 
ATOM      9  C   UNL     1     111.391 128.936 140.911  0.00  0.00    +0.000 A 
ATOM     10  C   UNL     1     111.763 128.091 141.295  0.00  0.00    +0.000 A 
ATOM     11  C   UNL     1     111.076 129.712 141.532  0.00  0.00    +0.000 A 
ATOM     12  C   UNL     1     111.848 127.963 142.325  0.00  0.00    +0.000 A 
ATOM     13  C   UNL     1     111.151 129.605 142.566  0.00  0.00    +0.000 A 
ATOM     14  C   UNL     1     111.539 128.725 142.965  0.00  0.00    +0.000 A 
BRANCH   7  18
ATOM     15  O   UNL     1     114.534 125.661 138.192  0.00  0.00    +0.000 OA
ATOM     16  O   UNL     1     111.227 124.852 137.551  0.00  0.00    +0.000 OA
ATOM     17  O   UNL     1     113.178 124.521 137.264  0.00  0.00    +0.000 OA
ATOM     18  C   UNL     1     112.284 126.729 139.088  0.00  0.00    +0.000 A 
ATOM     19  C   UNL     1     111.607 126.158 138.623  0.00  0.00    +0.000 A 
ATOM     20  C   UNL     1     113.260 126.563 138.944  0.00  0.00    +0.000 A 
ATOM     21  C   UNL     1     113.558 125.827 138.336  0.00  0.00    +0.000 A 
ATOM     22  C   UNL     1     111.905 125.423 138.015  0.00  0.00    +0.000 A 
ATOM     23  C   UNL     1     112.880 125.257 137.872  0.00  0.00    +0.000 A 
ENDBRANCH   7  18
ENDBRANCH   1   6
BRANCH   1  30
ATOM     24  O   UNL     1     112.892 129.499 138.338  0.00  0.00    +0.000 OA
ATOM     25  O   UNL     1     112.675 129.818 135.363  0.00  0.00    +0.000 OA
ATOM     26  O   UNL     1     114.100 130.792 136.371  0.00  0.00    +0.000 OA
ATOM     27  C   UNL     1     112.107 129.118 136.842  0.00  0.00    +0.000 C 
ATOM     28  C   UNL     1     112.747 129.712 136.354  0.00  0.00    +0.000 C 
ATOM     29  C   UNL     1     113.460 130.199 136.859  0.00  0.00    +0.000 C 
ATOM     30  C   UNL     1     112.179 129.012 137.834  0.00  0.00    +0.000 C 
ATOM     31  C   UNL     1     113.533 130.093 137.850  0.00  0.00    +0.000 C 
BRANCH  31  33
ATOM     32  O   UNL     1     114.076 130.884 139.292  0.00  0.00    +0.000 OA
ATOM     33  C   UNL     1     114.245 130.580 138.355  0.00  0.00    +0.000 C 
ENDBRANCH  31  33
BRANCH  27  34
ATOM     34  O   UNL     1     111.394 128.631 136.338  0.00  0.00    +0.000 OA
BRANCH  34  39
ATOM     35  O   UNL     1     110.354 130.015 136.381  0.00  0.00    +0.000 OA
ATOM     36  O   UNL     1     109.830 127.471 135.882  0.00  0.00    +0.000 OA
ATOM     37  O   UNL     1     108.008 128.275 135.697  0.00  0.00    +0.000 OA
ATOM     38  O   UNL     1     107.750 130.240 135.968  0.00  0.00    +0.000 OA
ATOM     39  C   UNL     1     110.483 129.033 136.245  0.00  0.00    +0.000 C 
ATOM     40  C   UNL     1     109.701 128.453 136.017  0.00  0.00    +0.000 C 
ATOM     41  C   UNL     1     108.790 128.855 135.925  0.00  0.00    +0.000 C 
ATOM     42  C   UNL     1     108.661 129.837 136.061  0.00  0.00    +0.000 C 
ATOM     43  C   UNL     1     109.443 130.418 136.289  0.00  0.00    +0.000 C 
ATOM     44  C   UNL     1     109.314 131.400 136.424  0.00  0.00    +0.000 C 
ENDBRANCH  34  39
ENDBRANCH  27  34
ENDBRANCH   1  30
TORSDOF 6
ENDMDL
MODEL 8
REMARK VINA RESULT:      -9.2      2.617      6.676
REMARK  Name = 44259460
REMARK  6 active torsions:
REMARK  status: ('A' for Active; 'I' for Inactive)
REMARK    1  A    between atoms: O_1  and  C_18
REMARK    2  A    between atoms: O_1  and  C_21
REMARK    3  A    between atoms: O_4  and  C_22
REMARK    4  A    between atoms: O_4  and  C_30
REMARK    5  A    between atoms: C_24  and  C_28
REMARK    6  A    between atoms: C_31  and  C_34
REMARK                            x       y       z     vdW  Elec       q    Type
REMARK                         _______ _______ _______ _____ _____    ______ ____
ROOT
ATOM      1  O   UNL     1     111.086 129.113 142.199  0.00  0.00    +0.000 OA
ENDROOT
BRANCH   1   6
ATOM      2  O   UNL     1     110.124 131.366 143.200  0.00  0.00    +0.000 OA
ATOM      3  O   UNL     1     111.960 129.132 143.997  0.00  0.00    +0.000 OA
ATOM      4  O   UNL     1     112.247 129.877 145.554  0.00  0.00    +0.000 OA
ATOM      5  O   UNL     1     110.645 132.940 146.317  0.00  0.00    +0.000 OA
ATOM      6  C   UNL     1     110.911 129.867 142.832  0.00  0.00    +0.000 A 
ATOM      7  C   UNL     1     110.299 130.612 142.566  0.00  0.00    +0.000 A 
ATOM      8  C   UNL     1     111.348 129.877 143.731  0.00  0.00    +0.000 A 
ATOM      9  C   UNL     1     111.174 130.631 144.365  0.00  0.00    +0.000 A 
ATOM     10  C   UNL     1     110.562 131.375 144.099  0.00  0.00    +0.000 A 
ATOM     11  C   UNL     1     111.637 130.626 145.298  0.00  0.00    +0.000 A 
ATOM     12  C   UNL     1     110.370 132.168 144.748  0.00  0.00    +0.000 A 
ATOM     13  C   UNL     1     111.459 131.409 145.963  0.00  0.00    +0.000 A 
ATOM     14  C   UNL     1     110.822 132.185 145.686  0.00  0.00    +0.000 A 
BRANCH   7  18
ATOM     15  O   UNL     1     107.799 129.471 140.458  0.00  0.00    +0.000 OA
ATOM     16  O   UNL     1     110.175 131.699 139.279  0.00  0.00    +0.000 OA
ATOM     17  O   UNL     1     108.550 130.575 138.969  0.00  0.00    +0.000 OA
ATOM     18  C   UNL     1     109.862 130.603 141.667  0.00  0.00    +0.000 A 
ATOM     19  C   UNL     1     110.237 131.155 140.923  0.00  0.00    +0.000 A 
ATOM     20  C   UNL     1     109.049 130.041 141.512  0.00  0.00    +0.000 A 
ATOM     21  C   UNL     1     108.612 130.032 140.613  0.00  0.00    +0.000 A 
ATOM     22  C   UNL     1     109.800 131.146 140.024  0.00  0.00    +0.000 A 
ATOM     23  C   UNL     1     108.987 130.585 139.869  0.00  0.00    +0.000 A 
ENDBRANCH   7  18
ENDBRANCH   1   6
BRANCH   1  30
ATOM     24  O   UNL     1     112.598 129.800 141.707  0.00  0.00    +0.000 OA
ATOM     25  O   UNL     1     113.475 127.125 140.670  0.00  0.00    +0.000 OA
ATOM     26  O   UNL     1     114.695 128.704 140.524  0.00  0.00    +0.000 OA
ATOM     27  C   UNL     1     112.280 128.119 141.435  0.00  0.00    +0.000 C 
ATOM     28  C   UNL     1     113.183 128.017 141.016  0.00  0.00    +0.000 C 
ATOM     29  C   UNL     1     113.793 128.806 140.943  0.00  0.00    +0.000 C 
ATOM     30  C   UNL     1     111.988 129.011 141.780  0.00  0.00    +0.000 C 
ATOM     31  C   UNL     1     113.500 129.698 141.288  0.00  0.00    +0.000 C 
BRANCH  31  33
ATOM     32  O   UNL     1     113.861 131.353 141.649  0.00  0.00    +0.000 OA
ATOM     33  C   UNL     1     114.110 130.487 141.215  0.00  0.00    +0.000 C 
ENDBRANCH  31  33
BRANCH  27  34
ATOM     34  O   UNL     1     111.671 127.330 141.508  0.00  0.00    +0.000 OA
BRANCH  34  39
ATOM     35  O   UNL     1     111.125 127.581 139.883  0.00  0.00    +0.000 OA
ATOM     36  O   UNL     1     110.211 125.993 141.792  0.00  0.00    +0.000 OA
ATOM     37  O   UNL     1     108.935 125.574 140.310  0.00  0.00    +0.000 OA
ATOM     38  O   UNL     1     109.119 126.493 138.543  0.00  0.00    +0.000 OA
ATOM     39  C   UNL     1     111.033 127.121 140.766  0.00  0.00    +0.000 C 
ATOM     40  C   UNL     1     110.303 126.452 140.909  0.00  0.00    +0.000 C 
ATOM     41  C   UNL     1     109.665 126.243 140.168  0.00  0.00    +0.000 C 
ATOM     42  C   UNL     1     109.757 126.703 139.284  0.00  0.00    +0.000 C 
ATOM     43  C   UNL     1     110.487 127.371 139.142  0.00  0.00    +0.000 C 
ATOM     44  C   UNL     1     110.578 127.831 138.259  0.00  0.00    +0.000 C 
ENDBRANCH  34  39
ENDBRANCH  27  34
ENDBRANCH   1  30
TORSDOF 6
ENDMDL
MODEL 9
REMARK VINA RESULT:      -9.2      1.647      2.713
REMARK  Name = 44259460
REMARK  6 active torsions:
REMARK  status: ('A' for Active; 'I' for Inactive)
REMARK    1  A    between atoms: O_1  and  C_18
REMARK    2  A    between atoms: O_1  and  C_21
REMARK    3  A    between atoms: O_4  and  C_22
REMARK    4  A    between atoms: O_4  and  C_30
REMARK    5  A    between atoms: C_24  and  C_28
REMARK    6  A    between atoms: C_31  and  C_34
REMARK                            x       y       z     vdW  Elec       q    Type
REMARK                         _______ _______ _______ _____ _____    ______ ____
ROOT
ATOM      1  O   UNL     1     110.673 128.421 138.605  0.00  0.00    +0.000 OA
ENDROOT
BRANCH   1   6
ATOM      2  O   UNL     1     111.453 125.895 138.714  0.00  0.00    +0.000 OA
ATOM      3  O   UNL     1     110.498 127.888 136.685  0.00  0.00    +0.000 OA
ATOM      4  O   UNL     1     110.633 126.702 135.407  0.00  0.00    +0.000 OA
ATOM      5  O   UNL     1     111.754 123.438 136.196  0.00  0.00    +0.000 OA
ATOM      6  C   UNL     1     110.904 127.490 138.321  0.00  0.00    +0.000 A 
ATOM      7  C   UNL     1     111.222 126.826 138.998  0.00  0.00    +0.000 A 
ATOM      8  C   UNL     1     110.817 127.223 137.362  0.00  0.00    +0.000 A 
ATOM      9  C   UNL     1     111.048 126.293 137.078  0.00  0.00    +0.000 A 
ATOM     10  C   UNL     1     111.366 125.628 137.754  0.00  0.00    +0.000 A 
ATOM     11  C   UNL     1     110.952 126.030 136.075  0.00  0.00    +0.000 A 
ATOM     12  C   UNL     1     111.610 124.655 137.474  0.00  0.00    +0.000 A 
ATOM     13  C   UNL     1     111.190 125.062 135.772  0.00  0.00    +0.000 A 
ATOM     14  C   UNL     1     111.522 124.370 136.476  0.00  0.00    +0.000 A 
BRANCH   7  18
ATOM     15  O   UNL     1     109.784 127.378 142.100  0.00  0.00    +0.000 OA
ATOM     16  O   UNL     1     113.184 127.872 141.654  0.00  0.00    +0.000 OA
ATOM     17  O   UNL     1     111.571 127.891 142.837  0.00  0.00    +0.000 OA
ATOM     18  C   UNL     1     111.309 127.092 139.958  0.00  0.00    +0.000 A 
ATOM     19  C   UNL     1     112.203 127.349 140.326  0.00  0.00    +0.000 A 
ATOM     20  C   UNL     1     110.503 127.102 140.549  0.00  0.00    +0.000 A 
ATOM     21  C   UNL     1     110.590 127.368 141.509  0.00  0.00    +0.000 A 
ATOM     22  C   UNL     1     112.290 127.615 141.286  0.00  0.00    +0.000 A 
ATOM     23  C   UNL     1     111.484 127.625 141.877  0.00  0.00    +0.000 A 
ENDBRANCH   7  18
ENDBRANCH   1   6
BRANCH   1  30
ATOM     24  O   UNL     1     112.144 129.031 137.924  0.00  0.00    +0.000 OA
ATOM     25  O   UNL     1     111.058 131.823 138.081  0.00  0.00    +0.000 OA
ATOM     26  O   UNL     1     112.891 131.503 137.348  0.00  0.00    +0.000 OA
ATOM     27  C   UNL     1     110.866 130.122 138.343  0.00  0.00    +0.000 C 
ATOM     28  C   UNL     1     111.420 130.892 138.029  0.00  0.00    +0.000 C 
ATOM     29  C   UNL     1     112.337 130.732 137.662  0.00  0.00    +0.000 C 
ATOM     30  C   UNL     1     111.228 129.191 138.291  0.00  0.00    +0.000 C 
ATOM     31  C   UNL     1     112.698 129.801 137.610  0.00  0.00    +0.000 C 
BRANCH  31  33
ATOM     32  O   UNL     1     113.784 128.858 136.645  0.00  0.00    +0.000 OA
ATOM     33  C   UNL     1     113.615 129.641 137.243  0.00  0.00    +0.000 C 
ENDBRANCH  31  33
BRANCH  27  34
ATOM     34  O   UNL     1     109.949 130.282 138.710  0.00  0.00    +0.000 OA
BRANCH  34  39
ATOM     35  O   UNL     1     110.619 130.727 140.244  0.00  0.00    +0.000 OA
ATOM     36  O   UNL     1     108.125 130.211 139.527  0.00  0.00    +0.000 OA
ATOM     37  O   UNL     1     107.883 130.621 141.469  0.00  0.00    +0.000 OA
ATOM     38  O   UNL     1     109.464 131.101 142.595  0.00  0.00    +0.000 OA
ATOM     39  C   UNL     1     109.828 130.487 139.681  0.00  0.00    +0.000 C 
ATOM     40  C   UNL     1     108.916 130.451 140.090  0.00  0.00    +0.000 C 
ATOM     41  C   UNL     1     108.795 130.656 141.061  0.00  0.00    +0.000 C 
ATOM     42  C   UNL     1     109.586 130.896 141.624  0.00  0.00    +0.000 C 
ATOM     43  C   UNL     1     110.498 130.932 141.215  0.00  0.00    +0.000 C 
ATOM     44  C   UNL     1     111.288 131.172 141.778  0.00  0.00    +0.000 C 
ENDBRANCH  34  39
ENDBRANCH  27  34
ENDBRANCH   1  30
TORSDOF 6
ENDMDL
MODEL 10
REMARK VINA RESULT:      -9.2      2.011      4.861
REMARK  Name = 44259460
REMARK  6 active torsions:
REMARK  status: ('A' for Active; 'I' for Inactive)
REMARK    1  A    between atoms: O_1  and  C_18
REMARK    2  A    between atoms: O_1  and  C_21
REMARK    3  A    between atoms: O_4  and  C_22
REMARK    4  A    between atoms: O_4  and  C_30
REMARK    5  A    between atoms: C_24  and  C_28
REMARK    6  A    between atoms: C_31  and  C_34
REMARK                            x       y       z     vdW  Elec       q    Type
REMARK                         _______ _______ _______ _____ _____    ______ ____
ROOT
ATOM      1  O   UNL     1     111.067 129.870 138.027  0.00  0.00    +0.000 OA
ENDROOT
BRANCH   1   6
ATOM      2  O   UNL     1     108.731 131.095 137.821  0.00  0.00    +0.000 OA
ATOM      3  O   UNL     1     110.890 130.013 136.040  0.00  0.00    +0.000 OA
ATOM      4  O   UNL     1     110.009 130.508 134.613  0.00  0.00    +0.000 OA
ATOM      5  O   UNL     1     106.885 132.130 134.995  0.00  0.00    +0.000 OA
ATOM      6  C   UNL     1     110.259 130.302 137.627  0.00  0.00    +0.000 A 
ATOM      7  C   UNL     1     109.540 130.663 138.221  0.00  0.00    +0.000 A 
ATOM      8  C   UNL     1     110.170 130.373 136.634  0.00  0.00    +0.000 A 
ATOM      9  C   UNL     1     109.362 130.805 136.234  0.00  0.00    +0.000 A 
ATOM     10  C   UNL     1     108.643 131.166 136.827  0.00  0.00    +0.000 A 
ATOM     11  C   UNL     1     109.284 130.872 135.197  0.00  0.00    +0.000 A 
ATOM     12  C   UNL     1     107.795 131.619 136.425  0.00  0.00    +0.000 A 
ATOM     13  C   UNL     1     108.444 131.321 134.773  0.00  0.00    +0.000 A 
ATOM     14  C   UNL     1     107.695 131.697 135.391  0.00  0.00    +0.000 A 
BRANCH   7  18
ATOM     15  O   UNL     1     108.738 129.085 141.199  0.00  0.00    +0.000 OA
ATOM     16  O   UNL     1     110.874 131.812 141.204  0.00  0.00    +0.000 OA
ATOM     17  O   UNL     1     109.895 130.377 142.195  0.00  0.00    +0.000 OA
ATOM     18  C   UNL     1     109.628 130.591 139.214  0.00  0.00    +0.000 A 
ATOM     19  C   UNL     1     110.207 131.237 139.712  0.00  0.00    +0.000 A 
ATOM     20  C   UNL     1     109.139 129.874 139.710  0.00  0.00    +0.000 A 
ATOM     21  C   UNL     1     109.228 129.802 140.703  0.00  0.00    +0.000 A 
ATOM     22  C   UNL     1     110.295 131.166 140.706  0.00  0.00    +0.000 A 
ATOM     23  C   UNL     1     109.806 130.448 141.201  0.00  0.00    +0.000 A 
ENDBRANCH   7  18
ENDBRANCH   1   6
BRANCH   1  30
ATOM     24  O   UNL     1     110.458 128.269 137.775  0.00  0.00    +0.000 OA
ATOM     25  O   UNL     1     113.263 127.208 137.726  0.00  0.00    +0.000 OA
ATOM     26  O   UNL     1     111.718 125.960 137.490  0.00  0.00    +0.000 OA
ATOM     27  C   UNL     1     112.165 128.539 137.877  0.00  0.00    +0.000 C 
ATOM     28  C   UNL     1     112.328 127.561 137.742  0.00  0.00    +0.000 C 
ATOM     29  C   UNL     1     111.555 126.937 137.624  0.00  0.00    +0.000 C 
ATOM     30  C   UNL     1     111.230 128.892 137.893  0.00  0.00    +0.000 C 
ATOM     31  C   UNL     1     110.620 127.291 137.640  0.00  0.00    +0.000 C 
BRANCH  31  33
ATOM     32  O   UNL     1     108.916 127.028 137.475  0.00  0.00    +0.000 OA
ATOM     33  C   UNL     1     109.848 126.667 137.522  0.00  0.00    +0.000 C 
ENDBRANCH  31  33
BRANCH  27  34
ATOM     34  O   UNL     1     112.938 129.162 137.995  0.00  0.00    +0.000 OA
BRANCH  34  39
ATOM     35  O   UNL     1     112.951 128.882 139.704  0.00  0.00    +0.000 OA
ATOM     36  O   UNL     1     114.083 130.782 138.252  0.00  0.00    +0.000 OA
ATOM     37  O   UNL     1     114.669 131.311 140.089  0.00  0.00    +0.000 OA
ATOM     38  O   UNL     1     114.109 130.222 141.670  0.00  0.00    +0.000 OA
ATOM     39  C   UNL     1     113.231 129.427 138.914  0.00  0.00    +0.000 C 
ATOM     40  C   UNL     1     113.803 130.237 139.042  0.00  0.00    +0.000 C 
ATOM     41  C   UNL     1     114.096 130.502 139.961  0.00  0.00    +0.000 C 
ATOM     42  C   UNL     1     113.816 129.957 140.751  0.00  0.00    +0.000 C 
ATOM     43  C   UNL     1     113.244 129.147 140.623  0.00  0.00    +0.000 C 
ATOM     44  C   UNL     1     112.964 128.602 141.413  0.00  0.00    +0.000 C 
ENDBRANCH  34  39
ENDBRANCH  27  34
ENDBRANCH   1  30
TORSDOF 6
ENDMDL
