MODEL 1
REMARK VINA RESULT:     -10.0      0.000      0.000
REMARK  Name = 44257681
REMARK  6 active torsions:
REMARK  status: ('A' for Active; 'I' for Inactive)
REMARK    1  A    between atoms: O_2  and  C_13
REMARK    2  A    between atoms: O_2  and  C_24
REMARK    3  A    between atoms: C_15  and  C_18
REMARK    4  A    between atoms: C_17  and  C_19
REMARK    5  A    between atoms: C_24  and  C_29
REMARK    6  A    between atoms: C_27  and  C_30
REMARK                            x       y       z     vdW  Elec       q    Type
REMARK                         _______ _______ _______ _____ _____    ______ ____
ROOT
ATOM      1  O   UNL     1     112.147 125.824 136.295  0.00  0.00    +0.000 OA
ATOM      2  O   UNL     1     111.890 125.626 138.749  0.00  0.00    +0.000 OA
ATOM      3  O   UNL     1     111.128 124.555 137.750  0.00  0.00    +0.000 OA
ATOM      4  C   UNL     1     112.442 126.293 137.612  0.00  0.00    +0.000 C 
ATOM      5  C   UNL     1     111.975 125.692 137.931  0.00  0.00    +0.000 C 
ATOM      6  C   UNL     1     112.528 126.360 136.795  0.00  0.00    +0.000 C 
ATOM      7  C   UNL     1     111.595 125.157 137.431  0.00  0.00    +0.000 C 
ATOM      8  C   UNL     1     111.681 125.223 136.613  0.00  0.00    +0.000 C 
ENDROOT
BRANCH   6  13
ATOM      9  O   UNL     1     111.785 127.716 136.204  0.00  0.00    +0.000 OA
ATOM     10  O   UNL     1     114.169 126.197 136.756  0.00  0.00    +0.000 OA
ATOM     11  O   UNL     1     114.395 128.765 135.522  0.00  0.00    +0.000 OA
ATOM     12  O   UNL     1     113.224 129.557 135.229  0.00  0.00    +0.000 OA
ATOM     13  C   UNL     1     112.994 126.961 136.477  0.00  0.00    +0.000 A 
ATOM     14  C   UNL     1     112.640 127.644 136.178  0.00  0.00    +0.000 A 
ATOM     15  C   UNL     1     113.815 126.880 136.457  0.00  0.00    +0.000 A 
ATOM     16  C   UNL     1     113.107 128.245 135.860  0.00  0.00    +0.000 A 
ATOM     17  C   UNL     1     114.282 127.481 136.139  0.00  0.00    +0.000 A 
ATOM     18  C   UNL     1     113.928 128.163 135.841  0.00  0.00    +0.000 A 
ATOM     19  C   UNL     1     112.750 128.961 135.546  0.00  0.00    +0.000 A 
ATOM     20  C   UNL     1     111.410 128.425 135.895  0.00  0.00    +0.000 A 
ATOM     21  C   UNL     1     111.895 129.052 135.563  0.00  0.00    +0.000 A 
BRANCH  20  23
ATOM     22  O   UNL     1     108.126 128.740 135.977  0.00  0.00    +0.000 OA
ATOM     23  C   UNL     1     110.589 128.504 135.916  0.00  0.00    +0.000 A 
ATOM     24  C   UNL     1     110.221 128.823 136.581  0.00  0.00    +0.000 A 
ATOM     25  C   UNL     1     110.135 128.263 135.270  0.00  0.00    +0.000 A 
ATOM     26  C   UNL     1     109.400 128.902 136.602  0.00  0.00    +0.000 A 
ATOM     27  C   UNL     1     109.314 128.342 135.290  0.00  0.00    +0.000 A 
ATOM     28  C   UNL     1     108.947 128.661 135.956  0.00  0.00    +0.000 A 
ENDBRANCH  20  23
ENDBRANCH   6  13
BRANCH   8  30
ATOM     29  O   UNL     1     110.860 124.965 135.472  0.00  0.00    +0.000 OA
ATOM     30  C   UNL     1     111.301 124.689 136.114  0.00  0.00    +0.000 C 
ENDBRANCH   8  30
BRANCH   4  31
ATOM     31  O   UNL     1     112.823 126.828 138.112  0.00  0.00    +0.000 OA
BRANCH  31  33
ATOM     32  O   UNL     1     111.688 126.832 138.981  0.00  0.00    +0.000 OA
ATOM     33  C   UNL     1     112.466 127.057 138.819  0.00  0.00    +0.000 C 
BRANCH  33  35
ATOM     34  O   UNL     1     114.146 128.876 141.002  0.00  0.00    +0.000 OA
ATOM     35  C   UNL     1     112.886 127.512 139.365  0.00  0.00    +0.000 A 
ATOM     36  C   UNL     1     112.711 128.313 139.456  0.00  0.00    +0.000 A 
ATOM     37  C   UNL     1     113.480 127.166 139.820  0.00  0.00    +0.000 A 
ATOM     38  C   UNL     1     113.131 128.767 140.001  0.00  0.00    +0.000 A 
ATOM     39  C   UNL     1     113.900 127.620 140.365  0.00  0.00    +0.000 A 
ATOM     40  C   UNL     1     113.725 128.421 140.456  0.00  0.00    +0.000 A 
ENDBRANCH  33  35
ENDBRANCH  31  33
ENDBRANCH   4  31
TORSDOF 6
ENDMDL
MODEL 2
REMARK VINA RESULT:      -9.9      1.860      4.341
REMARK  Name = 44257681
REMARK  6 active torsions:
REMARK  status: ('A' for Active; 'I' for Inactive)
REMARK    1  A    between atoms: O_2  and  C_13
REMARK    2  A    between atoms: O_2  and  C_24
REMARK    3  A    between atoms: C_15  and  C_18
REMARK    4  A    between atoms: C_17  and  C_19
REMARK    5  A    between atoms: C_24  and  C_29
REMARK    6  A    between atoms: C_27  and  C_30
REMARK                            x       y       z     vdW  Elec       q    Type
REMARK                         _______ _______ _______ _____ _____    ______ ____
ROOT
ATOM      1  O   UNL     1     113.240 128.884 135.453  0.00  0.00    +0.000 OA
ATOM      2  O   UNL     1     112.870 130.264 137.475  0.00  0.00    +0.000 OA
ATOM      3  O   UNL     1     114.331 130.300 136.707  0.00  0.00    +0.000 OA
ATOM      4  C   UNL     1     112.387 129.327 136.511  0.00  0.00    +0.000 C 
ATOM      5  C   UNL     1     112.994 129.804 136.801  0.00  0.00    +0.000 C 
ATOM      6  C   UNL     1     112.509 128.867 135.837  0.00  0.00    +0.000 C 
ATOM      7  C   UNL     1     113.723 129.822 136.417  0.00  0.00    +0.000 C 
ATOM      8  C   UNL     1     113.847 129.362 135.743  0.00  0.00    +0.000 C 
ENDROOT
BRANCH   6  13
ATOM      9  O   UNL     1     112.533 127.248 136.187  0.00  0.00    +0.000 OA
ATOM     10  O   UNL     1     111.302 129.529 134.929  0.00  0.00    +0.000 OA
ATOM     11  O   UNL     1     110.081 126.957 134.678  0.00  0.00    +0.000 OA
ATOM     12  O   UNL     1     110.666 125.790 135.293  0.00  0.00    +0.000 OA
ATOM     13  C   UNL     1     111.903 128.390 135.548  0.00  0.00    +0.000 A 
ATOM     14  C   UNL     1     111.899 127.581 135.713  0.00  0.00    +0.000 A 
ATOM     15  C   UNL     1     111.299 128.720 135.093  0.00  0.00    +0.000 A 
ATOM     16  C   UNL     1     111.292 127.103 135.423  0.00  0.00    +0.000 A 
ATOM     17  C   UNL     1     110.692 128.242 134.803  0.00  0.00    +0.000 A 
ATOM     18  C   UNL     1     110.689 127.435 134.968  0.00  0.00    +0.000 A 
ATOM     19  C   UNL     1     111.277 126.260 135.587  0.00  0.00    +0.000 A 
ATOM     20  C   UNL     1     112.536 126.406 136.362  0.00  0.00    +0.000 A 
ATOM     21  C   UNL     1     111.904 125.909 136.060  0.00  0.00    +0.000 A 
BRANCH  20  23
ATOM     22  O   UNL     1     114.956 125.093 138.180  0.00  0.00    +0.000 OA
ATOM     23  C   UNL     1     113.141 126.078 136.817  0.00  0.00    +0.000 A 
ATOM     24  C   UNL     1     113.075 126.058 137.639  0.00  0.00    +0.000 A 
ATOM     25  C   UNL     1     113.812 125.770 136.450  0.00  0.00    +0.000 A 
ATOM     26  C   UNL     1     113.680 125.729 138.093  0.00  0.00    +0.000 A 
ATOM     27  C   UNL     1     114.418 125.442 136.903  0.00  0.00    +0.000 A 
ATOM     28  C   UNL     1     114.351 125.422 137.725  0.00  0.00    +0.000 A 
ENDBRANCH  20  23
ENDBRANCH   6  13
BRANCH   8  30
ATOM     29  O   UNL     1     114.658 129.036 134.613  0.00  0.00    +0.000 OA
ATOM     30  C   UNL     1     114.576 129.379 135.359  0.00  0.00    +0.000 C 
ENDBRANCH   8  30
BRANCH   4  31
ATOM     31  O   UNL     1     111.656 129.309 136.895  0.00  0.00    +0.000 OA
BRANCH  31  33
ATOM     32  O   UNL     1     112.316 129.361 138.162  0.00  0.00    +0.000 OA
ATOM     33  C   UNL     1     111.622 129.371 137.717  0.00  0.00    +0.000 C 
BRANCH  33  35
ATOM     34  O   UNL     1     108.701 129.660 139.225  0.00  0.00    +0.000 OA
ATOM     35  C   UNL     1     110.891 129.443 138.094  0.00  0.00    +0.000 A 
ATOM     36  C   UNL     1     110.604 128.825 138.559  0.00  0.00    +0.000 A 
ATOM     37  C   UNL     1     110.448 130.133 138.007  0.00  0.00    +0.000 A 
ATOM     38  C   UNL     1     109.874 128.898 138.936  0.00  0.00    +0.000 A 
ATOM     39  C   UNL     1     109.718 130.206 138.383  0.00  0.00    +0.000 A 
ATOM     40  C   UNL     1     109.431 129.587 138.848  0.00  0.00    +0.000 A 
ENDBRANCH  33  35
ENDBRANCH  31  33
ENDBRANCH   4  31
TORSDOF 6
ENDMDL
MODEL 3
REMARK VINA RESULT:      -9.9      1.863      3.217
REMARK  Name = 44257681
REMARK  6 active torsions:
REMARK  status: ('A' for Active; 'I' for Inactive)
REMARK    1  A    between atoms: O_2  and  C_13
REMARK    2  A    between atoms: O_2  and  C_24
REMARK    3  A    between atoms: C_15  and  C_18
REMARK    4  A    between atoms: C_17  and  C_19
REMARK    5  A    between atoms: C_24  and  C_29
REMARK    6  A    between atoms: C_27  and  C_30
REMARK                            x       y       z     vdW  Elec       q    Type
REMARK                         _______ _______ _______ _____ _____    ______ ____
ROOT
ATOM      1  O   UNL     1     111.498 126.296 139.240  0.00  0.00    +0.000 OA
ATOM      2  O   UNL     1     111.107 128.730 139.012  0.00  0.00    +0.000 OA
ATOM      3  O   UNL     1     109.933 127.762 139.652  0.00  0.00    +0.000 OA
ATOM      4  C   UNL     1     111.954 127.591 138.844  0.00  0.00    +0.000 C 
ATOM      5  C   UNL     1     111.237 127.918 139.088  0.00  0.00    +0.000 C 
ATOM      6  C   UNL     1     112.085 126.781 138.920  0.00  0.00    +0.000 C 
ATOM      7  C   UNL     1     110.651 127.434 139.408  0.00  0.00    +0.000 C 
ATOM      8  C   UNL     1     110.781 126.623 139.484  0.00  0.00    +0.000 C 
ENDROOT
BRANCH   6  13
ATOM      9  O   UNL     1     112.180 126.109 137.409  0.00  0.00    +0.000 OA
ATOM     10  O   UNL     1     113.388 126.804 139.931  0.00  0.00    +0.000 OA
ATOM     11  O   UNL     1     114.953 125.473 137.944  0.00  0.00    +0.000 OA
ATOM     12  O   UNL     1     114.385 125.108 136.668  0.00  0.00    +0.000 OA
ATOM     13  C   UNL     1     112.801 126.454 138.676  0.00  0.00    +0.000 A 
ATOM     14  C   UNL     1     112.866 126.115 137.926  0.00  0.00    +0.000 A 
ATOM     15  C   UNL     1     113.453 126.465 139.181  0.00  0.00    +0.000 A 
ATOM     16  C   UNL     1     113.583 125.788 137.682  0.00  0.00    +0.000 A 
ATOM     17  C   UNL     1     114.170 126.138 138.937  0.00  0.00    +0.000 A 
ATOM     18  C   UNL     1     114.235 125.800 138.188  0.00  0.00    +0.000 A 
ATOM     19  C   UNL     1     113.664 125.433 136.904  0.00  0.00    +0.000 A 
ATOM     20  C   UNL     1     112.242 125.758 136.627  0.00  0.00    +0.000 A 
ATOM     21  C   UNL     1     112.989 125.417 136.373  0.00  0.00    +0.000 A 
BRANCH  20  23
ATOM     22  O   UNL     1     109.629 125.718 134.613  0.00  0.00    +0.000 OA
ATOM     23  C   UNL     1     111.588 125.747 136.123  0.00  0.00    +0.000 A 
ATOM     24  C   UNL     1     111.089 125.092 136.109  0.00  0.00    +0.000 A 
ATOM     25  C   UNL     1     111.434 126.394 135.634  0.00  0.00    +0.000 A 
ATOM     26  C   UNL     1     110.435 125.081 135.605  0.00  0.00    +0.000 A 
ATOM     27  C   UNL     1     110.782 126.385 135.131  0.00  0.00    +0.000 A 
ATOM     28  C   UNL     1     110.282 125.728 135.116  0.00  0.00    +0.000 A 
ENDBRANCH  20  23
ENDBRANCH   6  13
BRANCH   8  30
ATOM     29  O   UNL     1     110.128 125.354 139.556  0.00  0.00    +0.000 OA
ATOM     30  C   UNL     1     110.195 126.139 139.803  0.00  0.00    +0.000 C 
ENDBRANCH   8  30
BRANCH   4  31
ATOM     31  O   UNL     1     112.541 128.076 138.524  0.00  0.00    +0.000 OA
BRANCH  31  33
ATOM     32  O   UNL     1     111.537 128.914 137.948  0.00  0.00    +0.000 OA
ATOM     33  C   UNL     1     112.331 128.752 138.101  0.00  0.00    +0.000 C 
BRANCH  33  35
ATOM     34  O   UNL     1     114.673 130.812 137.023  0.00  0.00    +0.000 OA
ATOM     35  C   UNL     1     112.917 129.267 137.831  0.00  0.00    +0.000 A 
ATOM     36  C   UNL     1     113.307 129.763 138.363  0.00  0.00    +0.000 A 
ATOM     37  C   UNL     1     113.112 129.287 137.031  0.00  0.00    +0.000 A 
ATOM     38  C   UNL     1     113.892 130.278 138.093  0.00  0.00    +0.000 A 
ATOM     39  C   UNL     1     113.698 129.801 136.761  0.00  0.00    +0.000 A 
ATOM     40  C   UNL     1     114.087 130.297 137.293  0.00  0.00    +0.000 A 
ENDBRANCH  33  35
ENDBRANCH  31  33
ENDBRANCH   4  31
TORSDOF 6
ENDMDL
MODEL 4
REMARK VINA RESULT:      -9.9      1.700      3.186
REMARK  Name = 44257681
REMARK  6 active torsions:
REMARK  status: ('A' for Active; 'I' for Inactive)
REMARK    1  A    between atoms: O_2  and  C_13
REMARK    2  A    between atoms: O_2  and  C_24
REMARK    3  A    between atoms: C_15  and  C_18
REMARK    4  A    between atoms: C_17  and  C_19
REMARK    5  A    between atoms: C_24  and  C_29
REMARK    6  A    between atoms: C_27  and  C_30
REMARK                            x       y       z     vdW  Elec       q    Type
REMARK                         _______ _______ _______ _____ _____    ______ ____
ROOT
ATOM      1  O   UNL     1     113.399 125.608 136.438  0.00  0.00    +0.000 OA
ATOM      2  O   UNL     1     113.163 125.742 138.898  0.00  0.00    +0.000 OA
ATOM      3  O   UNL     1     114.630 125.394 138.228  0.00  0.00    +0.000 OA
ATOM      4  C   UNL     1     112.587 125.827 137.593  0.00  0.00    +0.000 C 
ATOM      5  C   UNL     1     113.242 125.697 138.078  0.00  0.00    +0.000 C 
ATOM      6  C   UNL     1     112.665 125.783 136.773  0.00  0.00    +0.000 C 
ATOM      7  C   UNL     1     113.975 125.523 137.742  0.00  0.00    +0.000 C 
ATOM      8  C   UNL     1     114.054 125.479 136.922  0.00  0.00    +0.000 C 
ENDROOT
BRANCH   6  13
ATOM      9  O   UNL     1     112.458 127.281 136.098  0.00  0.00    +0.000 OA
ATOM     10  O   UNL     1     111.593 124.561 136.493  0.00  0.00    +0.000 OA
ATOM     11  O   UNL     1     110.045 126.301 134.834  0.00  0.00    +0.000 OA
ATOM     12  O   UNL     1     110.445 127.670 134.612  0.00  0.00    +0.000 OA
ATOM     13  C   UNL     1     112.011 125.912 136.289  0.00  0.00    +0.000 A 
ATOM     14  C   UNL     1     111.892 126.653 135.944  0.00  0.00    +0.000 A 
ATOM     15  C   UNL     1     111.474 125.302 136.148  0.00  0.00    +0.000 A 
ATOM     16  C   UNL     1     111.237 126.782 135.460  0.00  0.00    +0.000 A 
ATOM     17  C   UNL     1     110.819 125.431 135.663  0.00  0.00    +0.000 A 
ATOM     18  C   UNL     1     110.701 126.171 135.320  0.00  0.00    +0.000 A 
ATOM     19  C   UNL     1     111.103 127.549 135.095  0.00  0.00    +0.000 A 
ATOM     20  C   UNL     1     112.340 128.054 135.743  0.00  0.00    +0.000 A 
ATOM     21  C   UNL     1     111.658 128.189 135.238  0.00  0.00    +0.000 A 
BRANCH  20  23
ATOM     22  O   UNL     1     114.491 130.491 136.312  0.00  0.00    +0.000 OA
ATOM     23  C   UNL     1     112.878 128.663 135.885  0.00  0.00    +0.000 A 
ATOM     24  C   UNL     1     113.539 128.752 135.400  0.00  0.00    +0.000 A 
ATOM     25  C   UNL     1     112.755 129.184 136.512  0.00  0.00    +0.000 A 
ATOM     26  C   UNL     1     114.077 129.361 135.542  0.00  0.00    +0.000 A 
ATOM     27  C   UNL     1     113.292 129.793 136.656  0.00  0.00    +0.000 A 
ATOM     28  C   UNL     1     113.953 129.882 136.170  0.00  0.00    +0.000 A 
ENDBRANCH  20  23
ENDBRANCH   6  13
BRANCH   8  30
ATOM     29  O   UNL     1     114.828 125.008 135.817  0.00  0.00    +0.000 OA
ATOM     30  C   UNL     1     114.787 125.305 136.587  0.00  0.00    +0.000 C 
ENDBRANCH   8  30
BRANCH   4  31
ATOM     31  O   UNL     1     111.853 126.001 137.929  0.00  0.00    +0.000 OA
BRANCH  31  33
ATOM     32  O   UNL     1     112.502 126.738 138.967  0.00  0.00    +0.000 OA
ATOM     33  C   UNL     1     111.813 126.440 138.626  0.00  0.00    +0.000 C 
BRANCH  33  35
ATOM     34  O   UNL     1     108.890 127.003 140.051  0.00  0.00    +0.000 OA
ATOM     35  C   UNL     1     111.082 126.580 138.983  0.00  0.00    +0.000 A 
ATOM     36  C   UNL     1     110.775 127.346 139.005  0.00  0.00    +0.000 A 
ATOM     37  C   UNL     1     110.659 125.957 139.316  0.00  0.00    +0.000 A 
ATOM     38  C   UNL     1     110.044 127.486 139.362  0.00  0.00    +0.000 A 
ATOM     39  C   UNL     1     109.928 126.097 139.672  0.00  0.00    +0.000 A 
ATOM     40  C   UNL     1     109.621 126.862 139.695  0.00  0.00    +0.000 A 
ENDBRANCH  33  35
ENDBRANCH  31  33
ENDBRANCH   4  31
TORSDOF 6
ENDMDL
MODEL 5
REMARK VINA RESULT:      -9.9      1.220      2.804
REMARK  Name = 44257681
REMARK  6 active torsions:
REMARK  status: ('A' for Active; 'I' for Inactive)
REMARK    1  A    between atoms: O_2  and  C_13
REMARK    2  A    between atoms: O_2  and  C_24
REMARK    3  A    between atoms: C_15  and  C_18
REMARK    4  A    between atoms: C_17  and  C_19
REMARK    5  A    between atoms: C_24  and  C_29
REMARK    6  A    between atoms: C_27  and  C_30
REMARK                            x       y       z     vdW  Elec       q    Type
REMARK                         _______ _______ _______ _____ _____    ______ ____
ROOT
ATOM      1  O   UNL     1     113.278 128.062 136.007  0.00  0.00    +0.000 OA
ATOM      2  O   UNL     1     113.261 129.019 138.289  0.00  0.00    +0.000 OA
ATOM      3  O   UNL     1     113.779 129.932 137.016  0.00  0.00    +0.000 OA
ATOM      4  C   UNL     1     113.014 127.925 137.404  0.00  0.00    +0.000 C 
ATOM      5  C   UNL     1     113.267 128.701 137.528  0.00  0.00    +0.000 C 
ATOM      6  C   UNL     1     113.019 127.606 136.644  0.00  0.00    +0.000 C 
ATOM      7  C   UNL     1     113.526 129.156 136.892  0.00  0.00    +0.000 C 
ATOM      8  C   UNL     1     113.532 128.837 136.131  0.00  0.00    +0.000 C 
ENDROOT
BRANCH   6  13
ATOM      9  O   UNL     1     111.476 127.350 136.101  0.00  0.00    +0.000 OA
ATOM     10  O   UNL     1     114.044 126.347 136.937  0.00  0.00    +0.000 OA
ATOM     11  O   UNL     1     112.006 124.504 136.149  0.00  0.00    +0.000 OA
ATOM     12  O   UNL     1     110.706 124.967 135.723  0.00  0.00    +0.000 OA
ATOM     13  C   UNL     1     112.766 126.831 136.520  0.00  0.00    +0.000 A 
ATOM     14  C   UNL     1     112.000 126.685 136.250  0.00  0.00    +0.000 A 
ATOM     15  C   UNL     1     113.278 126.201 136.667  0.00  0.00    +0.000 A 
ATOM     16  C   UNL     1     111.746 125.910 136.126  0.00  0.00    +0.000 A 
ATOM     17  C   UNL     1     113.024 125.426 136.543  0.00  0.00    +0.000 A 
ATOM     18  C   UNL     1     112.259 125.281 136.273  0.00  0.00    +0.000 A 
ATOM     19  C   UNL     1     110.952 125.745 135.845  0.00  0.00    +0.000 A 
ATOM     20  C   UNL     1     110.677 127.205 135.819  0.00  0.00    +0.000 A 
ATOM     21  C   UNL     1     110.413 126.397 135.690  0.00  0.00    +0.000 A 
BRANCH  20  23
ATOM     22  O   UNL     1     108.636 129.731 135.234  0.00  0.00    +0.000 OA
ATOM     23  C   UNL     1     110.166 127.836 135.673  0.00  0.00    +0.000 A 
ATOM     24  C   UNL     1     109.630 128.076 136.251  0.00  0.00    +0.000 A 
ATOM     25  C   UNL     1     110.193 128.229 134.948  0.00  0.00    +0.000 A 
ATOM     26  C   UNL     1     109.119 128.707 136.106  0.00  0.00    +0.000 A 
ATOM     27  C   UNL     1     109.683 128.860 134.801  0.00  0.00    +0.000 A 
ATOM     28  C   UNL     1     109.147 129.099 135.380  0.00  0.00    +0.000 A 
ENDBRANCH  20  23
ENDBRANCH   6  13
BRANCH   8  30
ATOM     29  O   UNL     1     114.212 128.940 134.878  0.00  0.00    +0.000 OA
ATOM     30  C   UNL     1     113.790 129.293 135.494  0.00  0.00    +0.000 C 
ENDBRANCH   8  30
BRANCH   4  31
ATOM     31  O   UNL     1     112.754 127.469 138.042  0.00  0.00    +0.000 OA
BRANCH  31  33
ATOM     32  O   UNL     1     112.121 128.617 138.611  0.00  0.00    +0.000 OA
ATOM     33  C   UNL     1     112.344 127.824 138.663  0.00  0.00    +0.000 C 
BRANCH  33  35
ATOM     34  O   UNL     1     111.590 126.072 141.356  0.00  0.00    +0.000 OA
ATOM     35  C   UNL     1     112.155 127.386 139.336  0.00  0.00    +0.000 A 
ATOM     36  C   UNL     1     111.369 127.194 139.497  0.00  0.00    +0.000 A 
ATOM     37  C   UNL     1     112.752 127.140 139.848  0.00  0.00    +0.000 A 
ATOM     38  C   UNL     1     111.182 126.756 140.170  0.00  0.00    +0.000 A 
ATOM     39  C   UNL     1     112.565 126.702 140.522  0.00  0.00    +0.000 A 
ATOM     40  C   UNL     1     111.779 126.510 140.682  0.00  0.00    +0.000 A 
ENDBRANCH  33  35
ENDBRANCH  31  33
ENDBRANCH   4  31
TORSDOF 6
ENDMDL
MODEL 6
REMARK VINA RESULT:      -9.8      1.328      4.130
REMARK  Name = 44257681
REMARK  6 active torsions:
REMARK  status: ('A' for Active; 'I' for Inactive)
REMARK    1  A    between atoms: O_2  and  C_13
REMARK    2  A    between atoms: O_2  and  C_24
REMARK    3  A    between atoms: C_15  and  C_18
REMARK    4  A    between atoms: C_17  and  C_19
REMARK    5  A    between atoms: C_24  and  C_29
REMARK    6  A    between atoms: C_27  and  C_30
REMARK                            x       y       z     vdW  Elec       q    Type
REMARK                         _______ _______ _______ _____ _____    ______ ____
ROOT
ATOM      1  O   UNL     1     110.769 126.343 137.573  0.00  0.00    +0.000 OA
ATOM      2  O   UNL     1     110.620 128.630 136.639  0.00  0.00    +0.000 OA
ATOM      3  O   UNL     1     109.359 128.009 137.504  0.00  0.00    +0.000 OA
ATOM      4  C   UNL     1     111.349 127.416 136.829  0.00  0.00    +0.000 C 
ATOM      5  C   UNL     1     110.669 127.867 136.950  0.00  0.00    +0.000 C 
ATOM      6  C   UNL     1     111.399 126.654 137.140  0.00  0.00    +0.000 C 
ATOM      7  C   UNL     1     110.040 127.557 137.383  0.00  0.00    +0.000 C 
ATOM      8  C   UNL     1     110.089 126.794 137.695  0.00  0.00    +0.000 C 
ENDROOT
BRANCH   6  13
ATOM      9  O   UNL     1     112.540 126.595 138.339  0.00  0.00    +0.000 OA
ATOM     10  O   UNL     1     111.600 125.831 135.725  0.00  0.00    +0.000 OA
ATOM     11  O   UNL     1     114.118 124.848 136.656  0.00  0.00    +0.000 OA
ATOM     12  O   UNL     1     114.623 125.207 137.959  0.00  0.00    +0.000 OA
ATOM     13  C   UNL     1     112.078 126.203 137.019  0.00  0.00    +0.000 A 
ATOM     14  C   UNL     1     112.657 126.162 137.606  0.00  0.00    +0.000 A 
ATOM     15  C   UNL     1     112.180 125.791 136.312  0.00  0.00    +0.000 A 
ATOM     16  C   UNL     1     113.337 125.711 137.485  0.00  0.00    +0.000 A 
ATOM     17  C   UNL     1     112.859 125.340 136.191  0.00  0.00    +0.000 A 
ATOM     18  C   UNL     1     113.438 125.300 136.777  0.00  0.00    +0.000 A 
ATOM     19  C   UNL     1     113.947 125.661 138.088  0.00  0.00    +0.000 A 
ATOM     20  C   UNL     1     113.139 126.558 138.954  0.00  0.00    +0.000 A 
ATOM     21  C   UNL     1     113.847 126.088 138.828  0.00  0.00    +0.000 A 
BRANCH  20  23
ATOM     22  O   UNL     1     112.724 128.206 141.782  0.00  0.00    +0.000 OA
ATOM     23  C   UNL     1     113.036 126.970 139.661  0.00  0.00    +0.000 A 
ATOM     24  C   UNL     1     113.327 127.738 139.738  0.00  0.00    +0.000 A 
ATOM     25  C   UNL     1     112.641 126.614 140.292  0.00  0.00    +0.000 A 
ATOM     26  C   UNL     1     113.223 128.151 140.445  0.00  0.00    +0.000 A 
ATOM     27  C   UNL     1     112.537 127.026 140.999  0.00  0.00    +0.000 A 
ATOM     28  C   UNL     1     112.828 127.794 141.075  0.00  0.00    +0.000 A 
ENDBRANCH  20  23
ENDBRANCH   6  13
BRANCH   8  30
ATOM     29  O   UNL     1     109.606 126.011 138.789  0.00  0.00    +0.000 OA
ATOM     30  C   UNL     1     109.459 126.484 138.127  0.00  0.00    +0.000 C 
ENDBRANCH   8  30
BRANCH   4  31
ATOM     31  O   UNL     1     111.979 127.727 136.396  0.00  0.00    +0.000 OA
BRANCH  31  33
ATOM     32  O   UNL     1     111.700 129.026 136.923  0.00  0.00    +0.000 OA
ATOM     33  C   UNL     1     112.145 128.534 136.432  0.00  0.00    +0.000 C 
BRANCH  33  35
ATOM     34  O   UNL     1     114.592 129.796 134.612  0.00  0.00    +0.000 OA
ATOM     35  C   UNL     1     112.757 128.850 135.977  0.00  0.00    +0.000 A 
ATOM     36  C   UNL     1     113.453 129.101 136.340  0.00  0.00    +0.000 A 
ATOM     37  C   UNL     1     112.672 128.913 135.159  0.00  0.00    +0.000 A 
ATOM     38  C   UNL     1     114.065 129.417 135.885  0.00  0.00    +0.000 A 
ATOM     39  C   UNL     1     113.283 129.229 134.704  0.00  0.00    +0.000 A 
ATOM     40  C   UNL     1     113.980 129.480 135.068  0.00  0.00    +0.000 A 
ENDBRANCH  33  35
ENDBRANCH  31  33
ENDBRANCH   4  31
TORSDOF 6
ENDMDL
MODEL 7
REMARK VINA RESULT:      -9.7      1.503      4.081
REMARK  Name = 44257681
REMARK  6 active torsions:
REMARK  status: ('A' for Active; 'I' for Inactive)
REMARK    1  A    between atoms: O_2  and  C_13
REMARK    2  A    between atoms: O_2  and  C_24
REMARK    3  A    between atoms: C_15  and  C_18
REMARK    4  A    between atoms: C_17  and  C_19
REMARK    5  A    between atoms: C_24  and  C_29
REMARK    6  A    between atoms: C_27  and  C_30
REMARK                            x       y       z     vdW  Elec       q    Type
REMARK                         _______ _______ _______ _____ _____    ______ ____
ROOT
ATOM      1  O   UNL     1     111.733 127.326 139.277  0.00  0.00    +0.000 OA
ATOM      2  O   UNL     1     109.324 127.697 138.848  0.00  0.00    +0.000 OA
ATOM      3  O   UNL     1     109.800 126.733 140.101  0.00  0.00    +0.000 OA
ATOM      4  C   UNL     1     110.692 127.930 138.508  0.00  0.00    +0.000 C 
ATOM      5  C   UNL     1     110.127 127.573 138.991  0.00  0.00    +0.000 C 
ATOM      6  C   UNL     1     111.495 127.807 138.650  0.00  0.00    +0.000 C 
ATOM      7  C   UNL     1     110.365 127.092 139.617  0.00  0.00    +0.000 C 
ATOM      8  C   UNL     1     111.168 126.968 139.760  0.00  0.00    +0.000 C 
ENDROOT
BRANCH   6  13
ATOM      9  O   UNL     1     112.201 126.909 137.452  0.00  0.00    +0.000 OA
ATOM     10  O   UNL     1     111.900 129.389 138.888  0.00  0.00    +0.000 OA
ATOM     11  O   UNL     1     113.754 129.239 136.717  0.00  0.00    +0.000 OA
ATOM     12  O   UNL     1     113.934 128.015 135.973  0.00  0.00    +0.000 OA
ATOM     13  C   UNL     1     112.059 128.165 138.167  0.00  0.00    +0.000 A 
ATOM     14  C   UNL     1     112.421 127.731 137.565  0.00  0.00    +0.000 A 
ATOM     15  C   UNL     1     112.262 128.955 138.285  0.00  0.00    +0.000 A 
ATOM     16  C   UNL     1     112.986 128.089 137.082  0.00  0.00    +0.000 A 
ATOM     17  C   UNL     1     112.827 129.313 137.802  0.00  0.00    +0.000 A 
ATOM     18  C   UNL     1     113.189 128.880 137.201  0.00  0.00    +0.000 A 
ATOM     19  C   UNL     1     113.370 127.649 136.452  0.00  0.00    +0.000 A 
ATOM     20  C   UNL     1     112.575 126.452 136.826  0.00  0.00    +0.000 A 
ATOM     21  C   UNL     1     113.163 126.825 136.323  0.00  0.00    +0.000 A 
BRANCH  20  23
ATOM     22  O   UNL     1     111.755 123.290 136.361  0.00  0.00    +0.000 OA
ATOM     23  C   UNL     1     112.370 125.662 136.710  0.00  0.00    +0.000 A 
ATOM     24  C   UNL     1     112.815 125.063 137.062  0.00  0.00    +0.000 A 
ATOM     25  C   UNL     1     111.719 125.469 136.241  0.00  0.00    +0.000 A 
ATOM     26  C   UNL     1     112.611 124.273 136.946  0.00  0.00    +0.000 A 
ATOM     27  C   UNL     1     111.513 124.679 136.124  0.00  0.00    +0.000 A 
ATOM     28  C   UNL     1     111.960 124.081 136.477  0.00  0.00    +0.000 A 
ENDBRANCH  20  23
ENDBRANCH   6  13
BRANCH   8  30
ATOM     29  O   UNL     1     112.197 126.484 140.627  0.00  0.00    +0.000 OA
ATOM     30  C   UNL     1     111.407 126.487 140.386  0.00  0.00    +0.000 C 
ENDBRANCH   8  30
BRANCH   4  31
ATOM     31  O   UNL     1     110.453 128.412 137.881  0.00  0.00    +0.000 OA
BRANCH  31  33
ATOM     32  O   UNL     1     109.347 127.543 137.632  0.00  0.00    +0.000 OA
ATOM     33  C   UNL     1     109.764 128.235 137.464  0.00  0.00    +0.000 C 
BRANCH  33  35
ATOM     34  O   UNL     1     108.677 130.292 135.124  0.00  0.00    +0.000 OA
ATOM     35  C   UNL     1     109.492 128.750 136.879  0.00  0.00    +0.000 A 
ATOM     36  C   UNL     1     109.506 128.518 136.087  0.00  0.00    +0.000 A 
ATOM     37  C   UNL     1     109.207 129.494 137.085  0.00  0.00    +0.000 A 
ATOM     38  C   UNL     1     109.235 129.033 135.503  0.00  0.00    +0.000 A 
ATOM     39  C   UNL     1     108.935 130.009 136.501  0.00  0.00    +0.000 A 
ATOM     40  C   UNL     1     108.949 129.777 135.710  0.00  0.00    +0.000 A 
ENDBRANCH  33  35
ENDBRANCH  31  33
ENDBRANCH   4  31
TORSDOF 6
ENDMDL
MODEL 8
REMARK VINA RESULT:      -9.6      1.591      4.633
REMARK  Name = 44257681
REMARK  6 active torsions:
REMARK  status: ('A' for Active; 'I' for Inactive)
REMARK    1  A    between atoms: O_2  and  C_13
REMARK    2  A    between atoms: O_2  and  C_24
REMARK    3  A    between atoms: C_15  and  C_18
REMARK    4  A    between atoms: C_17  and  C_19
REMARK    5  A    between atoms: C_24  and  C_29
REMARK    6  A    between atoms: C_27  and  C_30
REMARK                            x       y       z     vdW  Elec       q    Type
REMARK                         _______ _______ _______ _____ _____    ______ ____
ROOT
ATOM      1  O   UNL     1     113.399 128.948 137.559  0.00  0.00    +0.000 OA
ATOM      2  O   UNL     1     111.134 129.386 136.663  0.00  0.00    +0.000 OA
ATOM      3  O   UNL     1     111.884 130.520 137.599  0.00  0.00    +0.000 OA
ATOM      4  C   UNL     1     112.269 128.528 136.793  0.00  0.00    +0.000 C 
ATOM      5  C   UNL     1     111.889 129.240 136.962  0.00  0.00    +0.000 C 
ATOM      6  C   UNL     1     113.024 128.381 137.091  0.00  0.00    +0.000 C 
ATOM      7  C   UNL     1     112.264 129.806 137.429  0.00  0.00    +0.000 C 
ATOM      8  C   UNL     1     113.020 129.660 137.728  0.00  0.00    +0.000 C 
ENDROOT
BRANCH   6  13
ATOM      9  O   UNL     1     113.021 127.186 138.237  0.00  0.00    +0.000 OA
ATOM     10  O   UNL     1     113.766 128.168 135.633  0.00  0.00    +0.000 OA
ATOM     11  O   UNL     1     114.542 125.530 136.413  0.00  0.00    +0.000 OA
ATOM     12  O   UNL     1     114.189 125.002 137.709  0.00  0.00    +0.000 OA
ATOM     13  C   UNL     1     113.403 127.669 136.922  0.00  0.00    +0.000 A 
ATOM     14  C   UNL     1     113.411 127.062 137.482  0.00  0.00    +0.000 A 
ATOM     15  C   UNL     1     113.774 127.562 136.193  0.00  0.00    +0.000 A 
ATOM     16  C   UNL     1     113.791 126.350 137.312  0.00  0.00    +0.000 A 
ATOM     17  C   UNL     1     114.154 126.849 136.024  0.00  0.00    +0.000 A 
ATOM     18  C   UNL     1     114.162 126.244 136.583  0.00  0.00    +0.000 A 
ATOM     19  C   UNL     1     113.807 125.711 137.887  0.00  0.00    +0.000 A 
ATOM     20  C   UNL     1     113.027 126.558 138.824  0.00  0.00    +0.000 A 
ATOM     21  C   UNL     1     113.422 125.816 138.648  0.00  0.00    +0.000 A 
BRANCH  20  23
ATOM     22  O   UNL     1     111.540 126.996 141.738  0.00  0.00    +0.000 OA
ATOM     23  C   UNL     1     112.655 126.667 139.553  0.00  0.00    +0.000 A 
ATOM     24  C   UNL     1     111.849 126.512 139.632  0.00  0.00    +0.000 A 
ATOM     25  C   UNL     1     113.089 126.932 140.202  0.00  0.00    +0.000 A 
ATOM     26  C   UNL     1     111.477 126.622 140.360  0.00  0.00    +0.000 A 
ATOM     27  C   UNL     1     112.719 127.042 140.931  0.00  0.00    +0.000 A 
ATOM     28  C   UNL     1     111.912 126.886 141.009  0.00  0.00    +0.000 A 
ENDBRANCH  20  23
ENDBRANCH   6  13
BRANCH   8  30
ATOM     29  O   UNL     1     114.186 130.420 138.055  0.00  0.00    +0.000 OA
ATOM     30  C   UNL     1     113.395 130.226 138.195  0.00  0.00    +0.000 C 
ENDBRANCH   8  30
BRANCH   4  31
ATOM     31  O   UNL     1     111.893 127.960 136.325  0.00  0.00    +0.000 OA
BRANCH  31  33
ATOM     32  O   UNL     1     110.633 128.331 136.888  0.00  0.00    +0.000 OA
ATOM     33  C   UNL     1     111.078 127.851 136.385  0.00  0.00    +0.000 C 
BRANCH  33  35
ATOM     34  O   UNL     1     109.595 125.495 134.613  0.00  0.00    +0.000 OA
ATOM     35  C   UNL     1     110.707 127.262 135.941  0.00  0.00    +0.000 A 
ATOM     36  C   UNL     1     110.366 126.614 136.321  0.00  0.00    +0.000 A 
ATOM     37  C   UNL     1     110.677 127.321 135.120  0.00  0.00    +0.000 A 
ATOM     38  C   UNL     1     109.995 126.025 135.877  0.00  0.00    +0.000 A 
ATOM     39  C   UNL     1     110.307 126.733 134.676  0.00  0.00    +0.000 A 
ATOM     40  C   UNL     1     109.966 126.085 135.056  0.00  0.00    +0.000 A 
ENDBRANCH  33  35
ENDBRANCH  31  33
ENDBRANCH   4  31
TORSDOF 6
ENDMDL
MODEL 9
REMARK VINA RESULT:      -9.6      1.863      3.726
REMARK  Name = 44257681
REMARK  6 active torsions:
REMARK  status: ('A' for Active; 'I' for Inactive)
REMARK    1  A    between atoms: O_2  and  C_13
REMARK    2  A    between atoms: O_2  and  C_24
REMARK    3  A    between atoms: C_15  and  C_18
REMARK    4  A    between atoms: C_17  and  C_19
REMARK    5  A    between atoms: C_24  and  C_29
REMARK    6  A    between atoms: C_27  and  C_30
REMARK                            x       y       z     vdW  Elec       q    Type
REMARK                         _______ _______ _______ _____ _____    ______ ____
ROOT
ATOM      1  O   UNL     1     111.035 127.120 139.436  0.00  0.00    +0.000 OA
ATOM      2  O   UNL     1     112.369 127.589 141.468  0.00  0.00    +0.000 OA
ATOM      3  O   UNL     1     111.387 126.264 141.414  0.00  0.00    +0.000 OA
ATOM      4  C   UNL     1     111.970 127.939 140.141  0.00  0.00    +0.000 C 
ATOM      5  C   UNL     1     111.924 127.433 140.791  0.00  0.00    +0.000 C 
ATOM      6  C   UNL     1     111.526 127.783 139.464  0.00  0.00    +0.000 C 
ATOM      7  C   UNL     1     111.433 126.771 140.763  0.00  0.00    +0.000 C 
ATOM      8  C   UNL     1     110.988 126.614 140.086  0.00  0.00    +0.000 C 
ENDROOT
BRANCH   6  13
ATOM      9  O   UNL     1     112.465 127.339 138.174  0.00  0.00    +0.000 OA
ATOM     10  O   UNL     1     110.692 129.206 139.467  0.00  0.00    +0.000 OA
ATOM     11  O   UNL     1     111.712 129.808 136.865  0.00  0.00    +0.000 OA
ATOM     12  O   UNL     1     112.602 128.898 136.184  0.00  0.00    +0.000 OA
ATOM     13  C   UNL     1     111.572 128.289 138.815  0.00  0.00    +0.000 A 
ATOM     14  C   UNL     1     112.036 128.083 138.163  0.00  0.00    +0.000 A 
ATOM     15  C   UNL     1     111.156 129.001 138.815  0.00  0.00    +0.000 A 
ATOM     16  C   UNL     1     112.082 128.589 137.513  0.00  0.00    +0.000 A 
ATOM     17  C   UNL     1     111.202 129.507 138.165  0.00  0.00    +0.000 A 
ATOM     18  C   UNL     1     111.665 129.301 137.515  0.00  0.00    +0.000 A 
ATOM     19  C   UNL     1     112.561 128.386 136.830  0.00  0.00    +0.000 A 
ATOM     20  C   UNL     1     112.950 127.119 137.499  0.00  0.00    +0.000 A 
ATOM     21  C   UNL     1     112.998 127.646 136.822  0.00  0.00    +0.000 A 
BRANCH  20  23
ATOM     22  O   UNL     1     114.614 124.270 137.506  0.00  0.00    +0.000 OA
ATOM     23  C   UNL     1     113.366 126.406 137.501  0.00  0.00    +0.000 A 
ATOM     24  C   UNL     1     113.074 125.757 137.084  0.00  0.00    +0.000 A 
ATOM     25  C   UNL     1     114.074 126.343 137.919  0.00  0.00    +0.000 A 
ATOM     26  C   UNL     1     113.490 125.045 137.086  0.00  0.00    +0.000 A 
ATOM     27  C   UNL     1     114.490 125.631 137.922  0.00  0.00    +0.000 A 
ATOM     28  C   UNL     1     114.198 124.982 137.504  0.00  0.00    +0.000 A 
ENDBRANCH  20  23
ENDBRANCH   6  13
BRANCH   8  30
ATOM     29  O   UNL     1     110.456 125.497 139.370  0.00  0.00    +0.000 OA
ATOM     30  C   UNL     1     110.498 125.952 140.059  0.00  0.00    +0.000 C 
ENDBRANCH   8  30
BRANCH   4  31
ATOM     31  O   UNL     1     112.462 128.602 140.168  0.00  0.00    +0.000 OA
BRANCH  31  33
ATOM     32  O   UNL     1     113.447 127.852 140.882  0.00  0.00    +0.000 OA
ATOM     33  C   UNL     1     113.170 128.572 140.590  0.00  0.00    +0.000 C 
BRANCH  33  35
ATOM     34  O   UNL     1     114.896 131.337 141.106  0.00  0.00    +0.000 OA
ATOM     35  C   UNL     1     113.602 129.264 140.719  0.00  0.00    +0.000 A 
ATOM     36  C   UNL     1     113.316 129.837 141.238  0.00  0.00    +0.000 A 
ATOM     37  C   UNL     1     114.318 129.381 140.329  0.00  0.00    +0.000 A 
ATOM     38  C   UNL     1     113.748 130.528 141.367  0.00  0.00    +0.000 A 
ATOM     39  C   UNL     1     114.750 130.072 140.458  0.00  0.00    +0.000 A 
ATOM     40  C   UNL     1     114.464 130.645 140.977  0.00  0.00    +0.000 A 
ENDBRANCH  33  35
ENDBRANCH  31  33
ENDBRANCH   4  31
TORSDOF 6
ENDMDL
MODEL 10
REMARK VINA RESULT:      -9.6      1.638      2.953
REMARK  Name = 44257681
REMARK  6 active torsions:
REMARK  status: ('A' for Active; 'I' for Inactive)
REMARK    1  A    between atoms: O_2  and  C_13
REMARK    2  A    between atoms: O_2  and  C_24
REMARK    3  A    between atoms: C_15  and  C_18
REMARK    4  A    between atoms: C_17  and  C_19
REMARK    5  A    between atoms: C_24  and  C_29
REMARK    6  A    between atoms: C_27  and  C_30
REMARK                            x       y       z     vdW  Elec       q    Type
REMARK                         _______ _______ _______ _____ _____    ______ ____
ROOT
ATOM      1  O   UNL     1     110.804 129.662 137.638  0.00  0.00    +0.000 OA
ATOM      2  O   UNL     1     110.738 128.436 139.788  0.00  0.00    +0.000 OA
ATOM      3  O   UNL     1     109.335 128.961 139.094  0.00  0.00    +0.000 OA
ATOM      4  C   UNL     1     111.483 128.991 138.702  0.00  0.00    +0.000 C 
ATOM      5  C   UNL     1     110.760 128.845 139.071  0.00  0.00    +0.000 C 
ATOM      6  C   UNL     1     111.506 129.399 137.986  0.00  0.00    +0.000 C 
ATOM      7  C   UNL     1     110.059 129.107 138.724  0.00  0.00    +0.000 C 
ATOM      8  C   UNL     1     110.081 129.516 138.008  0.00  0.00    +0.000 C 
ENDROOT
BRANCH   6  13
ATOM      9  O   UNL     1     111.986 128.402 136.754  0.00  0.00    +0.000 OA
ATOM     10  O   UNL     1     112.442 130.665 138.478  0.00  0.00    +0.000 OA
ATOM     11  O   UNL     1     114.398 129.982 136.508  0.00  0.00    +0.000 OA
ATOM     12  O   UNL     1     114.206 128.856 135.625  0.00  0.00    +0.000 OA
ATOM     13  C   UNL     1     112.228 129.545 137.617  0.00  0.00    +0.000 A 
ATOM     14  C   UNL     1     112.483 129.057 137.001  0.00  0.00    +0.000 A 
ATOM     15  C   UNL     1     112.697 130.177 137.862  0.00  0.00    +0.000 A 
ATOM     16  C   UNL     1     113.206 129.203 136.631  0.00  0.00    +0.000 A 
ATOM     17  C   UNL     1     113.420 130.323 137.492  0.00  0.00    +0.000 A 
ATOM     18  C   UNL     1     113.674 129.836 136.878  0.00  0.00    +0.000 A 
ATOM     19  C   UNL     1     113.482 128.703 135.989  0.00  0.00    +0.000 A 
ATOM     20  C   UNL     1     112.245 127.890 136.113  0.00  0.00    +0.000 A 
ATOM     21  C   UNL     1     112.998 128.042 135.729  0.00  0.00    +0.000 A 
BRANCH  20  23
ATOM     22  O   UNL     1     110.362 125.363 135.137  0.00  0.00    +0.000 OA
ATOM     23  C   UNL     1     111.774 127.258 135.869  0.00  0.00    +0.000 A 
ATOM     24  C   UNL     1     111.884 126.510 136.199  0.00  0.00    +0.000 A 
ATOM     25  C   UNL     1     111.193 127.374 135.295  0.00  0.00    +0.000 A 
ATOM     26  C   UNL     1     111.413 125.878 135.955  0.00  0.00    +0.000 A 
ATOM     27  C   UNL     1     110.722 126.743 135.050  0.00  0.00    +0.000 A 
ATOM     28  C   UNL     1     110.833 125.995 135.381  0.00  0.00    +0.000 A 
ENDBRANCH  20  23
ENDBRANCH   6  13
BRANCH   8  30
ATOM     29  O   UNL     1     109.396 130.403 137.120  0.00  0.00    +0.000 OA
ATOM     30  C   UNL     1     109.381 129.778 137.661  0.00  0.00    +0.000 C 
ENDBRANCH   8  30
BRANCH   4  31
ATOM     31  O   UNL     1     112.184 128.728 139.049  0.00  0.00    +0.000 OA
BRANCH  31  33
ATOM     32  O   UNL     1     111.519 127.545 139.497  0.00  0.00    +0.000 OA
ATOM     33  C   UNL     1     112.197 128.015 139.463  0.00  0.00    +0.000 C 
BRANCH  33  35
ATOM     34  O   UNL     1     114.958 127.044 140.988  0.00  0.00    +0.000 OA
ATOM     35  C   UNL     1     112.887 127.772 139.845  0.00  0.00    +0.000 A 
ATOM     36  C   UNL     1     113.170 128.195 140.494  0.00  0.00    +0.000 A 
ATOM     37  C   UNL     1     113.294 127.107 139.577  0.00  0.00    +0.000 A 
ATOM     38  C   UNL     1     113.861 127.952 140.874  0.00  0.00    +0.000 A 
ATOM     39  C   UNL     1     113.984 126.863 139.958  0.00  0.00    +0.000 A 
ATOM     40  C   UNL     1     114.267 127.287 140.606  0.00  0.00    +0.000 A 
ENDBRANCH  33  35
ENDBRANCH  31  33
ENDBRANCH   4  31
TORSDOF 6
ENDMDL
