MODEL 1
REMARK VINA RESULT:      -9.1      0.000      0.000
REMARK  Name = 131751771
REMARK  6 active torsions:
REMARK  status: ('A' for Active; 'I' for Inactive)
REMARK    1  A    between atoms: O_2  and  C_19
REMARK    2  A    between atoms: O_2  and  C_21
REMARK    3  A    between atoms: O_6  and  C_20
REMARK    4  A    between atoms: O_6  and  C_27
REMARK    5  A    between atoms: C_17  and  C_20
REMARK    6  A    between atoms: C_22  and  C_26
REMARK                            x       y       z     vdW  Elec       q    Type
REMARK                         _______ _______ _______ _____ _____    ______ ____
ROOT
ATOM      1  O   UNL     1     113.808 126.223 138.234  0.00  0.00    +0.000 OA
ATOM      2  O   UNL     1     111.718 124.971 137.795  0.00  0.00    +0.000 OA
ATOM      3  O   UNL     1     112.343 124.250 136.713  0.00  0.00    +0.000 OA
ATOM      4  O   UNL     1     115.136 124.807 136.062  0.00  0.00    +0.000 OA
ATOM      5  C   UNL     1     112.441 125.947 138.548  0.00  0.00    +0.000 A 
ATOM      6  C   UNL     1     113.139 126.364 138.694  0.00  0.00    +0.000 A 
ATOM      7  C   UNL     1     112.415 125.388 137.941  0.00  0.00    +0.000 A 
ATOM      8  C   UNL     1     113.085 125.247 137.481  0.00  0.00    +0.000 A 
ATOM      9  C   UNL     1     113.781 125.664 137.627  0.00  0.00    +0.000 A 
ATOM     10  C   UNL     1     113.044 124.663 136.852  0.00  0.00    +0.000 A 
ATOM     11  C   UNL     1     114.486 125.527 137.155  0.00  0.00    +0.000 A 
ATOM     12  C   UNL     1     113.738 124.511 136.369  0.00  0.00    +0.000 A 
ATOM     13  C   UNL     1     114.464 124.946 136.521  0.00  0.00    +0.000 A 
ENDROOT
BRANCH   6  17
ATOM     14  O   UNL     1     113.275 126.990 141.479  0.00  0.00    +0.000 OA
ATOM     15  O   UNL     1     113.159 129.092 139.546  0.00  0.00    +0.000 OA
ATOM     16  O   UNL     1     113.243 128.600 141.119  0.00  0.00    +0.000 OA
ATOM     17  C   UNL     1     113.165 126.923 139.301  0.00  0.00    +0.000 A 
ATOM     18  C   UNL     1     113.149 127.728 139.120  0.00  0.00    +0.000 A 
ATOM     19  C   UNL     1     113.207 126.677 140.087  0.00  0.00    +0.000 A 
ATOM     20  C   UNL     1     113.233 127.236 140.693  0.00  0.00    +0.000 A 
ATOM     21  C   UNL     1     113.175 128.287 139.727  0.00  0.00    +0.000 A 
ATOM     22  C   UNL     1     113.217 128.041 140.513  0.00  0.00    +0.000 A 
ENDBRANCH   6  17
BRANCH   5  23
ATOM     23  O   UNL     1     111.772 126.088 139.009  0.00  0.00    +0.000 OA
BRANCH  23  32
ATOM     24  O   UNL     1     111.088 126.806 137.979  0.00  0.00    +0.000 OA
ATOM     25  O   UNL     1     108.956 127.043 137.576  0.00  0.00    +0.000 OA
ATOM     26  O   UNL     1     108.915 126.085 138.919  0.00  0.00    +0.000 OA
ATOM     27  O   UNL     1     110.323 125.608 139.635  0.00  0.00    +0.000 OA
ATOM     28  C   UNL     1     109.661 126.804 137.934  0.00  0.00    +0.000 C 
ATOM     29  C   UNL     1     109.640 126.325 138.606  0.00  0.00    +0.000 C 
ATOM     30  C   UNL     1     110.385 127.044 137.621  0.00  0.00    +0.000 C 
ATOM     31  C   UNL     1     110.344 126.087 138.964  0.00  0.00    +0.000 C 
ATOM     32  C   UNL     1     111.068 126.327 138.651  0.00  0.00    +0.000 C 
BRANCH  30  33
ATOM     33  C   UNL     1     110.405 127.523 136.949  0.00  0.00    +0.000 C 
BRANCH  33  34
ATOM     34  O   UNL     1     110.960 128.129 136.891  0.00  0.00    +0.000 OA
BRANCH  34  36
ATOM     35  O   UNL     1     110.563 129.172 136.000  0.00  0.00    +0.000 OA
ATOM     36  C   UNL     1     111.055 128.535 136.179  0.00  0.00    +0.000 C 
ATOM     37  C   UNL     1     111.641 128.304 135.646  0.00  0.00    +0.000 C 
ENDBRANCH  34  36
ENDBRANCH  33  34
ENDBRANCH  30  33
ENDBRANCH  23  32
ENDBRANCH   5  23
TORSDOF 6
ENDMDL
MODEL 2
REMARK VINA RESULT:      -9.1      1.657      3.383
REMARK  Name = 131751771
REMARK  6 active torsions:
REMARK  status: ('A' for Active; 'I' for Inactive)
REMARK    1  A    between atoms: O_2  and  C_19
REMARK    2  A    between atoms: O_2  and  C_21
REMARK    3  A    between atoms: O_6  and  C_20
REMARK    4  A    between atoms: O_6  and  C_27
REMARK    5  A    between atoms: C_17  and  C_20
REMARK    6  A    between atoms: C_22  and  C_26
REMARK                            x       y       z     vdW  Elec       q    Type
REMARK                         _______ _______ _______ _____ _____    ______ ____
ROOT
ATOM      1  O   UNL     1     113.746 127.435 136.224  0.00  0.00    +0.000 OA
ATOM      2  O   UNL     1     111.996 128.439 137.658  0.00  0.00    +0.000 OA
ATOM      3  O   UNL     1     112.083 129.687 136.940  0.00  0.00    +0.000 OA
ATOM      4  O   UNL     1     113.977 129.924 134.729  0.00  0.00    +0.000 OA
ATOM      5  C   UNL     1     112.817 127.324 137.305  0.00  0.00    +0.000 A 
ATOM      6  C   UNL     1     113.401 126.989 136.827  0.00  0.00    +0.000 A 
ATOM      7  C   UNL     1     112.580 128.104 137.180  0.00  0.00    +0.000 A 
ATOM      8  C   UNL     1     112.925 128.549 136.577  0.00  0.00    +0.000 A 
ATOM      9  C   UNL     1     113.507 128.215 136.099  0.00  0.00    +0.000 A 
ATOM     10  C   UNL     1     112.668 129.361 136.457  0.00  0.00    +0.000 A 
ATOM     11  C   UNL     1     113.875 128.667 135.468  0.00  0.00    +0.000 A 
ATOM     12  C   UNL     1     113.023 129.830 135.831  0.00  0.00    +0.000 A 
ATOM     13  C   UNL     1     113.631 129.481 135.333  0.00  0.00    +0.000 A 
ENDROOT
BRANCH   6  17
ATOM     14  O   UNL     1     114.976 125.080 138.256  0.00  0.00    +0.000 OA
ATOM     15  O   UNL     1     113.252 124.218 136.146  0.00  0.00    +0.000 OA
ATOM     16  O   UNL     1     114.351 123.869 137.326  0.00  0.00    +0.000 OA
ATOM     17  C   UNL     1     113.639 126.210 136.952  0.00  0.00    +0.000 A 
ATOM     18  C   UNL     1     113.327 125.603 136.486  0.00  0.00    +0.000 A 
ATOM     19  C   UNL     1     114.189 126.035 137.542  0.00  0.00    +0.000 A 
ATOM     20  C   UNL     1     114.426 125.255 137.666  0.00  0.00    +0.000 A 
ATOM     21  C   UNL     1     113.564 124.824 136.612  0.00  0.00    +0.000 A 
ATOM     22  C   UNL     1     114.114 124.649 137.202  0.00  0.00    +0.000 A 
ENDBRANCH   6  17
BRANCH   5  23
ATOM     23  O   UNL     1     112.473 126.879 137.908  0.00  0.00    +0.000 OA
BRANCH  23  32
ATOM     24  O   UNL     1     111.237 126.704 137.212  0.00  0.00    +0.000 OA
ATOM     25  O   UNL     1     109.205 126.419 137.957  0.00  0.00    +0.000 OA
ATOM     26  O   UNL     1     110.043 126.539 139.373  0.00  0.00    +0.000 OA
ATOM     27  O   UNL     1     111.676 126.769 139.349  0.00  0.00    +0.000 OA
ATOM     28  C   UNL     1     110.023 126.534 137.944  0.00  0.00    +0.000 C 
ATOM     29  C   UNL     1     110.441 126.594 138.653  0.00  0.00    +0.000 C 
ATOM     30  C   UNL     1     110.421 126.590 137.224  0.00  0.00    +0.000 C 
ATOM     31  C   UNL     1     111.258 126.709 138.640  0.00  0.00    +0.000 C 
ATOM     32  C   UNL     1     111.656 126.764 137.920  0.00  0.00    +0.000 C 
BRANCH  30  33
ATOM     33  C   UNL     1     110.001 126.530 136.516  0.00  0.00    +0.000 C 
BRANCH  33  34
ATOM     34  O   UNL     1     110.315 126.103 135.885  0.00  0.00    +0.000 OA
BRANCH  34  36
ATOM     35  O   UNL     1     109.386 125.605 134.921  0.00  0.00    +0.000 OA
ATOM     36  C   UNL     1     109.965 126.150 135.140  0.00  0.00    +0.000 C 
ATOM     37  C   UNL     1     110.193 126.742 134.612  0.00  0.00    +0.000 C 
ENDBRANCH  34  36
ENDBRANCH  33  34
ENDBRANCH  30  33
ENDBRANCH  23  32
ENDBRANCH   5  23
TORSDOF 6
ENDMDL
MODEL 3
REMARK VINA RESULT:      -9.1      1.711      2.951
REMARK  Name = 131751771
REMARK  6 active torsions:
REMARK  status: ('A' for Active; 'I' for Inactive)
REMARK    1  A    between atoms: O_2  and  C_19
REMARK    2  A    between atoms: O_2  and  C_21
REMARK    3  A    between atoms: O_6  and  C_20
REMARK    4  A    between atoms: O_6  and  C_27
REMARK    5  A    between atoms: C_17  and  C_20
REMARK    6  A    between atoms: C_22  and  C_26
REMARK                            x       y       z     vdW  Elec       q    Type
REMARK                         _______ _______ _______ _____ _____    ______ ____
ROOT
ATOM      1  O   UNL     1     113.531 126.752 136.774  0.00  0.00    +0.000 OA
ATOM      2  O   UNL     1     111.578 125.419 136.039  0.00  0.00    +0.000 OA
ATOM      3  O   UNL     1     112.264 124.189 136.354  0.00  0.00    +0.000 OA
ATOM      4  O   UNL     1     114.975 124.310 137.433  0.00  0.00    +0.000 OA
ATOM      5  C   UNL     1     112.204 126.687 136.247  0.00  0.00    +0.000 A 
ATOM      6  C   UNL     1     112.855 127.131 136.492  0.00  0.00    +0.000 A 
ATOM      7  C   UNL     1     112.230 125.863 136.284  0.00  0.00    +0.000 A 
ATOM      8  C   UNL     1     112.906 125.484 136.567  0.00  0.00    +0.000 A 
ATOM      9  C   UNL     1     113.555 125.928 136.812  0.00  0.00    +0.000 A 
ATOM     10  C   UNL     1     112.919 124.625 136.601  0.00  0.00    +0.000 A 
ATOM     11  C   UNL     1     114.265 125.545 137.108  0.00  0.00    +0.000 A 
ATOM     12  C   UNL     1     113.620 124.224 136.894  0.00  0.00    +0.000 A 
ATOM     13  C   UNL     1     114.298 124.687 137.150  0.00  0.00    +0.000 A 
ENDROOT
BRANCH   6  17
ATOM     14  O   UNL     1     112.583 129.663 137.791  0.00  0.00    +0.000 OA
ATOM     15  O   UNL     1     112.973 129.543 134.962  0.00  0.00    +0.000 OA
ATOM     16  O   UNL     1     112.752 130.426 136.338  0.00  0.00    +0.000 OA
ATOM     17  C   UNL     1     112.829 127.955 136.454  0.00  0.00    +0.000 A 
ATOM     18  C   UNL     1     112.914 128.337 135.727  0.00  0.00    +0.000 A 
ATOM     19  C   UNL     1     112.719 128.397 137.142  0.00  0.00    +0.000 A 
ATOM     20  C   UNL     1     112.693 129.221 137.103  0.00  0.00    +0.000 A 
ATOM     21  C   UNL     1     112.888 129.161 135.689  0.00  0.00    +0.000 A 
ATOM     22  C   UNL     1     112.778 129.602 136.377  0.00  0.00    +0.000 A 
ENDBRANCH   6  17
BRANCH   5  23
ATOM     23  O   UNL     1     111.528 127.067 135.964  0.00  0.00    +0.000 OA
BRANCH  23  32
ATOM     24  O   UNL     1     110.774 126.784 137.144  0.00  0.00    +0.000 OA
ATOM     25  O   UNL     1     108.622 126.585 137.451  0.00  0.00    +0.000 OA
ATOM     26  O   UNL     1     108.677 126.909 135.834  0.00  0.00    +0.000 OA
ATOM     27  O   UNL     1     110.131 127.150 135.091  0.00  0.00    +0.000 OA
ATOM     28  C   UNL     1     109.349 126.705 137.079  0.00  0.00    +0.000 C 
ATOM     29  C   UNL     1     109.376 126.867 136.271  0.00  0.00    +0.000 C 
ATOM     30  C   UNL     1     110.048 126.664 137.516  0.00  0.00    +0.000 C 
ATOM     31  C   UNL     1     110.103 126.988 135.899  0.00  0.00    +0.000 C 
ATOM     32  C   UNL     1     110.802 126.946 136.336  0.00  0.00    +0.000 C 
BRANCH  30  33
ATOM     33  C   UNL     1     110.019 126.501 138.324  0.00  0.00    +0.000 C 
BRANCH  33  34
ATOM     34  O   UNL     1     110.520 126.900 138.843  0.00  0.00    +0.000 OA
BRANCH  34  36
ATOM     35  O   UNL     1     110.846 125.838 139.741  0.00  0.00    +0.000 OA
ATOM     36  C   UNL     1     110.623 126.622 139.613  0.00  0.00    +0.000 C 
ATOM     37  C   UNL     1     110.504 127.127 140.254  0.00  0.00    +0.000 C 
ENDBRANCH  34  36
ENDBRANCH  33  34
ENDBRANCH  30  33
ENDBRANCH  23  32
ENDBRANCH   5  23
TORSDOF 6
ENDMDL
MODEL 4
REMARK VINA RESULT:      -9.1      1.950      3.701
REMARK  Name = 131751771
REMARK  6 active torsions:
REMARK  status: ('A' for Active; 'I' for Inactive)
REMARK    1  A    between atoms: O_2  and  C_19
REMARK    2  A    between atoms: O_2  and  C_21
REMARK    3  A    between atoms: O_6  and  C_20
REMARK    4  A    between atoms: O_6  and  C_27
REMARK    5  A    between atoms: C_17  and  C_20
REMARK    6  A    between atoms: C_22  and  C_26
REMARK                            x       y       z     vdW  Elec       q    Type
REMARK                         _______ _______ _______ _____ _____    ______ ____
ROOT
ATOM      1  O   UNL     1     113.100 127.574 135.961  0.00  0.00    +0.000 OA
ATOM      2  O   UNL     1     112.526 128.877 137.986  0.00  0.00    +0.000 OA
ATOM      3  O   UNL     1     113.255 130.020 137.492  0.00  0.00    +0.000 OA
ATOM      4  O   UNL     1     114.589 129.841 134.899  0.00  0.00    +0.000 OA
ATOM      5  C   UNL     1     112.449 127.667 137.230  0.00  0.00    +0.000 A 
ATOM      6  C   UNL     1     112.640 127.233 136.555  0.00  0.00    +0.000 A 
ATOM      7  C   UNL     1     112.718 128.443 137.311  0.00  0.00    +0.000 A 
ATOM      8  C   UNL     1     113.177 128.784 136.717  0.00  0.00    +0.000 A 
ATOM      9  C   UNL     1     113.368 128.350 136.042  0.00  0.00    +0.000 A 
ATOM     10  C   UNL     1     113.451 129.593 136.813  0.00  0.00    +0.000 A 
ATOM     11  C   UNL     1     113.846 128.694 135.417  0.00  0.00    +0.000 A 
ATOM     12  C   UNL     1     113.930 129.955 136.198  0.00  0.00    +0.000 A 
ATOM     13  C   UNL     1     114.129 129.502 135.495  0.00  0.00    +0.000 A 
ENDROOT
BRANCH   6  17
ATOM     14  O   UNL     1     110.822 125.348 135.410  0.00  0.00    +0.000 OA
ATOM     15  O   UNL     1     112.849 124.461 137.219  0.00  0.00    +0.000 OA
ATOM     16  O   UNL     1     111.567 124.128 136.235  0.00  0.00    +0.000 OA
ATOM     17  C   UNL     1     112.372 126.457 136.474  0.00  0.00    +0.000 A 
ATOM     18  C   UNL     1     112.745 125.847 136.887  0.00  0.00    +0.000 A 
ATOM     19  C   UNL     1     111.731 126.291 135.982  0.00  0.00    +0.000 A 
ATOM     20  C   UNL     1     111.463 125.514 135.903  0.00  0.00    +0.000 A 
ATOM     21  C   UNL     1     112.476 125.071 136.807  0.00  0.00    +0.000 A 
ATOM     22  C   UNL     1     111.835 124.905 136.314  0.00  0.00    +0.000 A 
ENDBRANCH   6  17
BRANCH   5  23
ATOM     23  O   UNL     1     111.989 127.326 137.824  0.00  0.00    +0.000 OA
BRANCH  23  32
ATOM     24  O   UNL     1     110.801 128.051 137.502  0.00  0.00    +0.000 OA
ATOM     25  O   UNL     1     109.177 128.771 138.771  0.00  0.00    +0.000 OA
ATOM     26  O   UNL     1     110.148 128.043 139.889  0.00  0.00    +0.000 OA
ATOM     27  O   UNL     1     111.554 127.320 139.416  0.00  0.00    +0.000 OA
ATOM     28  C   UNL     1     109.881 128.409 138.534  0.00  0.00    +0.000 C 
ATOM     29  C   UNL     1     110.366 128.046 139.093  0.00  0.00    +0.000 C 
ATOM     30  C   UNL     1     110.098 128.412 137.738  0.00  0.00    +0.000 C 
ATOM     31  C   UNL     1     111.069 127.684 138.856  0.00  0.00    +0.000 C 
ATOM     32  C   UNL     1     111.287 127.687 138.060  0.00  0.00    +0.000 C 
BRANCH  30  33
ATOM     33  C   UNL     1     109.612 128.776 137.179  0.00  0.00    +0.000 C 
BRANCH  33  34
ATOM     34  O   UNL     1     109.410 128.378 136.486  0.00  0.00    +0.000 OA
BRANCH  34  36
ATOM     35  O   UNL     1     108.167 128.693 135.858  0.00  0.00    +0.000 OA
ATOM     36  C   UNL     1     108.987 128.767 135.895  0.00  0.00    +0.000 C 
ATOM     37  C   UNL     1     109.385 129.232 135.341  0.00  0.00    +0.000 C 
ENDBRANCH  34  36
ENDBRANCH  33  34
ENDBRANCH  30  33
ENDBRANCH  23  32
ENDBRANCH   5  23
TORSDOF 6
ENDMDL
MODEL 5
REMARK VINA RESULT:      -9.0      1.738      4.159
REMARK  Name = 131751771
REMARK  6 active torsions:
REMARK  status: ('A' for Active; 'I' for Inactive)
REMARK    1  A    between atoms: O_2  and  C_19
REMARK    2  A    between atoms: O_2  and  C_21
REMARK    3  A    between atoms: O_6  and  C_20
REMARK    4  A    between atoms: O_6  and  C_27
REMARK    5  A    between atoms: C_17  and  C_20
REMARK    6  A    between atoms: C_22  and  C_26
REMARK                            x       y       z     vdW  Elec       q    Type
REMARK                         _______ _______ _______ _____ _____    ______ ____
ROOT
ATOM      1  O   UNL     1     111.659 127.699 135.581  0.00  0.00    +0.000 OA
ATOM      2  O   UNL     1     111.078 127.139 137.921  0.00  0.00    +0.000 OA
ATOM      3  O   UNL     1     110.057 126.221 137.478  0.00  0.00    +0.000 OA
ATOM      4  O   UNL     1     109.616 125.864 134.612  0.00  0.00    +0.000 OA
ATOM      5  C   UNL     1     111.871 127.870 136.984  0.00  0.00    +0.000 A 
ATOM      6  C   UNL     1     112.065 128.057 136.204  0.00  0.00    +0.000 A 
ATOM      7  C   UNL     1     111.272 127.325 137.140  0.00  0.00    +0.000 A 
ATOM      8  C   UNL     1     110.866 126.967 136.518  0.00  0.00    +0.000 A 
ATOM      9  C   UNL     1     111.060 127.154 135.738  0.00  0.00    +0.000 A 
ATOM     10  C   UNL     1     110.244 126.402 136.694  0.00  0.00    +0.000 A 
ATOM     11  C   UNL     1     110.645 126.789 135.081  0.00  0.00    +0.000 A 
ATOM     12  C   UNL     1     109.818 126.025 136.050  0.00  0.00    +0.000 A 
ATOM     13  C   UNL     1     110.020 126.220 135.237  0.00  0.00    +0.000 A 
ENDROOT
BRANCH   6  17
ATOM     14  O   UNL     1     114.723 128.630 135.325  0.00  0.00    +0.000 OA
ATOM     15  O   UNL     1     113.000 130.757 136.146  0.00  0.00    +0.000 OA
ATOM     16  O   UNL     1     114.461 130.239 135.579  0.00  0.00    +0.000 OA
ATOM     17  C   UNL     1     112.664 128.602 136.047  0.00  0.00    +0.000 A 
ATOM     18  C   UNL     1     112.532 129.407 136.175  0.00  0.00    +0.000 A 
ATOM     19  C   UNL     1     113.394 128.343 135.764  0.00  0.00    +0.000 A 
ATOM     20  C   UNL     1     113.993 128.889 135.608  0.00  0.00    +0.000 A 
ATOM     21  C   UNL     1     113.132 129.952 136.018  0.00  0.00    +0.000 A 
ATOM     22  C   UNL     1     113.862 129.693 135.735  0.00  0.00    +0.000 A 
ENDBRANCH   6  17
BRANCH   5  23
ATOM     23  O   UNL     1     112.276 128.228 137.607  0.00  0.00    +0.000 OA
BRANCH  23  32
ATOM     24  O   UNL     1     113.027 127.053 137.919  0.00  0.00    +0.000 OA
ATOM     25  O   UNL     1     113.903 126.374 139.799  0.00  0.00    +0.000 OA
ATOM     26  O   UNL     1     113.216 127.797 140.272  0.00  0.00    +0.000 OA
ATOM     27  O   UNL     1     112.402 128.725 139.176  0.00  0.00    +0.000 OA
ATOM     28  C   UNL     1     113.496 126.838 139.250  0.00  0.00    +0.000 C 
ATOM     29  C   UNL     1     113.153 127.549 139.487  0.00  0.00    +0.000 C 
ATOM     30  C   UNL     1     113.433 126.589 138.466  0.00  0.00    +0.000 C 
ATOM     31  C   UNL     1     112.746 128.013 138.939  0.00  0.00    +0.000 C 
ATOM     32  C   UNL     1     112.683 127.765 138.154  0.00  0.00    +0.000 C 
BRANCH  30  33
ATOM     33  C   UNL     1     113.777 125.877 138.230  0.00  0.00    +0.000 C 
BRANCH  33  34
ATOM     34  O   UNL     1     114.108 125.808 137.479  0.00  0.00    +0.000 OA
BRANCH  34  36
ATOM     35  O   UNL     1     115.065 124.747 137.467  0.00  0.00    +0.000 OA
ATOM     36  C   UNL     1     114.354 125.071 137.203  0.00  0.00    +0.000 C 
ATOM     37  C   UNL     1     113.889 124.656 136.662  0.00  0.00    +0.000 C 
ENDBRANCH  34  36
ENDBRANCH  33  34
ENDBRANCH  30  33
ENDBRANCH  23  32
ENDBRANCH   5  23
TORSDOF 6
ENDMDL
MODEL 6
REMARK VINA RESULT:      -9.0      9.891     11.974
REMARK  Name = 131751771
REMARK  6 active torsions:
REMARK  status: ('A' for Active; 'I' for Inactive)
REMARK    1  A    between atoms: O_2  and  C_19
REMARK    2  A    between atoms: O_2  and  C_21
REMARK    3  A    between atoms: O_6  and  C_20
REMARK    4  A    between atoms: O_6  and  C_27
REMARK    5  A    between atoms: C_17  and  C_20
REMARK    6  A    between atoms: C_22  and  C_26
REMARK                            x       y       z     vdW  Elec       q    Type
REMARK                         _______ _______ _______ _____ _____    ______ ____
ROOT
ATOM      1  O   UNL     1     106.776 125.155 147.112  0.00  0.00    +0.000 OA
ATOM      2  O   UNL     1     104.878 124.409 148.516  0.00  0.00    +0.000 OA
ATOM      3  O   UNL     1     105.769 124.112 149.612  0.00  0.00    +0.000 OA
ATOM      4  O   UNL     1     108.633 124.579 149.280  0.00  0.00    +0.000 OA
ATOM      5  C   UNL     1     105.375 124.925 147.279  0.00  0.00    +0.000 A 
ATOM      6  C   UNL     1     106.007 125.173 146.811  0.00  0.00    +0.000 A 
ATOM      7  C   UNL     1     105.511 124.658 148.048  0.00  0.00    +0.000 A 
ATOM      8  C   UNL     1     106.279 124.639 148.348  0.00  0.00    +0.000 A 
ATOM      9  C   UNL     1     106.911 124.888 147.881  0.00  0.00    +0.000 A 
ATOM     10  C   UNL     1     106.407 124.359 149.151  0.00  0.00    +0.000 A 
ATOM     11  C   UNL     1     107.715 124.874 148.181  0.00  0.00    +0.000 A 
ATOM     12  C   UNL     1     107.205 124.337 149.470  0.00  0.00    +0.000 A 
ATOM     13  C   UNL     1     107.864 124.597 148.982  0.00  0.00    +0.000 A 
ENDROOT
BRANCH   6  17
ATOM     14  O   UNL     1     105.442 124.626 144.064  0.00  0.00    +0.000 OA
ATOM     15  O   UNL     1     105.755 127.325 144.947  0.00  0.00    +0.000 OA
ATOM     16  O   UNL     1     105.462 126.243 143.737  0.00  0.00    +0.000 OA
ATOM     17  C   UNL     1     105.871 125.440 146.042  0.00  0.00    +0.000 A 
ATOM     18  C   UNL     1     105.881 126.249 145.879  0.00  0.00    +0.000 A 
ATOM     19  C   UNL     1     105.725 124.899 145.437  0.00  0.00    +0.000 A 
ATOM     20  C   UNL     1     105.588 125.167 144.669  0.00  0.00    +0.000 A 
ATOM     21  C   UNL     1     105.745 126.516 145.111  0.00  0.00    +0.000 A 
ATOM     22  C   UNL     1     105.598 125.975 144.505  0.00  0.00    +0.000 A 
ENDBRANCH   6  17
BRANCH   5  23
ATOM     23  O   UNL     1     104.607 124.943 146.979  0.00  0.00    +0.000 OA
BRANCH  23  32
ATOM     24  O   UNL     1     104.198 126.064 147.765  0.00  0.00    +0.000 OA
ATOM     25  O   UNL     1     102.246 126.600 148.583  0.00  0.00    +0.000 OA
ATOM     26  O   UNL     1     101.884 125.187 147.812  0.00  0.00    +0.000 OA
ATOM     27  O   UNL     1     103.064 124.359 147.009  0.00  0.00    +0.000 OA
ATOM     28  C   UNL     1     102.837 126.186 148.181  0.00  0.00    +0.000 C 
ATOM     29  C   UNL     1     102.655 125.479 147.796  0.00  0.00    +0.000 C 
ATOM     30  C   UNL     1     103.608 126.478 148.166  0.00  0.00    +0.000 C 
ATOM     31  C   UNL     1     103.246 125.065 147.395  0.00  0.00    +0.000 C 
ATOM     32  C   UNL     1     104.017 125.357 147.379  0.00  0.00    +0.000 C 
BRANCH  30  33
ATOM     33  C   UNL     1     103.789 127.184 148.552  0.00  0.00    +0.000 C 
BRANCH  33  34
ATOM     34  O   UNL     1     104.336 127.706 148.223  0.00  0.00    +0.000 OA
BRANCH  34  36
ATOM     35  O   UNL     1     104.931 128.198 149.425  0.00  0.00    +0.000 OA
ATOM     36  C   UNL     1     104.627 128.335 148.671  0.00  0.00    +0.000 C 
ATOM     37  C   UNL     1     104.614 129.101 148.364  0.00  0.00    +0.000 C 
ENDBRANCH  34  36
ENDBRANCH  33  34
ENDBRANCH  30  33
ENDBRANCH  23  32
ENDBRANCH   5  23
TORSDOF 6
ENDMDL
MODEL 7
REMARK VINA RESULT:      -9.0      1.510      4.061
REMARK  Name = 131751771
REMARK  6 active torsions:
REMARK  status: ('A' for Active; 'I' for Inactive)
REMARK    1  A    between atoms: O_2  and  C_19
REMARK    2  A    between atoms: O_2  and  C_21
REMARK    3  A    between atoms: O_6  and  C_20
REMARK    4  A    between atoms: O_6  and  C_27
REMARK    5  A    between atoms: C_17  and  C_20
REMARK    6  A    between atoms: C_22  and  C_26
REMARK                            x       y       z     vdW  Elec       q    Type
REMARK                         _______ _______ _______ _____ _____    ______ ____
ROOT
ATOM      1  O   UNL     1     113.279 127.539 136.851  0.00  0.00    +0.000 OA
ATOM      2  O   UNL     1     111.391 128.089 138.355  0.00  0.00    +0.000 OA
ATOM      3  O   UNL     1     111.574 129.500 138.116  0.00  0.00    +0.000 OA
ATOM      4  O   UNL     1     113.709 130.370 136.321  0.00  0.00    +0.000 OA
ATOM      5  C   UNL     1     112.233 127.118 137.730  0.00  0.00    +0.000 A 
ATOM      6  C   UNL     1     112.862 126.935 137.229  0.00  0.00    +0.000 A 
ATOM      7  C   UNL     1     112.020 127.906 137.853  0.00  0.00    +0.000 A 
ATOM      8  C   UNL     1     112.437 128.510 137.476  0.00  0.00    +0.000 A 
ATOM      9  C   UNL     1     113.065 128.326 136.975  0.00  0.00    +0.000 A 
ATOM     10  C   UNL     1     112.205 129.326 137.613  0.00  0.00    +0.000 A 
ATOM     11  C   UNL     1     113.507 128.945 136.576  0.00  0.00    +0.000 A 
ATOM     12  C   UNL     1     112.635 129.960 137.222  0.00  0.00    +0.000 A 
ATOM     13  C   UNL     1     113.291 129.768 136.700  0.00  0.00    +0.000 A 
ENDROOT
BRANCH   6  17
ATOM     14  O   UNL     1     114.674 124.764 137.647  0.00  0.00    +0.000 OA
ATOM     15  O   UNL     1     112.322 124.379 136.070  0.00  0.00    +0.000 OA
ATOM     16  O   UNL     1     113.709 123.784 136.735  0.00  0.00    +0.000 OA
ATOM     17  C   UNL     1     113.075 126.147 137.106  0.00  0.00    +0.000 A 
ATOM     18  C   UNL     1     112.592 125.657 136.650  0.00  0.00    +0.000 A 
ATOM     19  C   UNL     1     113.769 125.850 137.438  0.00  0.00    +0.000 A 
ATOM     20  C   UNL     1     113.980 125.062 137.315  0.00  0.00    +0.000 A 
ATOM     21  C   UNL     1     112.804 124.869 136.527  0.00  0.00    +0.000 A 
ATOM     22  C   UNL     1     113.498 124.572 136.859  0.00  0.00    +0.000 A 
ENDBRANCH   6  17
BRANCH   5  23
ATOM     23  O   UNL     1     111.816 126.514 138.108  0.00  0.00    +0.000 OA
BRANCH  23  32
ATOM     24  O   UNL     1     112.408 126.774 139.383  0.00  0.00    +0.000 OA
ATOM     25  O   UNL     1     111.657 126.431 141.403  0.00  0.00    +0.000 OA
ATOM     26  O   UNL     1     110.393 125.871 140.502  0.00  0.00    +0.000 OA
ATOM     27  O   UNL     1     110.473 125.913 138.854  0.00  0.00    +0.000 OA
ATOM     28  C   UNL     1     111.697 126.452 140.579  0.00  0.00    +0.000 C 
ATOM     29  C   UNL     1     111.065 126.172 140.129  0.00  0.00    +0.000 C 
ATOM     30  C   UNL     1     112.369 126.753 140.206  0.00  0.00    +0.000 C 
ATOM     31  C   UNL     1     111.105 126.193 139.304  0.00  0.00    +0.000 C 
ATOM     32  C   UNL     1     111.777 126.494 138.931  0.00  0.00    +0.000 C 
BRANCH  30  33
ATOM     33  C   UNL     1     113.000 127.033 140.657  0.00  0.00    +0.000 C 
BRANCH  33  34
ATOM     34  O   UNL     1     113.774 126.927 140.395  0.00  0.00    +0.000 OA
BRANCH  34  36
ATOM     35  O   UNL     1     114.917 126.831 141.246  0.00  0.00    +0.000 OA
ATOM     36  C   UNL     1     114.399 127.287 140.795  0.00  0.00    +0.000 C 
ATOM     37  C   UNL     1     114.506 128.103 140.744  0.00  0.00    +0.000 C 
ENDBRANCH  34  36
ENDBRANCH  33  34
ENDBRANCH  30  33
ENDBRANCH  23  32
ENDBRANCH   5  23
TORSDOF 6
ENDMDL
MODEL 8
REMARK VINA RESULT:      -8.9      1.512      3.499
REMARK  Name = 131751771
REMARK  6 active torsions:
REMARK  status: ('A' for Active; 'I' for Inactive)
REMARK    1  A    between atoms: O_2  and  C_19
REMARK    2  A    between atoms: O_2  and  C_21
REMARK    3  A    between atoms: O_6  and  C_20
REMARK    4  A    between atoms: O_6  and  C_27
REMARK    5  A    between atoms: C_17  and  C_20
REMARK    6  A    between atoms: C_22  and  C_26
REMARK                            x       y       z     vdW  Elec       q    Type
REMARK                         _______ _______ _______ _____ _____    ______ ____
ROOT
ATOM      1  O   UNL     1     112.231 128.361 138.329  0.00  0.00    +0.000 OA
ATOM      2  O   UNL     1     113.826 127.254 136.793  0.00  0.00    +0.000 OA
ATOM      3  O   UNL     1     113.700 128.331 135.841  0.00  0.00    +0.000 OA
ATOM      4  O   UNL     1     111.927 130.569 136.455  0.00  0.00    +0.000 OA
ATOM      5  C   UNL     1     113.100 127.268 138.024  0.00  0.00    +0.000 A 
ATOM      6  C   UNL     1     112.568 127.637 138.536  0.00  0.00    +0.000 A 
ATOM      7  C   UNL     1     113.294 127.623 137.305  0.00  0.00    +0.000 A 
ATOM      8  C   UNL     1     112.957 128.347 137.098  0.00  0.00    +0.000 A 
ATOM      9  C   UNL     1     112.425 128.716 137.610  0.00  0.00    +0.000 A 
ATOM     10  C   UNL     1     113.167 128.707 136.347  0.00  0.00    +0.000 A 
ATOM     11  C   UNL     1     112.067 129.470 137.407  0.00  0.00    +0.000 A 
ATOM     12  C   UNL     1     112.820 129.461 136.125  0.00  0.00    +0.000 A 
ATOM     13  C   UNL     1     112.266 129.845 136.659  0.00  0.00    +0.000 A 
ENDROOT
BRANCH   6  17
ATOM     14  O   UNL     1     110.733 126.155 140.149  0.00  0.00    +0.000 OA
ATOM     15  O   UNL     1     113.242 126.986 141.236  0.00  0.00    +0.000 OA
ATOM     16  O   UNL     1     111.794 126.215 141.411  0.00  0.00    +0.000 OA
ATOM     17  C   UNL     1     112.374 127.281 139.254  0.00  0.00    +0.000 A 
ATOM     18  C   UNL     1     112.905 127.311 139.886  0.00  0.00    +0.000 A 
ATOM     19  C   UNL     1     111.650 126.896 139.342  0.00  0.00    +0.000 A 
ATOM     20  C   UNL     1     111.457 126.540 140.062  0.00  0.00    +0.000 A 
ATOM     21  C   UNL     1     112.711 126.956 140.604  0.00  0.00    +0.000 A 
ATOM     22  C   UNL     1     111.987 126.570 140.692  0.00  0.00    +0.000 A 
ENDBRANCH   6  17
BRANCH   5  23
ATOM     23  O   UNL     1     113.437 126.544 138.230  0.00  0.00    +0.000 OA
BRANCH  23  32
ATOM     24  O   UNL     1     112.594 125.779 137.367  0.00  0.00    +0.000 OA
ATOM     25  O   UNL     1     112.948 123.892 136.327  0.00  0.00    +0.000 OA
ATOM     26  O   UNL     1     114.390 124.097 137.103  0.00  0.00    +0.000 OA
ATOM     27  O   UNL     1     114.635 125.423 138.054  0.00  0.00    +0.000 OA
ATOM     28  C   UNL     1     113.070 124.556 136.803  0.00  0.00    +0.000 C 
ATOM     29  C   UNL     1     113.791 124.657 137.191  0.00  0.00    +0.000 C 
ATOM     30  C   UNL     1     112.471 125.116 136.891  0.00  0.00    +0.000 C 
ATOM     31  C   UNL     1     113.913 125.321 137.667  0.00  0.00    +0.000 C 
ATOM     32  C   UNL     1     113.315 125.881 137.755  0.00  0.00    +0.000 C 
BRANCH  30  33
ATOM     33  C   UNL     1     111.750 125.013 136.503  0.00  0.00    +0.000 C 
BRANCH  33  34
ATOM     34  O   UNL     1     111.467 125.599 135.997  0.00  0.00    +0.000 OA
BRANCH  34  36
ATOM     35  O   UNL     1     110.092 125.629 136.384  0.00  0.00    +0.000 OA
ATOM     36  C   UNL     1     110.668 125.617 135.794  0.00  0.00    +0.000 C 
ATOM     37  C   UNL     1     110.444 125.622 134.999  0.00  0.00    +0.000 C 
ENDBRANCH  34  36
ENDBRANCH  33  34
ENDBRANCH  30  33
ENDBRANCH  23  32
ENDBRANCH   5  23
TORSDOF 6
ENDMDL
MODEL 9
REMARK VINA RESULT:      -8.9      2.023      4.162
REMARK  Name = 131751771
REMARK  6 active torsions:
REMARK  status: ('A' for Active; 'I' for Inactive)
REMARK    1  A    between atoms: O_2  and  C_19
REMARK    2  A    between atoms: O_2  and  C_21
REMARK    3  A    between atoms: O_6  and  C_20
REMARK    4  A    between atoms: O_6  and  C_27
REMARK    5  A    between atoms: C_17  and  C_20
REMARK    6  A    between atoms: C_22  and  C_26
REMARK                            x       y       z     vdW  Elec       q    Type
REMARK                         _______ _______ _______ _____ _____    ______ ____
ROOT
ATOM      1  O   UNL     1     111.816 125.965 136.106  0.00  0.00    +0.000 OA
ATOM      2  O   UNL     1     111.966 128.280 135.242  0.00  0.00    +0.000 OA
ATOM      3  O   UNL     1     110.673 128.160 134.612  0.00  0.00    +0.000 OA
ATOM      4  O   UNL     1     109.201 125.649 134.862  0.00  0.00    +0.000 OA
ATOM      5  C   UNL     1     112.532 127.196 135.980  0.00  0.00    +0.000 A 
ATOM      6  C   UNL     1     112.482 126.424 136.269  0.00  0.00    +0.000 A 
ATOM      7  C   UNL     1     111.916 127.508 135.530  0.00  0.00    +0.000 A 
ATOM      8  C   UNL     1     111.250 127.049 135.367  0.00  0.00    +0.000 A 
ATOM      9  C   UNL     1     111.200 126.279 135.655  0.00  0.00    +0.000 A 
ATOM     10  C   UNL     1     110.615 127.387 134.896  0.00  0.00    +0.000 A 
ATOM     11  C   UNL     1     110.512 125.790 135.492  0.00  0.00    +0.000 A 
ATOM     12  C   UNL     1     109.918 126.915 134.723  0.00  0.00    +0.000 A 
ATOM     13  C   UNL     1     109.866 126.110 135.023  0.00  0.00    +0.000 A 
ENDROOT
BRANCH   6  17
ATOM     14  O   UNL     1     115.055 125.190 136.427  0.00  0.00    +0.000 OA
ATOM     15  O   UNL     1     113.605 125.785 138.818  0.00  0.00    +0.000 OA
ATOM     16  O   UNL     1     114.946 125.175 138.074  0.00  0.00    +0.000 OA
ATOM     17  C   UNL     1     113.098 126.112 136.719  0.00  0.00    +0.000 A 
ATOM     18  C   UNL     1     113.044 126.104 137.543  0.00  0.00    +0.000 A 
ATOM     19  C   UNL     1     113.769 125.807 136.347  0.00  0.00    +0.000 A 
ATOM     20  C   UNL     1     114.385 125.495 136.799  0.00  0.00    +0.000 A 
ATOM     21  C   UNL     1     113.660 125.792 137.994  0.00  0.00    +0.000 A 
ATOM     22  C   UNL     1     114.330 125.487 137.622  0.00  0.00    +0.000 A 
ENDBRANCH   6  17
BRANCH   5  23
ATOM     23  O   UNL     1     113.198 127.655 136.143  0.00  0.00    +0.000 OA
BRANCH  23  32
ATOM     24  O   UNL     1     112.535 128.503 137.082  0.00  0.00    +0.000 OA
ATOM     25  O   UNL     1     112.859 130.601 137.591  0.00  0.00    +0.000 OA
ATOM     26  O   UNL     1     114.017 130.377 136.437  0.00  0.00    +0.000 OA
ATOM     27  O   UNL     1     114.187 128.904 135.713  0.00  0.00    +0.000 OA
ATOM     28  C   UNL     1     112.944 129.863 137.229  0.00  0.00    +0.000 C 
ATOM     29  C   UNL     1     113.523 129.752 136.652  0.00  0.00    +0.000 C 
ATOM     30  C   UNL     1     112.450 129.239 137.444  0.00  0.00    +0.000 C 
ATOM     31  C   UNL     1     113.608 129.015 136.290  0.00  0.00    +0.000 C 
ATOM     32  C   UNL     1     113.113 128.390 136.505  0.00  0.00    +0.000 C 
BRANCH  30  33
ATOM     33  C   UNL     1     111.871 129.351 138.021  0.00  0.00    +0.000 C 
BRANCH  33  34
ATOM     34  O   UNL     1     111.742 128.774 138.595  0.00  0.00    +0.000 OA
BRANCH  34  36
ATOM     35  O   UNL     1     111.163 129.172 139.839  0.00  0.00    +0.000 OA
ATOM     36  C   UNL     1     111.088 128.826 139.093  0.00  0.00    +0.000 C 
ATOM     37  C   UNL     1     110.357 128.532 138.847  0.00  0.00    +0.000 C 
ENDBRANCH  34  36
ENDBRANCH  33  34
ENDBRANCH  30  33
ENDBRANCH  23  32
ENDBRANCH   5  23
TORSDOF 6
ENDMDL
MODEL 10
REMARK VINA RESULT:      -8.9      1.454      3.503
REMARK  Name = 131751771
REMARK  6 active torsions:
REMARK  status: ('A' for Active; 'I' for Inactive)
REMARK    1  A    between atoms: O_2  and  C_19
REMARK    2  A    between atoms: O_2  and  C_21
REMARK    3  A    between atoms: O_6  and  C_20
REMARK    4  A    between atoms: O_6  and  C_27
REMARK    5  A    between atoms: C_17  and  C_20
REMARK    6  A    between atoms: C_22  and  C_26
REMARK                            x       y       z     vdW  Elec       q    Type
REMARK                         _______ _______ _______ _____ _____    ______ ____
ROOT
ATOM      1  O   UNL     1     113.457 127.270 136.450  0.00  0.00    +0.000 OA
ATOM      2  O   UNL     1     112.807 128.266 138.622  0.00  0.00    +0.000 OA
ATOM      3  O   UNL     1     112.952 129.598 138.086  0.00  0.00    +0.000 OA
ATOM      4  O   UNL     1     113.770 129.928 135.302  0.00  0.00    +0.000 OA
ATOM      5  C   UNL     1     113.057 127.114 137.814  0.00  0.00    +0.000 A 
ATOM      6  C   UNL     1     113.273 126.782 137.089  0.00  0.00    +0.000 A 
ATOM      7  C   UNL     1     113.024 127.934 137.897  0.00  0.00    +0.000 A 
ATOM      8  C   UNL     1     113.208 128.422 137.258  0.00  0.00    +0.000 A 
ATOM      9  C   UNL     1     113.424 128.090 136.535  0.00  0.00    +0.000 A 
ATOM     10  C   UNL     1     113.170 129.275 137.359  0.00  0.00    +0.000 A 
ATOM     11  C   UNL     1     113.618 128.587 135.862  0.00  0.00    +0.000 A 
ATOM     12  C   UNL     1     113.360 129.788 136.697  0.00  0.00    +0.000 A 
ATOM     13  C   UNL     1     113.586 129.442 135.943  0.00  0.00    +0.000 A 
ENDROOT
BRANCH   6  17
ATOM     14  O   UNL     1     114.630 124.302 137.511  0.00  0.00    +0.000 OA
ATOM     15  O   UNL     1     112.110 124.341 136.164  0.00  0.00    +0.000 OA
ATOM     16  O   UNL     1     113.402 123.501 136.753  0.00  0.00    +0.000 OA
ATOM     17  C   UNL     1     113.306 125.962 137.006  0.00  0.00    +0.000 A 
ATOM     18  C   UNL     1     112.692 125.561 136.626  0.00  0.00    +0.000 A 
ATOM     19  C   UNL     1     113.952 125.542 137.300  0.00  0.00    +0.000 A 
ATOM     20  C   UNL     1     113.984 124.722 137.216  0.00  0.00    +0.000 A 
ATOM     21  C   UNL     1     112.724 124.741 136.543  0.00  0.00    +0.000 A 
ATOM     22  C   UNL     1     113.370 124.322 136.838  0.00  0.00    +0.000 A 
ENDBRANCH   6  17
BRANCH   5  23
ATOM     23  O   UNL     1     112.873 126.626 138.453  0.00  0.00    +0.000 OA
BRANCH  23  32
ATOM     24  O   UNL     1     111.470 126.878 138.355  0.00  0.00    +0.000 OA
ATOM     25  O   UNL     1     109.897 126.811 139.868  0.00  0.00    +0.000 OA
ATOM     26  O   UNL     1     111.216 126.399 140.770  0.00  0.00    +0.000 OA
ATOM     27  O   UNL     1     112.704 126.306 140.063  0.00  0.00    +0.000 OA
ATOM     28  C   UNL     1     110.642 126.765 139.514  0.00  0.00    +0.000 C 
ATOM     29  C   UNL     1     111.300 126.558 139.965  0.00  0.00    +0.000 C 
ATOM     30  C   UNL     1     110.726 126.924 138.709  0.00  0.00    +0.000 C 
ATOM     31  C   UNL     1     112.045 126.512 139.611  0.00  0.00    +0.000 C 
ATOM     32  C   UNL     1     112.129 126.672 138.806  0.00  0.00    +0.000 C 
BRANCH  30  33
ATOM     33  C   UNL     1     110.066 127.130 138.258  0.00  0.00    +0.000 C 
BRANCH  33  34
ATOM     34  O   UNL     1     109.966 126.813 137.504  0.00  0.00    +0.000 OA
BRANCH  34  36
ATOM     35  O   UNL     1     108.601 126.818 137.084  0.00  0.00    +0.000 OA
ATOM     36  C   UNL     1     109.372 127.102 137.011  0.00  0.00    +0.000 C 
ATOM     37  C   UNL     1     109.548 127.674 136.443  0.00  0.00    +0.000 C 
ENDBRANCH  34  36
ENDBRANCH  33  34
ENDBRANCH  30  33
ENDBRANCH  23  32
ENDBRANCH   5  23
TORSDOF 6
ENDMDL
