MODEL 1
REMARK VINA RESULT:      -8.8      0.000      0.000
REMARK  Name = 42608105
REMARK  3 active torsions:
REMARK  status: ('A' for Active; 'I' for Inactive)
REMARK    1  A    between atoms: O_5  and  C_19
REMARK    2  A    between atoms: O_7  and  C_22
REMARK    3  A    between atoms: C_9  and  C_11
REMARK                            x       y       z     vdW  Elec       q    Type
REMARK                         _______ _______ _______ _____ _____    ______ ____
ROOT
ATOM      1  O   UNL     1     104.839 124.033 146.777  0.00  0.00    +0.000 OA
ATOM      2  O   UNL     1     102.896 125.197 147.910  0.00  0.00    +0.000 OA
ATOM      3  O   UNL     1     101.998 124.545 146.986  0.00  0.00    +0.000 OA
ATOM      4  O   UNL     1     102.981 122.773 144.971  0.00  0.00    +0.000 OA
ATOM      5  C   UNL     1     104.992 124.559 147.439  0.00  0.00    +0.000 C 
ATOM      6  C   UNL     1     104.334 124.955 147.826  0.00  0.00    +0.000 C 
ATOM      7  C   UNL     1     103.401 124.291 146.881  0.00  0.00    +0.000 A 
ATOM      8  C   UNL     1     103.533 124.820 147.545  0.00  0.00    +0.000 C 
ATOM      9  C   UNL     1     104.032 123.911 146.510  0.00  0.00    +0.000 A 
ATOM     10  C   UNL     1     102.630 124.165 146.615  0.00  0.00    +0.000 A 
ATOM     11  C   UNL     1     103.892 123.405 145.873  0.00  0.00    +0.000 A 
ATOM     12  C   UNL     1     102.490 123.660 145.979  0.00  0.00    +0.000 A 
ATOM     13  C   UNL     1     103.121 123.279 145.608  0.00  0.00    +0.000 A 
ENDROOT
BRANCH   5  16
ATOM     14  O   UNL     1     107.230 124.113 149.275  0.00  0.00    +0.000 OA
ATOM     15  O   UNL     1     108.031 124.942 148.615  0.00  0.00    +0.000 OA
ATOM     16  C   UNL     1     105.764 124.683 147.703  0.00  0.00    +0.000 A 
ATOM     17  C   UNL     1     106.038 124.292 148.376  0.00  0.00    +0.000 A 
ATOM     18  C   UNL     1     106.262 125.198 147.293  0.00  0.00    +0.000 A 
ATOM     19  C   UNL     1     106.810 124.416 148.639  0.00  0.00    +0.000 A 
ATOM     20  C   UNL     1     107.308 124.930 148.230  0.00  0.00    +0.000 A 
ATOM     21  C   UNL     1     107.033 125.322 147.556  0.00  0.00    +0.000 A 
ATOM     22  C   UNL     1     107.983 124.438 149.260  0.00  0.00    +0.000 C 
BRANCH  21  23
ATOM     23  O   UNL     1     107.531 125.837 147.147  0.00  0.00    +0.000 OA
ATOM     24  C   UNL     1     107.214 126.483 146.743  0.00  0.00    +0.000 C 
ENDBRANCH  21  23
ENDBRANCH   5  16
BRANCH  12  25
ATOM     25  O   UNL     1     101.719 123.534 145.713  0.00  0.00    +0.000 OA
ATOM     26  C   UNL     1     101.314 122.849 145.929  0.00  0.00    +0.000 C 
ENDBRANCH  12  25
TORSDOF 3
ENDMDL
MODEL 2
REMARK VINA RESULT:      -8.7      6.861      9.317
REMARK  Name = 42608105
REMARK  3 active torsions:
REMARK  status: ('A' for Active; 'I' for Inactive)
REMARK    1  A    between atoms: O_5  and  C_19
REMARK    2  A    between atoms: O_7  and  C_22
REMARK    3  A    between atoms: C_9  and  C_11
REMARK                            x       y       z     vdW  Elec       q    Type
REMARK                         _______ _______ _______ _____ _____    ______ ____
ROOT
ATOM      1  O   UNL     1     104.504 124.658 139.332  0.00  0.00    +0.000 OA
ATOM      2  O   UNL     1     105.983 122.874 140.352  0.00  0.00    +0.000 OA
ATOM      3  O   UNL     1     106.508 123.863 141.263  0.00  0.00    +0.000 OA
ATOM      4  O   UNL     1     105.601 126.573 141.183  0.00  0.00    +0.000 OA
ATOM      5  C   UNL     1     104.470 123.856 139.023  0.00  0.00    +0.000 C 
ATOM      6  C   UNL     1     104.971 123.248 139.368  0.00  0.00    +0.000 C 
ATOM      7  C   UNL     1     105.519 124.258 140.310  0.00  0.00    +0.000 A 
ATOM      8  C   UNL     1     105.499 123.451 140.016  0.00  0.00    +0.000 C 
ATOM      9  C   UNL     1     105.038 124.841 139.979  0.00  0.00    +0.000 A 
ATOM     10  C   UNL     1     106.027 124.447 140.932  0.00  0.00    +0.000 A 
ATOM     11  C   UNL     1     105.065 125.613 140.271  0.00  0.00    +0.000 A 
ATOM     12  C   UNL     1     106.055 125.217 141.223  0.00  0.00    +0.000 A 
ATOM     13  C   UNL     1     105.574 125.801 140.892  0.00  0.00    +0.000 A 
ENDROOT
BRANCH   5  16
ATOM     14  O   UNL     1     103.893 123.142 136.243  0.00  0.00    +0.000 OA
ATOM     15  O   UNL     1     102.581 123.103 136.448  0.00  0.00    +0.000 OA
ATOM     16  C   UNL     1     103.961 123.671 138.402  0.00  0.00    +0.000 A 
ATOM     17  C   UNL     1     104.266 123.509 137.652  0.00  0.00    +0.000 A 
ATOM     18  C   UNL     1     103.146 123.646 138.529  0.00  0.00    +0.000 A 
ATOM     19  C   UNL     1     103.757 123.324 137.030  0.00  0.00    +0.000 A 
ATOM     20  C   UNL     1     102.942 123.300 137.158  0.00  0.00    +0.000 A 
ATOM     21  C   UNL     1     102.637 123.461 137.908  0.00  0.00    +0.000 A 
ATOM     22  C   UNL     1     103.168 123.006 135.884  0.00  0.00    +0.000 C 
BRANCH  21  23
ATOM     23  O   UNL     1     101.822 123.437 138.036  0.00  0.00    +0.000 OA
ATOM     24  C   UNL     1     101.522 123.103 138.728  0.00  0.00    +0.000 C 
ENDBRANCH  21  23
ENDBRANCH   5  16
BRANCH  12  25
ATOM     25  O   UNL     1     106.563 125.406 141.845  0.00  0.00    +0.000 OA
ATOM     26  C   UNL     1     106.266 125.493 142.609  0.00  0.00    +0.000 C 
ENDBRANCH  12  25
TORSDOF 3
ENDMDL
MODEL 3
REMARK VINA RESULT:      -8.4      0.943      4.875
REMARK  Name = 42608105
REMARK  3 active torsions:
REMARK  status: ('A' for Active; 'I' for Inactive)
REMARK    1  A    between atoms: O_5  and  C_19
REMARK    2  A    between atoms: O_7  and  C_22
REMARK    3  A    between atoms: C_9  and  C_11
REMARK                            x       y       z     vdW  Elec       q    Type
REMARK                         _______ _______ _______ _____ _____    ______ ____
ROOT
ATOM      1  O   UNL     1     104.836 124.459 147.478  0.00  0.00    +0.000 OA
ATOM      2  O   UNL     1     105.978 125.266 145.367  0.00  0.00    +0.000 OA
ATOM      3  O   UNL     1     107.189 125.463 146.127  0.00  0.00    +0.000 OA
ATOM      4  O   UNL     1     107.292 124.881 148.923  0.00  0.00    +0.000 OA
ATOM      5  C   UNL     1     104.391 124.487 146.744  0.00  0.00    +0.000 C 
ATOM      6  C   UNL     1     104.776 124.760 146.025  0.00  0.00    +0.000 C 
ATOM      7  C   UNL     1     106.028 124.968 146.796  0.00  0.00    +0.000 A 
ATOM      8  C   UNL     1     105.601 125.002 146.052  0.00  0.00    +0.000 C 
ATOM      9  C   UNL     1     105.659 124.705 147.485  0.00  0.00    +0.000 A 
ATOM     10  C   UNL     1     106.820 125.201 146.816  0.00  0.00    +0.000 A 
ATOM     11  C   UNL     1     106.080 124.677 148.195  0.00  0.00    +0.000 A 
ATOM     12  C   UNL     1     107.241 125.173 147.524  0.00  0.00    +0.000 A 
ATOM     13  C   UNL     1     106.871 124.910 148.214  0.00  0.00    +0.000 A 
ENDROOT
BRANCH   5  16
ATOM     14  O   UNL     1     102.201 122.739 145.893  0.00  0.00    +0.000 OA
ATOM     15  O   UNL     1     101.291 123.426 146.574  0.00  0.00    +0.000 OA
ATOM     16  C   UNL     1     103.600 124.252 146.727  0.00  0.00    +0.000 A 
ATOM     17  C   UNL     1     103.374 123.592 146.287  0.00  0.00    +0.000 A 
ATOM     18  C   UNL     1     103.034 124.679 147.150  0.00  0.00    +0.000 A 
ATOM     19  C   UNL     1     102.584 123.357 146.271  0.00  0.00    +0.000 A 
ATOM     20  C   UNL     1     102.018 123.784 146.694  0.00  0.00    +0.000 A 
ATOM     21  C   UNL     1     102.244 124.446 147.133  0.00  0.00    +0.000 A 
ATOM     22  C   UNL     1     101.403 122.781 146.080  0.00  0.00    +0.000 C 
BRANCH  21  23
ATOM     23  O   UNL     1     101.679 124.872 147.556  0.00  0.00    +0.000 OA
ATOM     24  C   UNL     1     101.897 125.286 148.236  0.00  0.00    +0.000 C 
ENDBRANCH  21  23
ENDBRANCH   5  16
BRANCH  12  25
ATOM     25  O   UNL     1     108.032 125.406 147.545  0.00  0.00    +0.000 OA
ATOM     26  C   UNL     1     108.598 124.916 147.889  0.00  0.00    +0.000 C 
ENDBRANCH  12  25
TORSDOF 3
ENDMDL
MODEL 4
REMARK VINA RESULT:      -8.3     11.220     12.771
REMARK  Name = 42608105
REMARK  3 active torsions:
REMARK  status: ('A' for Active; 'I' for Inactive)
REMARK    1  A    between atoms: O_5  and  C_19
REMARK    2  A    between atoms: O_7  and  C_22
REMARK    3  A    between atoms: C_9  and  C_11
REMARK                            x       y       z     vdW  Elec       q    Type
REMARK                         _______ _______ _______ _____ _____    ______ ____
ROOT
ATOM      1  O   UNL     1     110.602 127.358 136.121  0.00  0.00    +0.000 OA
ATOM      2  O   UNL     1     108.073 127.339 136.256  0.00  0.00    +0.000 OA
ATOM      3  O   UNL     1     108.057 128.661 135.677  0.00  0.00    +0.000 OA
ATOM      4  O   UNL     1     110.483 129.996 134.971  0.00  0.00    +0.000 OA
ATOM      5  C   UNL     1     110.203 126.668 136.444  0.00  0.00    +0.000 C 
ATOM      6  C   UNL     1     109.344 126.659 136.491  0.00  0.00    +0.000 C 
ATOM      7  C   UNL     1     109.314 128.019 135.896  0.00  0.00    +0.000 A 
ATOM      8  C   UNL     1     108.897 127.340 136.215  0.00  0.00    +0.000 C 
ATOM      9  C   UNL     1     110.138 128.028 135.851  0.00  0.00    +0.000 A 
ATOM     10  C   UNL     1     108.881 128.670 135.632  0.00  0.00    +0.000 A 
ATOM     11  C   UNL     1     110.528 128.687 135.542  0.00  0.00    +0.000 A 
ATOM     12  C   UNL     1     109.269 129.328 135.324  0.00  0.00    +0.000 A 
ATOM     13  C   UNL     1     110.093 129.337 135.279  0.00  0.00    +0.000 A 
ENDROOT
BRANCH   5  16
ATOM     14  O   UNL     1     111.616 124.135 136.043  0.00  0.00    +0.000 OA
ATOM     15  O   UNL     1     111.941 124.029 137.326  0.00  0.00    +0.000 OA
ATOM     16  C   UNL     1     110.640 126.019 136.706  0.00  0.00    +0.000 A 
ATOM     17  C   UNL     1     110.874 125.436 136.171  0.00  0.00    +0.000 A 
ATOM     18  C   UNL     1     110.842 125.953 137.503  0.00  0.00    +0.000 A 
ATOM     19  C   UNL     1     111.311 124.787 136.434  0.00  0.00    +0.000 A 
ATOM     20  C   UNL     1     111.513 124.722 137.231  0.00  0.00    +0.000 A 
ATOM     21  C   UNL     1     111.278 125.306 137.766  0.00  0.00    +0.000 A 
ATOM     22  C   UNL     1     112.005 123.667 136.593  0.00  0.00    +0.000 C 
BRANCH  21  23
ATOM     23  O   UNL     1     111.480 125.240 138.563  0.00  0.00    +0.000 OA
ATOM     24  C   UNL     1     111.517 125.915 139.036  0.00  0.00    +0.000 C 
ENDBRANCH  21  23
ENDBRANCH   5  16
BRANCH  12  25
ATOM     25  O   UNL     1     108.836 129.979 135.061  0.00  0.00    +0.000 OA
ATOM     26  C   UNL     1     108.787 130.659 135.525  0.00  0.00    +0.000 C 
ENDBRANCH  12  25
TORSDOF 3
ENDMDL
MODEL 5
REMARK VINA RESULT:      -8.2      2.336      3.323
REMARK  Name = 42608105
REMARK  3 active torsions:
REMARK  status: ('A' for Active; 'I' for Inactive)
REMARK    1  A    between atoms: O_5  and  C_19
REMARK    2  A    between atoms: O_7  and  C_22
REMARK    3  A    between atoms: C_9  and  C_11
REMARK                            x       y       z     vdW  Elec       q    Type
REMARK                         _______ _______ _______ _____ _____    ______ ____
ROOT
ATOM      1  O   UNL     1     106.102 124.806 145.958  0.00  0.00    +0.000 OA
ATOM      2  O   UNL     1     106.583 127.210 145.322  0.00  0.00    +0.000 OA
ATOM      3  O   UNL     1     106.184 126.907 143.969  0.00  0.00    +0.000 OA
ATOM      4  O   UNL     1     105.322 124.283 143.234  0.00  0.00    +0.000 OA
ATOM      5  C   UNL     1     106.387 125.351 146.558  0.00  0.00    +0.000 C 
ATOM      6  C   UNL     1     106.551 126.168 146.345  0.00  0.00    +0.000 C 
ATOM      7  C   UNL     1     106.143 125.868 144.949  0.00  0.00    +0.000 A 
ATOM      8  C   UNL     1     106.428 126.428 145.535  0.00  0.00    +0.000 C 
ATOM      9  C   UNL     1     105.985 125.084 145.153  0.00  0.00    +0.000 A 
ATOM     10  C   UNL     1     106.027 126.123 144.173  0.00  0.00    +0.000 A 
ATOM     11  C   UNL     1     105.712 124.556 144.581  0.00  0.00    +0.000 A 
ATOM     12  C   UNL     1     105.753 125.595 143.602  0.00  0.00    +0.000 A 
ATOM     13  C   UNL     1     105.596 124.812 143.806  0.00  0.00    +0.000 A 
ENDROOT
BRANCH   5  16
ATOM     14  O   UNL     1     108.059 124.545 148.822  0.00  0.00    +0.000 OA
ATOM     15  O   UNL     1     107.014 124.327 149.612  0.00  0.00    +0.000 OA
ATOM     16  C   UNL     1     106.502 125.093 147.333  0.00  0.00    +0.000 A 
ATOM     17  C   UNL     1     107.266 124.970 147.618  0.00  0.00    +0.000 A 
ATOM     18  C   UNL     1     105.852 124.958 147.824  0.00  0.00    +0.000 A 
ATOM     19  C   UNL     1     107.382 124.712 148.393  0.00  0.00    +0.000 A 
ATOM     20  C   UNL     1     106.732 124.576 148.883  0.00  0.00    +0.000 A 
ATOM     21  C   UNL     1     105.967 124.700 148.598  0.00  0.00    +0.000 A 
ATOM     22  C   UNL     1     107.833 124.307 149.574  0.00  0.00    +0.000 C 
BRANCH  21  23
ATOM     23  O   UNL     1     105.317 124.565 149.089  0.00  0.00    +0.000 OA
ATOM     24  C   UNL     1     104.579 124.876 148.891  0.00  0.00    +0.000 C 
ENDBRANCH  21  23
ENDBRANCH   5  16
BRANCH  12  25
ATOM     25  O   UNL     1     105.637 125.850 142.825  0.00  0.00    +0.000 OA
ATOM     26  C   UNL     1     106.161 125.619 142.232  0.00  0.00    +0.000 C 
ENDBRANCH  12  25
TORSDOF 3
ENDMDL
MODEL 6
REMARK VINA RESULT:      -8.1     12.800     14.091
REMARK  Name = 42608105
REMARK  3 active torsions:
REMARK  status: ('A' for Active; 'I' for Inactive)
REMARK    1  A    between atoms: O_5  and  C_19
REMARK    2  A    between atoms: O_7  and  C_22
REMARK    3  A    between atoms: C_9  and  C_11
REMARK                            x       y       z     vdW  Elec       q    Type
REMARK                         _______ _______ _______ _____ _____    ______ ____
ROOT
ATOM      1  O   UNL     1     113.477 126.861 136.646  0.00  0.00    +0.000 OA
ATOM      2  O   UNL     1     111.121 126.493 135.794  0.00  0.00    +0.000 OA
ATOM      3  O   UNL     1     111.299 125.074 135.988  0.00  0.00    +0.000 OA
ATOM      4  O   UNL     1     113.752 124.016 137.004  0.00  0.00    +0.000 OA
ATOM      5  C   UNL     1     113.006 127.539 136.408  0.00  0.00    +0.000 C 
ATOM      6  C   UNL     1     112.205 127.417 136.118  0.00  0.00    +0.000 C 
ATOM      7  C   UNL     1     112.376 125.954 136.314  0.00  0.00    +0.000 A 
ATOM      8  C   UNL     1     111.888 126.619 136.071  0.00  0.00    +0.000 C 
ATOM      9  C   UNL     1     113.144 126.072 136.591  0.00  0.00    +0.000 A 
ATOM     10  C   UNL     1     112.067 125.191 136.266  0.00  0.00    +0.000 A 
ATOM     11  C   UNL     1     113.603 125.425 136.822  0.00  0.00    +0.000 A 
ATOM     12  C   UNL     1     112.525 124.545 136.496  0.00  0.00    +0.000 A 
ATOM     13  C   UNL     1     113.293 124.662 136.774  0.00  0.00    +0.000 A 
ENDROOT
BRANCH   5  16
ATOM     14  O   UNL     1     113.485 130.083 137.776  0.00  0.00    +0.000 OA
ATOM     15  O   UNL     1     114.178 130.583 136.759  0.00  0.00    +0.000 OA
ATOM     16  C   UNL     1     113.318 128.301 136.457  0.00  0.00    +0.000 A 
ATOM     17  C   UNL     1     113.199 128.753 137.137  0.00  0.00    +0.000 A 
ATOM     18  C   UNL     1     113.748 128.612 135.825  0.00  0.00    +0.000 A 
ATOM     19  C   UNL     1     113.511 129.515 137.186  0.00  0.00    +0.000 A 
ATOM     20  C   UNL     1     113.941 129.825 136.554  0.00  0.00    +0.000 A 
ATOM     21  C   UNL     1     114.060 129.373 135.874  0.00  0.00    +0.000 A 
ATOM     22  C   UNL     1     113.897 130.742 137.513  0.00  0.00    +0.000 C 
BRANCH  21  23
ATOM     23  O   UNL     1     114.491 129.683 135.242  0.00  0.00    +0.000 OA
ATOM     24  C   UNL     1     114.827 129.178 134.684  0.00  0.00    +0.000 C 
ENDBRANCH  21  23
ENDBRANCH   5  16
BRANCH  12  25
ATOM     25  O   UNL     1     112.216 123.781 136.448  0.00  0.00    +0.000 OA
ATOM     26  C   UNL     1     111.931 123.408 137.126  0.00  0.00    +0.000 C 
ENDBRANCH  12  25
TORSDOF 3
ENDMDL
MODEL 7
REMARK VINA RESULT:      -8.1     12.715     14.059
REMARK  Name = 42608105
REMARK  3 active torsions:
REMARK  status: ('A' for Active; 'I' for Inactive)
REMARK    1  A    between atoms: O_5  and  C_19
REMARK    2  A    between atoms: O_7  and  C_22
REMARK    3  A    between atoms: C_9  and  C_11
REMARK                            x       y       z     vdW  Elec       q    Type
REMARK                         _______ _______ _______ _____ _____    ______ ____
ROOT
ATOM      1  O   UNL     1     113.472 126.747 136.614  0.00  0.00    +0.000 OA
ATOM      2  O   UNL     1     111.100 126.408 135.797  0.00  0.00    +0.000 OA
ATOM      3  O   UNL     1     111.250 124.991 136.024  0.00  0.00    +0.000 OA
ATOM      4  O   UNL     1     113.691 123.906 137.039  0.00  0.00    +0.000 OA
ATOM      5  C   UNL     1     113.012 127.429 136.365  0.00  0.00    +0.000 C 
ATOM      6  C   UNL     1     112.206 127.317 136.087  0.00  0.00    +0.000 C 
ATOM      7  C   UNL     1     112.349 125.856 136.316  0.00  0.00    +0.000 A 
ATOM      8  C   UNL     1     111.873 126.525 136.062  0.00  0.00    +0.000 C 
ATOM      9  C   UNL     1     113.122 125.964 136.583  0.00  0.00    +0.000 A 
ATOM     10  C   UNL     1     112.023 125.098 136.290  0.00  0.00    +0.000 A 
ATOM     11  C   UNL     1     113.570 125.313 136.824  0.00  0.00    +0.000 A 
ATOM     12  C   UNL     1     112.470 124.449 136.531  0.00  0.00    +0.000 A 
ATOM     13  C   UNL     1     113.243 124.556 136.798  0.00  0.00    +0.000 A 
ENDROOT
BRANCH   5  16
ATOM     14  O   UNL     1     114.602 129.628 135.264  0.00  0.00    +0.000 OA
ATOM     15  O   UNL     1     114.387 130.407 136.318  0.00  0.00    +0.000 OA
ATOM     16  C   UNL     1     113.341 128.185 136.392  0.00  0.00    +0.000 A 
ATOM     17  C   UNL     1     113.802 128.457 135.764  0.00  0.00    +0.000 A 
ATOM     18  C   UNL     1     113.208 128.669 137.046  0.00  0.00    +0.000 A 
ATOM     19  C   UNL     1     114.130 129.214 135.791  0.00  0.00    +0.000 A 
ATOM     20  C   UNL     1     113.997 129.698 136.446  0.00  0.00    +0.000 A 
ATOM     21  C   UNL     1     113.535 129.425 137.074  0.00  0.00    +0.000 A 
ATOM     22  C   UNL     1     114.760 130.364 135.589  0.00  0.00    +0.000 C 
BRANCH  21  23
ATOM     23  O   UNL     1     113.402 129.909 137.728  0.00  0.00    +0.000 OA
ATOM     24  C   UNL     1     113.164 129.578 138.445  0.00  0.00    +0.000 C 
ENDBRANCH  21  23
ENDBRANCH   5  16
BRANCH  12  25
ATOM     25  O   UNL     1     112.145 123.691 136.505  0.00  0.00    +0.000 OA
ATOM     26  C   UNL     1     111.889 123.327 137.200  0.00  0.00    +0.000 C 
ENDBRANCH  12  25
TORSDOF 3
ENDMDL
MODEL 8
REMARK VINA RESULT:      -8.0     12.903     14.341
REMARK  Name = 42608105
REMARK  3 active torsions:
REMARK  status: ('A' for Active; 'I' for Inactive)
REMARK    1  A    between atoms: O_5  and  C_19
REMARK    2  A    between atoms: O_7  and  C_22
REMARK    3  A    between atoms: C_9  and  C_11
REMARK                            x       y       z     vdW  Elec       q    Type
REMARK                         _______ _______ _______ _____ _____    ______ ____
ROOT
ATOM      1  O   UNL     1     113.060 127.320 135.935  0.00  0.00    +0.000 OA
ATOM      2  O   UNL     1     112.616 128.698 138.012  0.00  0.00    +0.000 OA
ATOM      3  O   UNL     1     113.317 129.801 137.400  0.00  0.00    +0.000 OA
ATOM      4  O   UNL     1     114.444 129.569 134.784  0.00  0.00    +0.000 OA
ATOM      5  C   UNL     1     112.624 126.969 136.587  0.00  0.00    +0.000 C 
ATOM      6  C   UNL     1     112.472 127.434 137.294  0.00  0.00    +0.000 C 
ATOM      7  C   UNL     1     113.191 128.577 136.675  0.00  0.00    +0.000 A 
ATOM      8  C   UNL     1     112.758 128.244 137.338  0.00  0.00    +0.000 C 
ATOM      9  C   UNL     1     113.337 128.130 135.997  0.00  0.00    +0.000 A 
ATOM     10  C   UNL     1     113.463 129.355 136.722  0.00  0.00    +0.000 A 
ATOM     11  C   UNL     1     113.755 128.461 135.366  0.00  0.00    +0.000 A 
ATOM     12  C   UNL     1     113.880 129.685 136.093  0.00  0.00    +0.000 A 
ATOM     13  C   UNL     1     114.026 129.238 135.415  0.00  0.00    +0.000 A 
ENDROOT
BRANCH   5  16
ATOM     14  O   UNL     1     112.843 124.089 137.072  0.00  0.00    +0.000 OA
ATOM     15  O   UNL     1     111.689 123.826 136.469  0.00  0.00    +0.000 OA
ATOM     16  C   UNL     1     112.353 126.191 136.536  0.00  0.00    +0.000 A 
ATOM     17  C   UNL     1     112.800 125.577 136.860  0.00  0.00    +0.000 A 
ATOM     18  C   UNL     1     111.637 126.027 136.162  0.00  0.00    +0.000 A 
ATOM     19  C   UNL     1     112.529 124.799 136.809  0.00  0.00    +0.000 A 
ATOM     20  C   UNL     1     111.812 124.636 136.435  0.00  0.00    +0.000 A 
ATOM     21  C   UNL     1     111.366 125.250 136.111  0.00  0.00    +0.000 A 
ATOM     22  C   UNL     1     112.325 123.489 136.862  0.00  0.00    +0.000 C 
BRANCH  21  23
ATOM     23  O   UNL     1     110.649 125.087 135.737  0.00  0.00    +0.000 OA
ATOM     24  C   UNL     1     110.321 125.636 135.216  0.00  0.00    +0.000 C 
ENDBRANCH  21  23
ENDBRANCH   5  16
BRANCH  12  25
ATOM     25  O   UNL     1     114.152 130.463 136.140  0.00  0.00    +0.000 OA
ATOM     26  C   UNL     1     114.959 130.614 136.222  0.00  0.00    +0.000 C 
ENDBRANCH  12  25
TORSDOF 3
ENDMDL
MODEL 9
REMARK VINA RESULT:      -8.0     12.772     13.961
REMARK  Name = 42608105
REMARK  3 active torsions:
REMARK  status: ('A' for Active; 'I' for Inactive)
REMARK    1  A    between atoms: O_5  and  C_19
REMARK    2  A    between atoms: O_7  and  C_22
REMARK    3  A    between atoms: C_9  and  C_11
REMARK                            x       y       z     vdW  Elec       q    Type
REMARK                         _______ _______ _______ _____ _____    ______ ____
ROOT
ATOM      1  O   UNL     1     112.253 127.429 137.198  0.00  0.00    +0.000 OA
ATOM      2  O   UNL     1     114.156 128.263 135.750  0.00  0.00    +0.000 OA
ATOM      3  O   UNL     1     114.068 129.542 136.413  0.00  0.00    +0.000 OA
ATOM      4  O   UNL     1     112.142 130.011 138.472  0.00  0.00    +0.000 OA
ATOM      5  C   UNL     1     112.605 126.899 136.620  0.00  0.00    +0.000 C 
ATOM      6  C   UNL     1     113.251 127.180 136.127  0.00  0.00    +0.000 C 
ATOM      7  C   UNL     1     113.171 128.500 136.802  0.00  0.00    +0.000 A 
ATOM      8  C   UNL     1     113.536 127.986 136.219  0.00  0.00    +0.000 C 
ATOM      9  C   UNL     1     112.550 128.231 137.275  0.00  0.00    +0.000 A 
ATOM     10  C   UNL     1     113.447 129.273 136.886  0.00  0.00    +0.000 A 
ATOM     11  C   UNL     1     112.207 128.735 137.832  0.00  0.00    +0.000 A 
ATOM     12  C   UNL     1     113.105 129.776 137.442  0.00  0.00    +0.000 A 
ATOM     13  C   UNL     1     112.485 129.507 137.915  0.00  0.00    +0.000 A 
ENDROOT
BRANCH   5  16
ATOM     14  O   UNL     1     112.690 124.021 137.149  0.00  0.00    +0.000 OA
ATOM     15  O   UNL     1     111.622 123.777 136.399  0.00  0.00    +0.000 OA
ATOM     16  C   UNL     1     112.326 126.127 136.539  0.00  0.00    +0.000 A 
ATOM     17  C   UNL     1     112.710 125.507 136.923  0.00  0.00    +0.000 A 
ATOM     18  C   UNL     1     111.662 125.976 136.073  0.00  0.00    +0.000 A 
ATOM     19  C   UNL     1     112.431 124.735 136.842  0.00  0.00    +0.000 A 
ATOM     20  C   UNL     1     111.767 124.583 136.376  0.00  0.00    +0.000 A 
ATOM     21  C   UNL     1     111.383 125.205 135.991  0.00  0.00    +0.000 A 
ATOM     22  C   UNL     1     112.191 123.430 136.876  0.00  0.00    +0.000 C 
BRANCH  21  23
ATOM     23  O   UNL     1     110.719 125.053 135.525  0.00  0.00    +0.000 OA
ATOM     24  C   UNL     1     110.333 125.674 135.143  0.00  0.00    +0.000 C 
ENDBRANCH  21  23
ENDBRANCH   5  16
BRANCH  12  25
ATOM     25  O   UNL     1     113.382 130.549 137.526  0.00  0.00    +0.000 OA
ATOM     26  C   UNL     1     112.976 131.174 137.173  0.00  0.00    +0.000 C 
ENDBRANCH  12  25
TORSDOF 3
ENDMDL
MODEL 10
REMARK VINA RESULT:      -8.0     11.827     12.916
REMARK  Name = 42608105
REMARK  3 active torsions:
REMARK  status: ('A' for Active; 'I' for Inactive)
REMARK    1  A    between atoms: O_5  and  C_19
REMARK    2  A    between atoms: O_7  and  C_22
REMARK    3  A    between atoms: C_9  and  C_11
REMARK                            x       y       z     vdW  Elec       q    Type
REMARK                         _______ _______ _______ _____ _____    ______ ____
ROOT
ATOM      1  O   UNL     1     111.154 126.266 136.892  0.00  0.00    +0.000 OA
ATOM      2  O   UNL     1     110.104 125.926 134.613  0.00  0.00    +0.000 OA
ATOM      3  O   UNL     1     109.113 126.919 134.948  0.00  0.00    +0.000 OA
ATOM      4  O   UNL     1     109.139 128.238 137.483  0.00  0.00    +0.000 OA
ATOM      5  C   UNL     1     111.500 125.695 136.350  0.00  0.00    +0.000 C 
ATOM      6  C   UNL     1     111.146 125.577 135.576  0.00  0.00    +0.000 C 
ATOM      7  C   UNL     1     110.120 126.598 135.909  0.00  0.00    +0.000 A 
ATOM      8  C   UNL     1     110.451 126.032 135.354  0.00  0.00    +0.000 C 
ATOM      9  C   UNL     1     110.460 126.711 136.652  0.00  0.00    +0.000 A 
ATOM     10  C   UNL     1     109.453 127.032 135.691  0.00  0.00    +0.000 A 
ATOM     11  C   UNL     1     110.133 127.258 137.177  0.00  0.00    +0.000 A 
ATOM     12  C   UNL     1     109.126 127.578 136.215  0.00  0.00    +0.000 A 
ATOM     13  C   UNL     1     109.466 127.691 136.958  0.00  0.00    +0.000 A 
ENDROOT
BRANCH   5  16
ATOM     14  O   UNL     1     114.356 125.411 136.930  0.00  0.00    +0.000 OA
ATOM     15  O   UNL     1     114.245 124.119 137.213  0.00  0.00    +0.000 OA
ATOM     16  C   UNL     1     112.167 125.262 136.572  0.00  0.00    +0.000 A 
ATOM     17  C   UNL     1     112.903 125.633 136.617  0.00  0.00    +0.000 A 
ATOM     18  C   UNL     1     112.098 124.459 136.748  0.00  0.00    +0.000 A 
ATOM     19  C   UNL     1     113.569 125.201 136.838  0.00  0.00    +0.000 A 
ATOM     20  C   UNL     1     113.501 124.398 137.014  0.00  0.00    +0.000 A 
ATOM     21  C   UNL     1     112.764 124.027 136.969  0.00  0.00    +0.000 A 
ATOM     22  C   UNL     1     114.773 124.744 137.161  0.00  0.00    +0.000 C 
BRANCH  21  23
ATOM     23  O   UNL     1     112.695 123.224 137.145  0.00  0.00    +0.000 OA
ATOM     24  C   UNL     1     111.960 122.908 137.347  0.00  0.00    +0.000 C 
ENDBRANCH  21  23
ENDBRANCH   5  16
BRANCH  12  25
ATOM     25  O   UNL     1     108.459 128.012 135.997  0.00  0.00    +0.000 OA
ATOM     26  C   UNL     1     108.532 128.808 135.794  0.00  0.00    +0.000 C 
ENDBRANCH  12  25
TORSDOF 3
ENDMDL
