MODEL 1
REMARK VINA RESULT:     -10.1      0.000      0.000
REMARK  Name = 42607806
REMARK  10 active torsions:
REMARK  status: ('A' for Active; 'I' for Inactive)
REMARK    1  A    between atoms: O_1  and  C_19
REMARK    2  A    between atoms: O_1  and  C_23
REMARK    3  A    between atoms: O_7  and  C_25
REMARK    4  A    between atoms: O_7  and  C_35
REMARK    5  A    between atoms: O_12  and  C_34
REMARK    6  A    between atoms: O_12  and  C_41
REMARK    7  A    between atoms: C_20  and  C_28
REMARK    8  A    between atoms: C_26  and  C_29
REMARK    9  A    between atoms: C_33  and  C_36
REMARK   10  A    between atoms: C_37  and  C_40
REMARK                            x       y       z     vdW  Elec       q    Type
REMARK                         _______ _______ _______ _____ _____    ______ ____
ROOT
ATOM      1  C   UNL     1     104.569 128.316 141.888  0.00  0.00    +0.000 A 
ATOM      2  C   UNL     1     104.232 128.562 141.177  0.00  0.00    +0.000 A 
ATOM      3  C   UNL     1     104.410 128.727 142.585  0.00  0.00    +0.000 A 
ATOM      4  C   UNL     1     103.575 129.632 141.859  0.00  0.00    +0.000 A 
ATOM      5  C   UNL     1     103.734 129.220 141.163  0.00  0.00    +0.000 A 
ATOM      6  C   UNL     1     103.913 129.386 142.571  0.00  0.00    +0.000 A 
ENDROOT
BRANCH   4   9
ATOM      7  O   UNL     1     103.368 131.032 142.063  0.00  0.00    +0.000 OA
ATOM      8  O   UNL     1     101.007 130.784 141.364  0.00  0.00    +0.000 OA
ATOM      9  C   UNL     1     103.078 130.291 141.844  0.00  0.00    +0.000 C 
ATOM     10  C   UNL     1     102.672 133.145 142.266  0.00  0.00    +0.000 A 
ATOM     11  C   UNL     1     102.291 130.209 141.612  0.00  0.00    +0.000 C 
ATOM     12  C   UNL     1     102.871 131.690 142.049  0.00  0.00    +0.000 A 
ATOM     13  C   UNL     1     102.084 131.607 141.816  0.00  0.00    +0.000 A 
ATOM     14  C   UNL     1     103.185 132.457 142.279  0.00  0.00    +0.000 A 
ATOM     15  C   UNL     1     101.794 130.867 141.597  0.00  0.00    +0.000 C 
ATOM     16  C   UNL     1     101.852 133.060 142.023  0.00  0.00    +0.000 A 
ATOM     17  C   UNL     1     101.556 132.285 141.797  0.00  0.00    +0.000 A 
BRANCH  10  18
ATOM     18  O   UNL     1     102.965 133.885 142.485  0.00  0.00    +0.000 OA
BRANCH  18  27
ATOM     19  O   UNL     1     103.204 134.430 141.187  0.00  0.00    +0.000 OA
ATOM     20  O   UNL     1     105.370 135.337 141.966  0.00  0.00    +0.000 OA
ATOM     21  O   UNL     1     104.887 135.581 140.407  0.00  0.00    +0.000 OA
ATOM     22  O   UNL     1     104.409 134.489 143.004  0.00  0.00    +0.000 OA
ATOM     23  C   UNL     1     104.648 135.035 141.706  0.00  0.00    +0.000 C 
ATOM     24  C   UNL     1     104.407 135.157 140.926  0.00  0.00    +0.000 C 
ATOM     25  C   UNL     1     104.167 134.611 142.225  0.00  0.00    +0.000 C 
ATOM     26  C   UNL     1     103.684 134.854 140.667  0.00  0.00    +0.000 C 
ATOM     27  C   UNL     1     103.446 134.309 141.966  0.00  0.00    +0.000 C 
BRANCH  26  29
ATOM     28  O   UNL     1     102.700 135.300 139.731  0.00  0.00    +0.000 OA
ATOM     29  C   UNL     1     103.442 134.976 139.887  0.00  0.00    +0.000 C 
ENDBRANCH  26  29
ENDBRANCH  18  27
ENDBRANCH  10  18
ENDBRANCH   4   9
BRANCH   1  30
ATOM     30  O   UNL     1     105.066 127.657 141.902  0.00  0.00    +0.000 OA
BRANCH  30  37
ATOM     31  O   UNL     1     106.228 128.481 141.788  0.00  0.00    +0.000 OA
ATOM     32  O   UNL     1     107.632 126.612 142.603  0.00  0.00    +0.000 OA
ATOM     33  O   UNL     1     108.326 128.057 142.218  0.00  0.00    +0.000 OA
ATOM     34  C   UNL     1     106.348 127.135 142.252  0.00  0.00    +0.000 C 
ATOM     35  C   UNL     1     107.164 127.235 142.332  0.00  0.00    +0.000 C 
ATOM     36  C   UNL     1     107.511 127.958 142.139  0.00  0.00    +0.000 C 
ATOM     37  C   UNL     1     105.881 127.757 141.981  0.00  0.00    +0.000 C 
ATOM     38  C   UNL     1     107.043 128.580 141.868  0.00  0.00    +0.000 C 
BRANCH  38  40
ATOM     39  O   UNL     1     107.357 129.582 140.898  0.00  0.00    +0.000 OA
ATOM     40  C   UNL     1     107.390 129.303 141.675  0.00  0.00    +0.000 C 
ENDBRANCH  38  40
BRANCH  34  41
ATOM     41  O   UNL     1     106.001 126.411 142.445  0.00  0.00    +0.000 OA
BRANCH  41  47
ATOM     42  O   UNL     1     106.222 125.859 141.101  0.00  0.00    +0.000 OA
ATOM     43  O   UNL     1     105.741 124.014 140.748  0.00  0.00    +0.000 OA
ATOM     44  O   UNL     1     105.393 124.746 142.723  0.00  0.00    +0.000 OA
ATOM     45  C   UNL     1     105.769 124.620 141.307  0.00  0.00    +0.000 C 
ATOM     46  C   UNL     1     105.694 125.040 142.013  0.00  0.00    +0.000 C 
ATOM     47  C   UNL     1     105.974 125.805 141.885  0.00  0.00    +0.000 C 
ATOM     48  C   UNL     1     106.095 125.126 140.742  0.00  0.00    +0.000 C 
BRANCH  45  50
ATOM     49  O   UNL     1     105.275 123.282 141.222  0.00  0.00    +0.000 OA
ATOM     50  C   UNL     1     105.450 123.951 141.670  0.00  0.00    +0.000 C 
ENDBRANCH  45  50
ENDBRANCH  41  47
ENDBRANCH  34  41
ENDBRANCH  30  37
ENDBRANCH   1  30
TORSDOF 10
ENDMDL
MODEL 2
REMARK VINA RESULT:     -10.0      5.781      8.639
REMARK  Name = 42607806
REMARK  10 active torsions:
REMARK  status: ('A' for Active; 'I' for Inactive)
REMARK    1  A    between atoms: O_1  and  C_19
REMARK    2  A    between atoms: O_1  and  C_23
REMARK    3  A    between atoms: O_7  and  C_25
REMARK    4  A    between atoms: O_7  and  C_35
REMARK    5  A    between atoms: O_12  and  C_34
REMARK    6  A    between atoms: O_12  and  C_41
REMARK    7  A    between atoms: C_20  and  C_28
REMARK    8  A    between atoms: C_26  and  C_29
REMARK    9  A    between atoms: C_33  and  C_36
REMARK   10  A    between atoms: C_37  and  C_40
REMARK                            x       y       z     vdW  Elec       q    Type
REMARK                         _______ _______ _______ _____ _____    ______ ____
ROOT
ATOM      1  C   UNL     1     108.095 125.744 140.638  0.00  0.00    +0.000 A 
ATOM      2  C   UNL     1     108.681 125.218 140.882  0.00  0.00    +0.000 A 
ATOM      3  C   UNL     1     108.292 126.522 140.445  0.00  0.00    +0.000 A 
ATOM      4  C   UNL     1     109.664 126.245 140.738  0.00  0.00    +0.000 A 
ATOM      5  C   UNL     1     109.465 125.468 140.931  0.00  0.00    +0.000 A 
ATOM      6  C   UNL     1     109.076 126.772 140.494  0.00  0.00    +0.000 A 
ENDROOT
BRANCH   4   9
ATOM      7  O   UNL     1     110.984 126.296 140.192  0.00  0.00    +0.000 OA
ATOM      8  O   UNL     1     111.730 127.648 142.127  0.00  0.00    +0.000 OA
ATOM      9  C   UNL     1     110.448 126.496 140.788  0.00  0.00    +0.000 C 
ATOM     10  C   UNL     1     113.135 126.591 139.662  0.00  0.00    +0.000 A 
ATOM     11  C   UNL     1     110.698 126.946 141.432  0.00  0.00    +0.000 C 
ATOM     12  C   UNL     1     111.769 126.547 140.242  0.00  0.00    +0.000 A 
ATOM     13  C   UNL     1     112.017 126.997 140.887  0.00  0.00    +0.000 A 
ATOM     14  C   UNL     1     112.317 126.332 139.616  0.00  0.00    +0.000 A 
ATOM     15  C   UNL     1     111.482 127.197 141.482  0.00  0.00    +0.000 C 
ATOM     16  C   UNL     1     113.394 127.060 140.334  0.00  0.00    +0.000 A 
ATOM     17  C   UNL     1     112.831 127.264 140.951  0.00  0.00    +0.000 A 
BRANCH  10  18
ATOM     18  O   UNL     1     113.668 126.389 139.066  0.00  0.00    +0.000 OA
BRANCH  18  27
ATOM     19  O   UNL     1     113.352 127.466 138.183  0.00  0.00    +0.000 OA
ATOM     20  O   UNL     1     113.641 125.959 136.241  0.00  0.00    +0.000 OA
ATOM     21  O   UNL     1     113.229 127.539 136.004  0.00  0.00    +0.000 OA
ATOM     22  O   UNL     1     113.861 125.385 137.773  0.00  0.00    +0.000 OA
ATOM     23  C   UNL     1     113.545 126.462 136.888  0.00  0.00    +0.000 C 
ATOM     24  C   UNL     1     113.339 127.252 136.770  0.00  0.00    +0.000 C 
ATOM     25  C   UNL     1     113.655 126.175 137.654  0.00  0.00    +0.000 C 
ATOM     26  C   UNL     1     113.242 127.754 137.417  0.00  0.00    +0.000 C 
ATOM     27  C   UNL     1     113.558 126.677 138.300  0.00  0.00    +0.000 C 
BRANCH  26  29
ATOM     28  O   UNL     1     113.484 129.144 137.646  0.00  0.00    +0.000 OA
ATOM     29  C   UNL     1     113.036 128.545 137.299  0.00  0.00    +0.000 C 
ENDBRANCH  26  29
ENDBRANCH  18  27
ENDBRANCH  10  18
ENDBRANCH   4   9
BRANCH   1  30
ATOM     30  O   UNL     1     107.311 125.493 140.588  0.00  0.00    +0.000 OA
BRANCH  30  37
ATOM     31  O   UNL     1     106.945 126.020 141.866  0.00  0.00    +0.000 OA
ATOM     32  O   UNL     1     105.241 124.243 142.112  0.00  0.00    +0.000 OA
ATOM     33  O   UNL     1     105.444 125.362 143.306  0.00  0.00    +0.000 OA
ATOM     34  C   UNL     1     106.276 124.868 141.350  0.00  0.00    +0.000 C 
ATOM     35  C   UNL     1     105.809 124.835 142.030  0.00  0.00    +0.000 C 
ATOM     36  C   UNL     1     105.911 125.395 142.627  0.00  0.00    +0.000 C 
ATOM     37  C   UNL     1     106.844 125.460 141.268  0.00  0.00    +0.000 C 
ATOM     38  C   UNL     1     106.479 125.987 142.545  0.00  0.00    +0.000 C 
BRANCH  38  40
ATOM     39  O   UNL     1     107.261 126.532 143.609  0.00  0.00    +0.000 OA
ATOM     40  C   UNL     1     106.581 126.547 143.142  0.00  0.00    +0.000 C 
ENDBRANCH  38  40
BRANCH  34  41
ATOM     41  O   UNL     1     106.174 124.308 140.753  0.00  0.00    +0.000 OA
BRANCH  41  47
ATOM     42  O   UNL     1     105.174 125.119 140.042  0.00  0.00    +0.000 OA
ATOM     43  O   UNL     1     104.177 124.322 138.583  0.00  0.00    +0.000 OA
ATOM     44  O   UNL     1     105.612 123.085 139.566  0.00  0.00    +0.000 OA
ATOM     45  C   UNL     1     104.755 124.208 139.159  0.00  0.00    +0.000 C 
ATOM     46  C   UNL     1     105.337 123.860 139.630  0.00  0.00    +0.000 C 
ATOM     47  C   UNL     1     105.595 124.423 140.175  0.00  0.00    +0.000 C 
ATOM     48  C   UNL     1     104.654 124.987 139.415  0.00  0.00    +0.000 C 
BRANCH  45  50
ATOM     49  O   UNL     1     104.157 123.465 138.096  0.00  0.00    +0.000 OA
ATOM     50  C   UNL     1     104.673 123.504 138.739  0.00  0.00    +0.000 C 
ENDBRANCH  45  50
ENDBRANCH  41  47
ENDBRANCH  34  41
ENDBRANCH  30  37
ENDBRANCH   1  30
TORSDOF 10
ENDMDL
MODEL 3
REMARK VINA RESULT:     -10.0      1.106      1.336
REMARK  Name = 42607806
REMARK  10 active torsions:
REMARK  status: ('A' for Active; 'I' for Inactive)
REMARK    1  A    between atoms: O_1  and  C_19
REMARK    2  A    between atoms: O_1  and  C_23
REMARK    3  A    between atoms: O_7  and  C_25
REMARK    4  A    between atoms: O_7  and  C_35
REMARK    5  A    between atoms: O_12  and  C_34
REMARK    6  A    between atoms: O_12  and  C_41
REMARK    7  A    between atoms: C_20  and  C_28
REMARK    8  A    between atoms: C_26  and  C_29
REMARK    9  A    between atoms: C_33  and  C_36
REMARK   10  A    between atoms: C_37  and  C_40
REMARK                            x       y       z     vdW  Elec       q    Type
REMARK                         _______ _______ _______ _____ _____    ______ ____
ROOT
ATOM      1  C   UNL     1     104.612 128.594 142.549  0.00  0.00    +0.000 A 
ATOM      2  C   UNL     1     104.296 128.694 141.795  0.00  0.00    +0.000 A 
ATOM      3  C   UNL     1     104.427 129.129 143.149  0.00  0.00    +0.000 A 
ATOM      4  C   UNL     1     103.609 129.866 142.237  0.00  0.00    +0.000 A 
ATOM      5  C   UNL     1     103.795 129.330 141.639  0.00  0.00    +0.000 A 
ATOM      6  C   UNL     1     103.926 129.766 142.993  0.00  0.00    +0.000 A 
ENDROOT
BRANCH   4   9
ATOM      7  O   UNL     1     103.372 131.275 142.200  0.00  0.00    +0.000 OA
ATOM      8  O   UNL     1     101.075 130.866 141.375  0.00  0.00    +0.000 OA
ATOM      9  C   UNL     1     103.108 130.502 142.081  0.00  0.00    +0.000 C 
ATOM     10  C   UNL     1     102.640 133.378 142.012  0.00  0.00    +0.000 A 
ATOM     11  C   UNL     1     102.342 130.367 141.806  0.00  0.00    +0.000 C 
ATOM     12  C   UNL     1     102.871 131.912 142.044  0.00  0.00    +0.000 A 
ATOM     13  C   UNL     1     102.105 131.775 141.769  0.00  0.00    +0.000 A 
ATOM     14  C   UNL     1     103.158 132.712 142.173  0.00  0.00    +0.000 A 
ATOM     15  C   UNL     1     101.841 131.003 141.650  0.00  0.00    +0.000 C 
ATOM     16  C   UNL     1     101.843 133.237 141.725  0.00  0.00    +0.000 A 
ATOM     17  C   UNL     1     101.573 132.429 141.603  0.00  0.00    +0.000 A 
BRANCH  10  18
ATOM     18  O   UNL     1     102.907 134.149 142.132  0.00  0.00    +0.000 OA
BRANCH  18  27
ATOM     19  O   UNL     1     103.268 134.473 140.788  0.00  0.00    +0.000 OA
ATOM     20  O   UNL     1     105.337 135.557 141.605  0.00  0.00    +0.000 OA
ATOM     21  O   UNL     1     105.009 135.520 139.988  0.00  0.00    +0.000 OA
ATOM     22  O   UNL     1     104.286 134.872 142.676  0.00  0.00    +0.000 OA
ATOM     23  C   UNL     1     104.648 135.196 141.332  0.00  0.00    +0.000 C 
ATOM     24  C   UNL     1     104.484 135.177 140.524  0.00  0.00    +0.000 C 
ATOM     25  C   UNL     1     104.122 134.853 141.868  0.00  0.00    +0.000 C 
ATOM     26  C   UNL     1     103.793 134.815 140.252  0.00  0.00    +0.000 C 
ATOM     27  C   UNL     1     103.433 134.492 141.596  0.00  0.00    +0.000 C 
BRANCH  26  29
ATOM     28  O   UNL     1     102.925 135.118 139.158  0.00  0.00    +0.000 OA
ATOM     29  C   UNL     1     103.629 134.796 139.443  0.00  0.00    +0.000 C 
ENDBRANCH  26  29
ENDBRANCH  18  27
ENDBRANCH  10  18
ENDBRANCH   4   9
BRANCH   1  30
ATOM     30  O   UNL     1     105.114 127.957 142.705  0.00  0.00    +0.000 OA
BRANCH  30  37
ATOM     31  O   UNL     1     106.317 128.559 142.223  0.00  0.00    +0.000 OA
ATOM     32  O   UNL     1     107.588 127.485 144.055  0.00  0.00    +0.000 OA
ATOM     33  O   UNL     1     108.367 128.444 142.962  0.00  0.00    +0.000 OA
ATOM     34  C   UNL     1     106.350 127.721 143.380  0.00  0.00    +0.000 C 
ATOM     35  C   UNL     1     107.164 127.843 143.444  0.00  0.00    +0.000 C 
ATOM     36  C   UNL     1     107.553 128.323 142.897  0.00  0.00    +0.000 C 
ATOM     37  C   UNL     1     105.927 128.079 142.770  0.00  0.00    +0.000 C 
ATOM     38  C   UNL     1     107.130 128.680 142.288  0.00  0.00    +0.000 C 
BRANCH  38  40
ATOM     39  O   UNL     1     107.419 129.028 140.932  0.00  0.00    +0.000 OA
ATOM     40  C   UNL     1     107.519 129.160 141.741  0.00  0.00    +0.000 C 
ENDBRANCH  38  40
BRANCH  34  41
ATOM     41  O   UNL     1     105.961 127.241 143.927  0.00  0.00    +0.000 OA
BRANCH  41  47
ATOM     42  O   UNL     1     106.280 126.007 143.193  0.00  0.00    +0.000 OA
ATOM     43  O   UNL     1     105.841 124.296 143.990  0.00  0.00    +0.000 OA
ATOM     44  O   UNL     1     105.349 126.043 145.114  0.00  0.00    +0.000 OA
ATOM     45  C   UNL     1     105.824 125.116 144.077  0.00  0.00    +0.000 C 
ATOM     46  C   UNL     1     105.697 125.870 144.386  0.00  0.00    +0.000 C 
ATOM     47  C   UNL     1     105.978 126.420 143.840  0.00  0.00    +0.000 C 
ATOM     48  C   UNL     1     106.185 125.201 143.339  0.00  0.00    +0.000 C 
BRANCH  45  50
ATOM     49  O   UNL     1     105.414 123.962 144.813  0.00  0.00    +0.000 OA
ATOM     50  C   UNL     1     105.487 124.781 144.751  0.00  0.00    +0.000 C 
ENDBRANCH  45  50
ENDBRANCH  41  47
ENDBRANCH  34  41
ENDBRANCH  30  37
ENDBRANCH   1  30
TORSDOF 10
ENDMDL
MODEL 4
REMARK VINA RESULT:      -9.9      6.266     10.745
REMARK  Name = 42607806
REMARK  10 active torsions:
REMARK  status: ('A' for Active; 'I' for Inactive)
REMARK    1  A    between atoms: O_1  and  C_19
REMARK    2  A    between atoms: O_1  and  C_23
REMARK    3  A    between atoms: O_7  and  C_25
REMARK    4  A    between atoms: O_7  and  C_35
REMARK    5  A    between atoms: O_12  and  C_34
REMARK    6  A    between atoms: O_12  and  C_41
REMARK    7  A    between atoms: C_20  and  C_28
REMARK    8  A    between atoms: C_26  and  C_29
REMARK    9  A    between atoms: C_33  and  C_36
REMARK   10  A    between atoms: C_37  and  C_40
REMARK                            x       y       z     vdW  Elec       q    Type
REMARK                         _______ _______ _______ _____ _____    ______ ____
ROOT
ATOM      1  C   UNL     1     112.148 130.120 140.865  0.00  0.00    +0.000 A 
ATOM      2  C   UNL     1     111.763 130.425 140.203  0.00  0.00    +0.000 A 
ATOM      3  C   UNL     1     112.745 129.558 140.774  0.00  0.00    +0.000 A 
ATOM      4  C   UNL     1     112.571 129.605 139.356  0.00  0.00    +0.000 A 
ATOM      5  C   UNL     1     111.975 130.167 139.449  0.00  0.00    +0.000 A 
ATOM      6  C   UNL     1     112.957 129.301 140.020  0.00  0.00    +0.000 A 
ENDROOT
BRANCH   4   9
ATOM      7  O   UNL     1     112.461 128.651 138.297  0.00  0.00    +0.000 OA
ATOM      8  O   UNL     1     114.061 129.968 136.944  0.00  0.00    +0.000 OA
ATOM      9  C   UNL     1     112.783 129.348 138.601  0.00  0.00    +0.000 C 
ATOM     10  C   UNL     1     112.546 127.394 136.453  0.00  0.00    +0.000 A 
ATOM     11  C   UNL     1     113.316 129.786 138.150  0.00  0.00    +0.000 C 
ATOM     12  C   UNL     1     112.672 128.393 137.543  0.00  0.00    +0.000 A 
ATOM     13  C   UNL     1     113.206 128.833 137.092  0.00  0.00    +0.000 A 
ATOM     14  C   UNL     1     112.330 127.666 137.238  0.00  0.00    +0.000 A 
ATOM     15  C   UNL     1     113.528 129.529 137.395  0.00  0.00    +0.000 C 
ATOM     16  C   UNL     1     113.102 127.850 135.982  0.00  0.00    +0.000 A 
ATOM     17  C   UNL     1     113.434 128.575 136.305  0.00  0.00    +0.000 A 
BRANCH  10  18
ATOM     18  O   UNL     1     112.223 126.697 136.152  0.00  0.00    +0.000 OA
BRANCH  18  27
ATOM     19  O   UNL     1     113.333 125.858 136.473  0.00  0.00    +0.000 OA
ATOM     20  O   UNL     1     111.782 123.992 136.960  0.00  0.00    +0.000 OA
ATOM     21  O   UNL     1     113.410 123.774 137.120  0.00  0.00    +0.000 OA
ATOM     22  O   UNL     1     111.189 125.454 136.476  0.00  0.00    +0.000 OA
ATOM     23  C   UNL     1     112.299 124.614 136.798  0.00  0.00    +0.000 C 
ATOM     24  C   UNL     1     113.113 124.505 136.878  0.00  0.00    +0.000 C 
ATOM     25  C   UNL     1     112.003 125.345 136.556  0.00  0.00    +0.000 C 
ATOM     26  C   UNL     1     113.630 125.127 136.715  0.00  0.00    +0.000 C 
ATOM     27  C   UNL     1     112.519 125.966 136.394  0.00  0.00    +0.000 C 
BRANCH  26  29
ATOM     28  O   UNL     1     114.947 125.189 136.164  0.00  0.00    +0.000 OA
ATOM     29  C   UNL     1     114.444 125.018 136.795  0.00  0.00    +0.000 C 
ENDBRANCH  26  29
ENDBRANCH  18  27
ENDBRANCH  10  18
ENDBRANCH   4   9
BRANCH   1  30
ATOM     30  O   UNL     1     111.937 130.378 141.620  0.00  0.00    +0.000 OA
BRANCH  30  37
ATOM     31  O   UNL     1     110.911 129.405 141.828  0.00  0.00    +0.000 OA
ATOM     32  O   UNL     1     109.597 131.065 143.110  0.00  0.00    +0.000 OA
ATOM     33  O   UNL     1     109.010 129.539 142.890  0.00  0.00    +0.000 OA
ATOM     34  C   UNL     1     110.767 130.721 142.365  0.00  0.00    +0.000 C 
ATOM     35  C   UNL     1     110.035 130.512 142.682  0.00  0.00    +0.000 C 
ATOM     36  C   UNL     1     109.741 129.749 142.572  0.00  0.00    +0.000 C 
ATOM     37  C   UNL     1     111.205 130.169 141.938  0.00  0.00    +0.000 C 
ATOM     38  C   UNL     1     110.179 129.196 142.146  0.00  0.00    +0.000 C 
BRANCH  38  40
ATOM     39  O   UNL     1     110.323 127.782 142.294  0.00  0.00    +0.000 OA
ATOM     40  C   UNL     1     109.886 128.433 142.035  0.00  0.00    +0.000 C 
ENDBRANCH  38  40
BRANCH  34  41
ATOM     41  O   UNL     1     111.061 131.484 142.475  0.00  0.00    +0.000 OA
BRANCH  41  47
ATOM     42  O   UNL     1     111.644 131.154 143.783  0.00  0.00    +0.000 OA
ATOM     43  O   UNL     1     112.568 132.535 144.781  0.00  0.00    +0.000 OA
ATOM     44  O   UNL     1     111.748 133.090 142.890  0.00  0.00    +0.000 OA
ATOM     45  C   UNL     1     112.155 132.348 144.093  0.00  0.00    +0.000 C 
ATOM     46  C   UNL     1     111.789 132.409 143.355  0.00  0.00    +0.000 C 
ATOM     47  C   UNL     1     111.474 131.672 143.165  0.00  0.00    +0.000 C 
ATOM     48  C   UNL     1     112.065 131.571 144.357  0.00  0.00    +0.000 C 
BRANCH  45  50
ATOM     49  O   UNL     1     112.805 133.484 144.665  0.00  0.00    +0.000 OA
ATOM     50  C   UNL     1     112.368 133.144 144.054  0.00  0.00    +0.000 C 
ENDBRANCH  45  50
ENDBRANCH  41  47
ENDBRANCH  34  41
ENDBRANCH  30  37
ENDBRANCH   1  30
TORSDOF 10
ENDMDL
MODEL 5
REMARK VINA RESULT:      -9.7      5.521      8.583
REMARK  Name = 42607806
REMARK  10 active torsions:
REMARK  status: ('A' for Active; 'I' for Inactive)
REMARK    1  A    between atoms: O_1  and  C_19
REMARK    2  A    between atoms: O_1  and  C_23
REMARK    3  A    between atoms: O_7  and  C_25
REMARK    4  A    between atoms: O_7  and  C_35
REMARK    5  A    between atoms: O_12  and  C_34
REMARK    6  A    between atoms: O_12  and  C_41
REMARK    7  A    between atoms: C_20  and  C_28
REMARK    8  A    between atoms: C_26  and  C_29
REMARK    9  A    between atoms: C_33  and  C_36
REMARK   10  A    between atoms: C_37  and  C_40
REMARK                            x       y       z     vdW  Elec       q    Type
REMARK                         _______ _______ _______ _____ _____    ______ ____
ROOT
ATOM      1  C   UNL     1     110.541 127.529 140.420  0.00  0.00    +0.000 A 
ATOM      2  C   UNL     1     110.560 127.018 141.067  0.00  0.00    +0.000 A 
ATOM      3  C   UNL     1     109.817 127.770 140.106  0.00  0.00    +0.000 A 
ATOM      4  C   UNL     1     109.131 126.989 141.087  0.00  0.00    +0.000 A 
ATOM      5  C   UNL     1     109.855 126.748 141.400  0.00  0.00    +0.000 A 
ATOM      6  C   UNL     1     109.112 127.500 140.439  0.00  0.00    +0.000 A 
ENDROOT
BRANCH   4   9
ATOM      7  O   UNL     1     108.082 126.019 141.147  0.00  0.00    +0.000 OA
ATOM      8  O   UNL     1     107.001 127.304 142.966  0.00  0.00    +0.000 OA
ATOM      9  C   UNL     1     108.427 126.718 141.420  0.00  0.00    +0.000 C 
ATOM     10  C   UNL     1     106.295 124.734 141.530  0.00  0.00    +0.000 A 
ATOM     11  C   UNL     1     108.066 127.146 142.026  0.00  0.00    +0.000 C 
ATOM     12  C   UNL     1     107.377 125.749 141.480  0.00  0.00    +0.000 A 
ATOM     13  C   UNL     1     107.017 126.178 142.087  0.00  0.00    +0.000 A 
ATOM     14  C   UNL     1     107.029 125.020 141.187  0.00  0.00    +0.000 A 
ATOM     15  C   UNL     1     107.361 126.876 142.360  0.00  0.00    +0.000 C 
ATOM     16  C   UNL     1     105.920 125.180 142.162  0.00  0.00    +0.000 A 
ATOM     17  C   UNL     1     106.284 125.907 142.442  0.00  0.00    +0.000 A 
BRANCH  10  18
ATOM     18  O   UNL     1     105.953 124.036 141.255  0.00  0.00    +0.000 OA
BRANCH  18  27
ATOM     19  O   UNL     1     105.058 124.676 140.345  0.00  0.00    +0.000 OA
ATOM     20  O   UNL     1     105.230 122.741 138.813  0.00  0.00    +0.000 OA
ATOM     21  O   UNL     1     104.277 124.027 138.413  0.00  0.00    +0.000 OA
ATOM     22  O   UNL     1     106.068 122.746 140.235  0.00  0.00    +0.000 OA
ATOM     23  C   UNL     1     105.173 123.386 139.324  0.00  0.00    +0.000 C 
ATOM     24  C   UNL     1     104.696 124.029 139.123  0.00  0.00    +0.000 C 
ATOM     25  C   UNL     1     105.592 123.389 140.034  0.00  0.00    +0.000 C 
ATOM     26  C   UNL     1     104.639 124.675 139.635  0.00  0.00    +0.000 C 
ATOM     27  C   UNL     1     105.534 124.033 140.545  0.00  0.00    +0.000 C 
BRANCH  26  29
ATOM     28  O   UNL     1     104.476 126.081 139.437  0.00  0.00    +0.000 OA
ATOM     29  C   UNL     1     104.162 125.318 139.435  0.00  0.00    +0.000 C 
ENDBRANCH  26  29
ENDBRANCH  18  27
ENDBRANCH  10  18
ENDBRANCH   4   9
BRANCH   1  30
ATOM     30  O   UNL     1     111.245 127.799 140.087  0.00  0.00    +0.000 OA
BRANCH  30  37
ATOM     31  O   UNL     1     111.394 126.704 139.181  0.00  0.00    +0.000 OA
ATOM     32  O   UNL     1     113.855 126.868 139.386  0.00  0.00    +0.000 OA
ATOM     33  O   UNL     1     113.183 125.719 138.412  0.00  0.00    +0.000 OA
ATOM     34  C   UNL     1     112.550 127.334 139.737  0.00  0.00    +0.000 C 
ATOM     35  C   UNL     1     113.035 126.814 139.318  0.00  0.00    +0.000 C 
ATOM     36  C   UNL     1     112.698 126.239 138.831  0.00  0.00    +0.000 C 
ATOM     37  C   UNL     1     111.730 127.279 139.668  0.00  0.00    +0.000 C 
ATOM     38  C   UNL     1     111.879 126.184 138.762  0.00  0.00    +0.000 C 
BRANCH  38  40
ATOM     39  O   UNL     1     111.013 125.831 137.682  0.00  0.00    +0.000 OA
ATOM     40  C   UNL     1     111.542 125.610 138.275  0.00  0.00    +0.000 C 
ENDBRANCH  38  40
BRANCH  34  41
ATOM     41  O   UNL     1     112.886 127.909 140.224  0.00  0.00    +0.000 OA
BRANCH  41  47
ATOM     42  O   UNL     1     113.005 128.881 139.127  0.00  0.00    +0.000 OA
ATOM     43  O   UNL     1     113.891 130.573 139.458  0.00  0.00    +0.000 OA
ATOM     44  O   UNL     1     113.757 129.213 141.098  0.00  0.00    +0.000 OA
ATOM     45  C   UNL     1     113.653 129.851 139.777  0.00  0.00    +0.000 C 
ATOM     46  C   UNL     1     113.525 129.230 140.306  0.00  0.00    +0.000 C 
ATOM     47  C   UNL     1     113.125 128.632 139.904  0.00  0.00    +0.000 C 
ATOM     48  C   UNL     1     113.331 129.635 139.048  0.00  0.00    +0.000 C 
BRANCH  45  50
ATOM     49  O   UNL     1     114.366 131.014 140.201  0.00  0.00    +0.000 OA
ATOM     50  C   UNL     1     114.032 130.280 140.371  0.00  0.00    +0.000 C 
ENDBRANCH  45  50
ENDBRANCH  41  47
ENDBRANCH  34  41
ENDBRANCH  30  37
ENDBRANCH   1  30
TORSDOF 10
ENDMDL
MODEL 6
REMARK VINA RESULT:      -9.7      0.896      1.548
REMARK  Name = 42607806
REMARK  10 active torsions:
REMARK  status: ('A' for Active; 'I' for Inactive)
REMARK    1  A    between atoms: O_1  and  C_19
REMARK    2  A    between atoms: O_1  and  C_23
REMARK    3  A    between atoms: O_7  and  C_25
REMARK    4  A    between atoms: O_7  and  C_35
REMARK    5  A    between atoms: O_12  and  C_34
REMARK    6  A    between atoms: O_12  and  C_41
REMARK    7  A    between atoms: C_20  and  C_28
REMARK    8  A    between atoms: C_26  and  C_29
REMARK    9  A    between atoms: C_33  and  C_36
REMARK   10  A    between atoms: C_37  and  C_40
REMARK                            x       y       z     vdW  Elec       q    Type
REMARK                         _______ _______ _______ _____ _____    ______ ____
ROOT
ATOM      1  C   UNL     1     104.572 128.064 141.801  0.00  0.00    +0.000 A 
ATOM      2  C   UNL     1     104.473 128.502 142.493  0.00  0.00    +0.000 A 
ATOM      3  C   UNL     1     104.244 128.331 141.092  0.00  0.00    +0.000 A 
ATOM      4  C   UNL     1     103.718 129.476 141.768  0.00  0.00    +0.000 A 
ATOM      5  C   UNL     1     104.046 129.208 142.476  0.00  0.00    +0.000 A 
ATOM      6  C   UNL     1     103.818 129.037 141.076  0.00  0.00    +0.000 A 
ENDROOT
BRANCH   4   9
ATOM      7  O   UNL     1     103.688 130.905 141.791  0.00  0.00    +0.000 OA
ATOM      8  O   UNL     1     101.219 130.855 141.622  0.00  0.00    +0.000 OA
ATOM      9  C   UNL     1     103.292 130.182 141.751  0.00  0.00    +0.000 C 
ATOM     10  C   UNL     1     103.247 133.095 141.800  0.00  0.00    +0.000 A 
ATOM     11  C   UNL     1     102.469 130.166 141.695  0.00  0.00    +0.000 C 
ATOM     12  C   UNL     1     103.262 131.611 141.774  0.00  0.00    +0.000 A 
ATOM     13  C   UNL     1     102.439 131.594 141.718  0.00  0.00    +0.000 A 
ATOM     14  C   UNL     1     103.686 132.357 141.817  0.00  0.00    +0.000 A 
ATOM     15  C   UNL     1     102.042 130.872 141.678  0.00  0.00    +0.000 C 
ATOM     16  C   UNL     1     102.390 133.078 141.741  0.00  0.00    +0.000 A 
ATOM     17  C   UNL     1     101.983 132.322 141.700  0.00  0.00    +0.000 A 
BRANCH  10  18
ATOM     18  O   UNL     1     103.646 133.816 141.839  0.00  0.00    +0.000 OA
BRANCH  18  27
ATOM     19  O   UNL     1     103.653 133.991 143.257  0.00  0.00    +0.000 OA
ATOM     20  O   UNL     1     106.004 134.757 143.151  0.00  0.00    +0.000 OA
ATOM     21  O   UNL     1     105.228 134.676 144.605  0.00  0.00    +0.000 OA
ATOM     22  O   UNL     1     105.213 134.327 141.769  0.00  0.00    +0.000 OA
ATOM     23  C   UNL     1     105.220 134.501 143.187  0.00  0.00    +0.000 C 
ATOM     24  C   UNL     1     104.832 134.461 143.914  0.00  0.00    +0.000 C 
ATOM     25  C   UNL     1     104.825 134.286 142.496  0.00  0.00    +0.000 C 
ATOM     26  C   UNL     1     104.048 134.206 143.949  0.00  0.00    +0.000 C 
ATOM     27  C   UNL     1     104.042 134.031 142.531  0.00  0.00    +0.000 C 
BRANCH  26  29
ATOM     28  O   UNL     1     102.937 134.549 144.779  0.00  0.00    +0.000 OA
ATOM     29  C   UNL     1     103.660 134.165 144.676  0.00  0.00    +0.000 C 
ENDBRANCH  26  29
ENDBRANCH  18  27
ENDBRANCH  10  18
ENDBRANCH   4   9
BRANCH   1  30
ATOM     30  O   UNL     1     104.998 127.358 141.818  0.00  0.00    +0.000 OA
BRANCH  30  37
ATOM     31  O   UNL     1     106.234 128.075 141.806  0.00  0.00    +0.000 OA
ATOM     32  O   UNL     1     107.437 126.013 142.460  0.00  0.00    +0.000 OA
ATOM     33  O   UNL     1     108.271 127.417 142.230  0.00  0.00    +0.000 OA
ATOM     34  C   UNL     1     106.217 126.686 142.139  0.00  0.00    +0.000 C 
ATOM     35  C   UNL     1     107.036 126.701 142.242  0.00  0.00    +0.000 C 
ATOM     36  C   UNL     1     107.453 127.403 142.127  0.00  0.00    +0.000 C 
ATOM     37  C   UNL     1     105.816 127.372 141.921  0.00  0.00    +0.000 C 
ATOM     38  C   UNL     1     107.052 128.089 141.909  0.00  0.00    +0.000 C 
BRANCH  38  40
ATOM     39  O   UNL     1     107.481 129.146 141.048  0.00  0.00    +0.000 OA
ATOM     40  C   UNL     1     107.469 128.792 141.794  0.00  0.00    +0.000 C 
ENDBRANCH  38  40
BRANCH  34  41
ATOM     41  O   UNL     1     105.800 125.984 142.254  0.00  0.00    +0.000 OA
BRANCH  41  47
ATOM     42  O   UNL     1     106.013 125.528 140.873  0.00  0.00    +0.000 OA
ATOM     43  O   UNL     1     105.529 123.714 140.392  0.00  0.00    +0.000 OA
ATOM     44  O   UNL     1     105.191 124.303 142.415  0.00  0.00    +0.000 OA
ATOM     45  C   UNL     1     105.560 124.278 140.992  0.00  0.00    +0.000 C 
ATOM     46  C   UNL     1     105.489 124.647 141.727  0.00  0.00    +0.000 C 
ATOM     47  C   UNL     1     105.769 125.419 141.653  0.00  0.00    +0.000 C 
ATOM     48  C   UNL     1     105.884 124.824 140.464  0.00  0.00    +0.000 C 
BRANCH  45  50
ATOM     49  O   UNL     1     105.124 122.928 140.825  0.00  0.00    +0.000 OA
ATOM     50  C   UNL     1     105.242 123.585 141.309  0.00  0.00    +0.000 C 
ENDBRANCH  45  50
ENDBRANCH  41  47
ENDBRANCH  34  41
ENDBRANCH  30  37
ENDBRANCH   1  30
TORSDOF 10
ENDMDL
MODEL 7
REMARK VINA RESULT:      -9.6      4.380      7.297
REMARK  Name = 42607806
REMARK  10 active torsions:
REMARK  status: ('A' for Active; 'I' for Inactive)
REMARK    1  A    between atoms: O_1  and  C_19
REMARK    2  A    between atoms: O_1  and  C_23
REMARK    3  A    between atoms: O_7  and  C_25
REMARK    4  A    between atoms: O_7  and  C_35
REMARK    5  A    between atoms: O_12  and  C_34
REMARK    6  A    between atoms: O_12  and  C_41
REMARK    7  A    between atoms: C_20  and  C_28
REMARK    8  A    between atoms: C_26  and  C_29
REMARK    9  A    between atoms: C_33  and  C_36
REMARK   10  A    between atoms: C_37  and  C_40
REMARK                            x       y       z     vdW  Elec       q    Type
REMARK                         _______ _______ _______ _____ _____    ______ ____
ROOT
ATOM      1  C   UNL     1     107.463 126.034 141.946  0.00  0.00    +0.000 A 
ATOM      2  C   UNL     1     108.043 126.619 141.917  0.00  0.00    +0.000 A 
ATOM      3  C   UNL     1     107.422 125.464 141.351  0.00  0.00    +0.000 A 
ATOM      4  C   UNL     1     108.542 126.066 140.698  0.00  0.00    +0.000 A 
ATOM      5  C   UNL     1     108.582 126.635 141.293  0.00  0.00    +0.000 A 
ATOM      6  C   UNL     1     107.961 125.480 140.727  0.00  0.00    +0.000 A 
ENDROOT
BRANCH   4   9
ATOM      7  O   UNL     1     108.849 126.368 139.335  0.00  0.00    +0.000 OA
ATOM      8  O   UNL     1     111.163 125.559 139.678  0.00  0.00    +0.000 OA
ATOM      9  C   UNL     1     109.081 126.082 140.074  0.00  0.00    +0.000 C 
ATOM     10  C   UNL     1     109.692 126.703 137.293  0.00  0.00    +0.000 A 
ATOM     11  C   UNL     1     109.853 125.813 140.187  0.00  0.00    +0.000 C 
ATOM     12  C   UNL     1     109.389 126.384 138.711  0.00  0.00    +0.000 A 
ATOM     13  C   UNL     1     110.160 126.114 138.826  0.00  0.00    +0.000 A 
ATOM     14  C   UNL     1     109.135 126.684 137.946  0.00  0.00    +0.000 A 
ATOM     15  C   UNL     1     110.392 125.829 139.563  0.00  0.00    +0.000 C 
ATOM     16  C   UNL     1     110.496 126.422 137.412  0.00  0.00    +0.000 A 
ATOM     17  C   UNL     1     110.731 126.126 138.184  0.00  0.00    +0.000 A 
BRANCH  10  18
ATOM     18  O   UNL     1     109.458 126.989 136.555  0.00  0.00    +0.000 OA
BRANCH  18  27
ATOM     19  O   UNL     1     110.057 128.283 136.636  0.00  0.00    +0.000 OA
ATOM     20  O   UNL     1     108.050 129.279 135.586  0.00  0.00    +0.000 OA
ATOM     21  O   UNL     1     109.318 130.242 136.017  0.00  0.00    +0.000 OA
ATOM     22  O   UNL     1     108.120 127.652 135.855  0.00  0.00    +0.000 OA
ATOM     23  C   UNL     1     108.719 128.947 135.936  0.00  0.00    +0.000 C 
ATOM     24  C   UNL     1     109.353 129.429 136.152  0.00  0.00    +0.000 C 
ATOM     25  C   UNL     1     108.754 128.134 136.071  0.00  0.00    +0.000 C 
ATOM     26  C   UNL     1     110.023 129.097 136.502  0.00  0.00    +0.000 C 
ATOM     27  C   UNL     1     109.422 127.803 136.421  0.00  0.00    +0.000 C 
BRANCH  26  29
ATOM     28  O   UNL     1     111.410 129.429 136.415  0.00  0.00    +0.000 OA
ATOM     29  C   UNL     1     110.657 129.578 136.717  0.00  0.00    +0.000 C 
ENDBRANCH  26  29
ENDBRANCH  18  27
ENDBRANCH  10  18
ENDBRANCH   4   9
BRANCH   1  30
ATOM     30  O   UNL     1     106.924 126.018 142.570  0.00  0.00    +0.000 OA
BRANCH  30  37
ATOM     31  O   UNL     1     105.946 126.836 141.924  0.00  0.00    +0.000 OA
ATOM     32  O   UNL     1     105.286 127.777 144.116  0.00  0.00    +0.000 OA
ATOM     33  O   UNL     1     104.529 128.281 142.740  0.00  0.00    +0.000 OA
ATOM     34  C   UNL     1     106.105 126.897 143.343  0.00  0.00    +0.000 C 
ATOM     35  C   UNL     1     105.506 127.463 143.386  0.00  0.00    +0.000 C 
ATOM     36  C   UNL     1     105.128 127.715 142.697  0.00  0.00    +0.000 C 
ATOM     37  C   UNL     1     106.325 126.584 142.613  0.00  0.00    +0.000 C 
ATOM     38  C   UNL     1     105.348 127.402 141.967  0.00  0.00    +0.000 C 
BRANCH  38  40
ATOM     39  O   UNL     1     104.584 127.106 140.796  0.00  0.00    +0.000 OA
ATOM     40  C   UNL     1     104.970 127.654 141.279  0.00  0.00    +0.000 C 
ENDBRANCH  38  40
BRANCH  34  41
ATOM     41  O   UNL     1     106.483 126.645 144.031  0.00  0.00    +0.000 OA
BRANCH  41  47
ATOM     42  O   UNL     1     105.485 125.597 144.290  0.00  0.00    +0.000 OA
ATOM     43  O   UNL     1     105.608 124.559 145.922  0.00  0.00    +0.000 OA
ATOM     44  O   UNL     1     107.093 126.061 145.616  0.00  0.00    +0.000 OA
ATOM     45  C   UNL     1     105.938 125.163 145.469  0.00  0.00    +0.000 C 
ATOM     46  C   UNL     1     106.433 125.772 145.213  0.00  0.00    +0.000 C 
ATOM     47  C   UNL     1     106.153 126.039 144.485  0.00  0.00    +0.000 C 
ATOM     48  C   UNL     1     105.351 125.055 144.898  0.00  0.00    +0.000 C 
BRANCH  45  50
ATOM     49  O   UNL     1     106.196 124.505 146.710  0.00  0.00    +0.000 OA
ATOM     50  C   UNL     1     106.394 125.078 146.151  0.00  0.00    +0.000 C 
ENDBRANCH  45  50
ENDBRANCH  41  47
ENDBRANCH  34  41
ENDBRANCH  30  37
ENDBRANCH   1  30
TORSDOF 10
ENDMDL
MODEL 8
REMARK VINA RESULT:      -9.6      5.586      7.287
REMARK  Name = 42607806
REMARK  10 active torsions:
REMARK  status: ('A' for Active; 'I' for Inactive)
REMARK    1  A    between atoms: O_1  and  C_19
REMARK    2  A    between atoms: O_1  and  C_23
REMARK    3  A    between atoms: O_7  and  C_25
REMARK    4  A    between atoms: O_7  and  C_35
REMARK    5  A    between atoms: O_12  and  C_34
REMARK    6  A    between atoms: O_12  and  C_41
REMARK    7  A    between atoms: C_20  and  C_28
REMARK    8  A    between atoms: C_26  and  C_29
REMARK    9  A    between atoms: C_33  and  C_36
REMARK   10  A    between atoms: C_37  and  C_40
REMARK                            x       y       z     vdW  Elec       q    Type
REMARK                         _______ _______ _______ _____ _____    ______ ____
ROOT
ATOM      1  C   UNL     1     106.264 126.734 146.479  0.00  0.00    +0.000 A 
ATOM      2  C   UNL     1     106.287 127.382 146.988  0.00  0.00    +0.000 A 
ATOM      3  C   UNL     1     106.636 126.773 145.744  0.00  0.00    +0.000 A 
ATOM      4  C   UNL     1     107.054 128.111 146.028  0.00  0.00    +0.000 A 
ATOM      5  C   UNL     1     106.682 128.070 146.763  0.00  0.00    +0.000 A 
ATOM      6  C   UNL     1     107.032 127.462 145.518  0.00  0.00    +0.000 A 
ENDROOT
BRANCH   4   9
ATOM      7  O   UNL     1     108.270 128.792 145.707  0.00  0.00    +0.000 OA
ATOM      8  O   UNL     1     106.996 130.878 145.315  0.00  0.00    +0.000 OA
ATOM      9  C   UNL     1     107.449 128.799 145.802  0.00  0.00    +0.000 C 
ATOM     10  C   UNL     1     109.935 130.174 145.152  0.00  0.00    +0.000 A 
ATOM     11  C   UNL     1     107.026 129.494 145.671  0.00  0.00    +0.000 C 
ATOM     12  C   UNL     1     108.665 129.480 145.482  0.00  0.00    +0.000 A 
ATOM     13  C   UNL     1     108.240 130.175 145.351  0.00  0.00    +0.000 A 
ATOM     14  C   UNL     1     109.519 129.460 145.387  0.00  0.00    +0.000 A 
ATOM     15  C   UNL     1     107.421 130.183 145.446  0.00  0.00    +0.000 C 
ATOM     16  C   UNL     1     109.493 130.898 145.015  0.00  0.00    +0.000 A 
ATOM     17  C   UNL     1     108.640 130.898 145.116  0.00  0.00    +0.000 A 
BRANCH  10  18
ATOM     18  O   UNL     1     110.755 130.164 145.058  0.00  0.00    +0.000 OA
BRANCH  18  27
ATOM     19  O   UNL     1     110.862 129.467 143.816  0.00  0.00    +0.000 OA
ATOM     20  O   UNL     1     112.508 131.135 143.021  0.00  0.00    +0.000 OA
ATOM     21  O   UNL     1     112.067 129.881 142.043  0.00  0.00    +0.000 OA
ATOM     22  O   UNL     1     111.852 131.275 144.529  0.00  0.00    +0.000 OA
ATOM     23  C   UNL     1     111.959 130.578 143.286  0.00  0.00    +0.000 C 
ATOM     24  C   UNL     1     111.739 129.952 142.797  0.00  0.00    +0.000 C 
ATOM     25  C   UNL     1     111.631 130.649 144.040  0.00  0.00    +0.000 C 
ATOM     26  C   UNL     1     111.189 129.395 143.062  0.00  0.00    +0.000 C 
ATOM     27  C   UNL     1     111.083 130.093 144.304  0.00  0.00    +0.000 C 
BRANCH  26  29
ATOM     28  O   UNL     1     110.986 127.995 142.860  0.00  0.00    +0.000 OA
ATOM     29  C   UNL     1     110.969 128.769 142.573  0.00  0.00    +0.000 C 
ENDBRANCH  26  29
ENDBRANCH  18  27
ENDBRANCH  10  18
ENDBRANCH   4   9
BRANCH   1  30
ATOM     30  O   UNL     1     105.869 126.046 146.705  0.00  0.00    +0.000 OA
BRANCH  30  37
ATOM     31  O   UNL     1     106.995 125.518 147.409  0.00  0.00    +0.000 OA
ATOM     32  O   UNL     1     105.472 124.250 148.892  0.00  0.00    +0.000 OA
ATOM     33  O   UNL     1     107.104 124.144 149.101  0.00  0.00    +0.000 OA
ATOM     34  C   UNL     1     105.670 125.148 147.798  0.00  0.00    +0.000 C 
ATOM     35  C   UNL     1     105.979 124.672 148.397  0.00  0.00    +0.000 C 
ATOM     36  C   UNL     1     106.796 124.620 148.502  0.00  0.00    +0.000 C 
ATOM     37  C   UNL     1     106.177 125.570 147.304  0.00  0.00    +0.000 C 
ATOM     38  C   UNL     1     107.303 125.042 148.008  0.00  0.00    +0.000 C 
BRANCH  38  40
ATOM     39  O   UNL     1     108.619 124.988 147.455  0.00  0.00    +0.000 OA
ATOM     40  C   UNL     1     108.119 124.989 148.112  0.00  0.00    +0.000 C 
ENDBRANCH  38  40
BRANCH  34  41
ATOM     41  O   UNL     1     104.854 125.201 147.693  0.00  0.00    +0.000 OA
BRANCH  41  47
ATOM     42  O   UNL     1     104.814 124.028 146.807  0.00  0.00    +0.000 OA
ATOM     43  O   UNL     1     103.107 123.426 146.114  0.00  0.00    +0.000 OA
ATOM     44  O   UNL     1     103.085 125.134 147.393  0.00  0.00    +0.000 OA
ATOM     45  C   UNL     1     103.499 123.979 146.584  0.00  0.00    +0.000 C 
ATOM     46  C   UNL     1     103.649 124.617 147.085  0.00  0.00    +0.000 C 
ATOM     47  C   UNL     1     104.462 124.647 147.222  0.00  0.00    +0.000 C 
ATOM     48  C   UNL     1     104.220 123.614 146.413  0.00  0.00    +0.000 C 
BRANCH  45  50
ATOM     49  O   UNL     1     102.180 123.792 146.067  0.00  0.00    +0.000 OA
ATOM     50  C   UNL     1     102.693 124.154 146.602  0.00  0.00    +0.000 C 
ENDBRANCH  45  50
ENDBRANCH  41  47
ENDBRANCH  34  41
ENDBRANCH  30  37
ENDBRANCH   1  30
TORSDOF 10
ENDMDL
MODEL 9
REMARK VINA RESULT:      -9.6      5.655      8.589
REMARK  Name = 42607806
REMARK  10 active torsions:
REMARK  status: ('A' for Active; 'I' for Inactive)
REMARK    1  A    between atoms: O_1  and  C_19
REMARK    2  A    between atoms: O_1  and  C_23
REMARK    3  A    between atoms: O_7  and  C_25
REMARK    4  A    between atoms: O_7  and  C_35
REMARK    5  A    between atoms: O_12  and  C_34
REMARK    6  A    between atoms: O_12  and  C_41
REMARK    7  A    between atoms: C_20  and  C_28
REMARK    8  A    between atoms: C_26  and  C_29
REMARK    9  A    between atoms: C_33  and  C_36
REMARK   10  A    between atoms: C_37  and  C_40
REMARK                            x       y       z     vdW  Elec       q    Type
REMARK                         _______ _______ _______ _____ _____    ______ ____
ROOT
ATOM      1  C   UNL     1     110.882 126.488 139.739  0.00  0.00    +0.000 A 
ATOM      2  C   UNL     1     110.878 126.448 140.562  0.00  0.00    +0.000 A 
ATOM      3  C   UNL     1     110.172 126.446 139.320  0.00  0.00    +0.000 A 
ATOM      4  C   UNL     1     109.454 126.327 140.550  0.00  0.00    +0.000 A 
ATOM      5  C   UNL     1     110.164 126.368 140.968  0.00  0.00    +0.000 A 
ATOM      6  C   UNL     1     109.458 126.366 139.726  0.00  0.00    +0.000 A 
ENDROOT
BRANCH   4   9
ATOM      7  O   UNL     1     108.238 125.613 140.786  0.00  0.00    +0.000 OA
ATOM      8  O   UNL     1     107.602 127.270 142.512  0.00  0.00    +0.000 OA
ATOM      9  C   UNL     1     108.740 126.246 140.956  0.00  0.00    +0.000 C 
ATOM     10  C   UNL     1     106.266 124.780 141.426  0.00  0.00    +0.000 A 
ATOM     11  C   UNL     1     108.528 126.798 141.531  0.00  0.00    +0.000 C 
ATOM     12  C   UNL     1     107.524 125.532 141.192  0.00  0.00    +0.000 A 
ATOM     13  C   UNL     1     107.313 126.085 141.767  0.00  0.00    +0.000 A 
ATOM     14  C   UNL     1     107.010 124.869 141.006  0.00  0.00    +0.000 A 
ATOM     15  C   UNL     1     107.814 126.717 141.937  0.00  0.00    +0.000 C 
ATOM     16  C   UNL     1     106.045 125.355 142.025  0.00  0.00    +0.000 A 
ATOM     17  C   UNL     1     106.572 126.012 142.197  0.00  0.00    +0.000 A 
BRANCH  10  18
ATOM     18  O   UNL     1     105.766 124.147 141.254  0.00  0.00    +0.000 OA
BRANCH  18  27
ATOM     19  O   UNL     1     104.909 124.729 140.272  0.00  0.00    +0.000 OA
ATOM     20  O   UNL     1     105.209 122.741 138.830  0.00  0.00    +0.000 OA
ATOM     21  O   UNL     1     104.251 123.986 138.327  0.00  0.00    +0.000 OA
ATOM     22  O   UNL     1     105.967 122.821 140.293  0.00  0.00    +0.000 OA
ATOM     23  C   UNL     1     105.109 123.404 139.310  0.00  0.00    +0.000 C 
ATOM     24  C   UNL     1     104.630 124.027 139.059  0.00  0.00    +0.000 C 
ATOM     25  C   UNL     1     105.488 123.444 140.042  0.00  0.00    +0.000 C 
ATOM     26  C   UNL     1     104.529 124.690 139.540  0.00  0.00    +0.000 C 
ATOM     27  C   UNL     1     105.387 124.106 140.522  0.00  0.00    +0.000 C 
BRANCH  26  29
ATOM     28  O   UNL     1     104.299 126.092 139.392  0.00  0.00    +0.000 OA
ATOM     29  C   UNL     1     104.050 125.312 139.289  0.00  0.00    +0.000 C 
ENDBRANCH  26  29
ENDBRANCH  18  27
ENDBRANCH  10  18
ENDBRANCH   4   9
BRANCH   1  30
ATOM     30  O   UNL     1     111.596 126.568 139.333  0.00  0.00    +0.000 OA
BRANCH  30  37
ATOM     31  O   UNL     1     111.645 127.989 139.478  0.00  0.00    +0.000 OA
ATOM     32  O   UNL     1     112.893 128.162 137.348  0.00  0.00    +0.000 OA
ATOM     33  O   UNL     1     112.527 129.524 138.202  0.00  0.00    +0.000 OA
ATOM     34  C   UNL     1     112.244 127.365 138.341  0.00  0.00    +0.000 C 
ATOM     35  C   UNL     1     112.477 128.104 138.058  0.00  0.00    +0.000 C 
ATOM     36  C   UNL     1     112.294 128.785 138.485  0.00  0.00    +0.000 C 
ATOM     37  C   UNL     1     111.829 127.307 139.050  0.00  0.00    +0.000 C 
ATOM     38  C   UNL     1     111.878 128.728 139.194  0.00  0.00    +0.000 C 
BRANCH  38  40
ATOM     39  O   UNL     1     112.096 129.575 140.324  0.00  0.00    +0.000 OA
ATOM     40  C   UNL     1     111.694 129.409 139.622  0.00  0.00    +0.000 C 
ENDBRANCH  38  40
BRANCH  34  41
ATOM     41  O   UNL     1     112.428 126.684 137.913  0.00  0.00    +0.000 OA
BRANCH  41  47
ATOM     42  O   UNL     1     113.726 126.514 138.583  0.00  0.00    +0.000 OA
ATOM     43  O   UNL     1     114.942 125.143 137.951  0.00  0.00    +0.000 OA
ATOM     44  O   UNL     1     113.077 125.330 136.929  0.00  0.00    +0.000 OA
ATOM     45  C   UNL     1     114.209 125.507 137.851  0.00  0.00    +0.000 C 
ATOM     46  C   UNL     1     113.460 125.698 137.561  0.00  0.00    +0.000 C 
ATOM     47  C   UNL     1     113.162 126.319 138.014  0.00  0.00    +0.000 C 
ATOM     48  C   UNL     1     114.373 126.012 138.483  0.00  0.00    +0.000 C 
BRANCH  45  50
ATOM     49  O   UNL     1     115.022 124.608 137.095  0.00  0.00    +0.000 OA
ATOM     50  C   UNL     1     114.279 124.914 137.281  0.00  0.00    +0.000 C 
ENDBRANCH  45  50
ENDBRANCH  41  47
ENDBRANCH  34  41
ENDBRANCH  30  37
ENDBRANCH   1  30
TORSDOF 10
ENDMDL
MODEL 10
REMARK VINA RESULT:      -9.5      5.742      8.998
REMARK  Name = 42607806
REMARK  10 active torsions:
REMARK  status: ('A' for Active; 'I' for Inactive)
REMARK    1  A    between atoms: O_1  and  C_19
REMARK    2  A    between atoms: O_1  and  C_23
REMARK    3  A    between atoms: O_7  and  C_25
REMARK    4  A    between atoms: O_7  and  C_35
REMARK    5  A    between atoms: O_12  and  C_34
REMARK    6  A    between atoms: O_12  and  C_41
REMARK    7  A    between atoms: C_20  and  C_28
REMARK    8  A    between atoms: C_26  and  C_29
REMARK    9  A    between atoms: C_33  and  C_36
REMARK   10  A    between atoms: C_37  and  C_40
REMARK                            x       y       z     vdW  Elec       q    Type
REMARK                         _______ _______ _______ _____ _____    ______ ____
ROOT
ATOM      1  C   UNL     1     109.504 126.120 139.471  0.00  0.00    +0.000 A 
ATOM      2  C   UNL     1     109.459 126.308 138.669  0.00  0.00    +0.000 A 
ATOM      3  C   UNL     1     110.239 126.012 139.829  0.00  0.00    +0.000 A 
ATOM      4  C   UNL     1     110.885 126.281 138.583  0.00  0.00    +0.000 A 
ATOM      5  C   UNL     1     110.150 126.389 138.226  0.00  0.00    +0.000 A 
ATOM      6  C   UNL     1     110.930 126.092 139.386  0.00  0.00    +0.000 A 
ENDROOT
BRANCH   4   9
ATOM      7  O   UNL     1     111.658 126.992 137.613  0.00  0.00    +0.000 OA
ATOM      8  O   UNL     1     113.484 125.340 137.858  0.00  0.00    +0.000 OA
ATOM      9  C   UNL     1     111.576 126.361 138.139  0.00  0.00    +0.000 C 
ATOM     10  C   UNL     1     113.139 127.823 136.161  0.00  0.00    +0.000 A 
ATOM     11  C   UNL     1     112.185 125.811 138.220  0.00  0.00    +0.000 C 
ATOM     12  C   UNL     1     112.349 127.072 137.169  0.00  0.00    +0.000 A 
ATOM     13  C   UNL     1     112.957 126.521 137.251  0.00  0.00    +0.000 A 
ATOM     14  C   UNL     1     112.422 127.734 136.626  0.00  0.00    +0.000 A 
ATOM     15  C   UNL     1     112.876 125.891 137.776  0.00  0.00    +0.000 C 
ATOM     16  C   UNL     1     113.773 127.249 136.245  0.00  0.00    +0.000 A 
ATOM     17  C   UNL     1     113.681 126.594 136.794  0.00  0.00    +0.000 A 
BRANCH  10  18
ATOM     18  O   UNL     1     113.218 128.455 135.636  0.00  0.00    +0.000 OA
BRANCH  18  27
ATOM     19  O   UNL     1     113.550 129.493 136.558  0.00  0.00    +0.000 OA
ATOM     20  O   UNL     1     115.326 130.285 135.027  0.00  0.00    +0.000 OA
ATOM     21  O   UNL     1     115.067 131.061 136.460  0.00  0.00    +0.000 OA
ATOM     22  O   UNL     1     114.401 128.982 134.615  0.00  0.00    +0.000 OA
ATOM     23  C   UNL     1     114.734 130.021 135.538  0.00  0.00    +0.000 C 
ATOM     24  C   UNL     1     114.605 130.409 136.254  0.00  0.00    +0.000 C 
ATOM     25  C   UNL     1     114.271 129.370 135.332  0.00  0.00    +0.000 C 
ATOM     26  C   UNL     1     114.012 130.145 136.765  0.00  0.00    +0.000 C 
ATOM     27  C   UNL     1     113.680 129.106 135.842  0.00  0.00    +0.000 C 
BRANCH  26  29
ATOM     28  O   UNL     1     113.139 130.845 137.653  0.00  0.00    +0.000 OA
ATOM     29  C   UNL     1     113.883 130.533 137.482  0.00  0.00    +0.000 C 
ENDBRANCH  26  29
ENDBRANCH  18  27
ENDBRANCH  10  18
ENDBRANCH   4   9
BRANCH   1  30
ATOM     30  O   UNL     1     108.813 126.040 139.915  0.00  0.00    +0.000 OA
BRANCH  30  37
ATOM     31  O   UNL     1     108.855 127.361 140.457  0.00  0.00    +0.000 OA
ATOM     32  O   UNL     1     107.787 126.543 142.534  0.00  0.00    +0.000 OA
ATOM     33  O   UNL     1     108.185 128.137 142.383  0.00  0.00    +0.000 OA
ATOM     34  C   UNL     1     108.300 126.291 141.224  0.00  0.00    +0.000 C 
ATOM     35  C   UNL     1     108.143 126.816 141.842  0.00  0.00    +0.000 C 
ATOM     36  C   UNL     1     108.342 127.613 141.766  0.00  0.00    +0.000 C 
ATOM     37  C   UNL     1     108.656 126.564 140.532  0.00  0.00    +0.000 C 
ATOM     38  C   UNL     1     108.698 127.885 141.074  0.00  0.00    +0.000 C 
BRANCH  38  40
ATOM     39  O   UNL     1     108.564 129.134 140.393  0.00  0.00    +0.000 OA
ATOM     40  C   UNL     1     108.897 128.682 140.998  0.00  0.00    +0.000 C 
ENDBRANCH  38  40
BRANCH  34  41
ATOM     41  O   UNL     1     108.101 125.494 141.300  0.00  0.00    +0.000 OA
BRANCH  41  47
ATOM     42  O   UNL     1     106.721 125.717 140.842  0.00  0.00    +0.000 OA
ATOM     43  O   UNL     1     105.521 124.202 140.693  0.00  0.00    +0.000 OA
ATOM     44  O   UNL     1     107.507 123.801 141.363  0.00  0.00    +0.000 OA
ATOM     45  C   UNL     1     106.280 124.457 140.889  0.00  0.00    +0.000 C 
ATOM     46  C   UNL     1     107.069 124.461 141.132  0.00  0.00    +0.000 C 
ATOM     47  C   UNL     1     107.341 125.239 141.103  0.00  0.00    +0.000 C 
ATOM     48  C   UNL     1     106.065 125.234 140.710  0.00  0.00    +0.000 C 
BRANCH  45  50
ATOM     49  O   UNL     1     105.559 123.226 140.820  0.00  0.00    +0.000 OA
ATOM     50  C   UNL     1     106.249 123.640 140.999  0.00  0.00    +0.000 C 
ENDBRANCH  45  50
ENDBRANCH  41  47
ENDBRANCH  34  41
ENDBRANCH  30  37
ENDBRANCH   1  30
TORSDOF 10
ENDMDL
