MODEL 1
REMARK VINA RESULT:     -10.6      0.000      0.000
REMARK  Name = 74978385
REMARK  6 active torsions:
REMARK  status: ('A' for Active; 'I' for Inactive)
REMARK    1  A    between atoms: O_1  and  C_16
REMARK    2  A    between atoms: O_1  and  C_19
REMARK    3  A    between atoms: O_5  and  C_25
REMARK    4  A    between atoms: O_5  and  C_28
REMARK    5  A    between atoms: O_13  and  C_39
REMARK    6  A    between atoms: C_29  and  C_32
REMARK                            x       y       z     vdW  Elec       q    Type
REMARK                         _______ _______ _______ _____ _____    ______ ____
ROOT
ATOM      1  O   UNL     1     113.860 127.551 136.417  0.00  0.00    +0.000 OA
ATOM      2  O   UNL     1     111.465 127.289 135.848  0.00  0.00    +0.000 OA
ATOM      3  O   UNL     1     111.470 125.931 136.332  0.00  0.00    +0.000 OA
ATOM      4  C   UNL     1     112.647 128.092 135.890  0.00  0.00    +0.000 A 
ATOM      5  C   UNL     1     113.445 128.180 136.080  0.00  0.00    +0.000 A 
ATOM      6  C   UNL     1     112.263 127.377 136.038  0.00  0.00    +0.000 A 
ATOM      7  C   UNL     1     112.678 126.749 136.376  0.00  0.00    +0.000 A 
ATOM      8  C   UNL     1     113.477 126.836 136.565  0.00  0.00    +0.000 A 
ATOM      9  C   UNL     1     112.268 126.008 136.525  0.00  0.00    +0.000 A 
ATOM     10  C   UNL     1     113.919 126.189 136.917  0.00  0.00    +0.000 A 
ATOM     11  C   UNL     1     112.695 125.351 136.876  0.00  0.00    +0.000 A 
ATOM     12  C   UNL     1     113.526 125.442 137.074  0.00  0.00    +0.000 A 
ENDROOT
BRANCH   5  15
ATOM     13  O   UNL     1     114.525 130.651 137.026  0.00  0.00    +0.000 OA
ATOM     14  O   UNL     1     114.978 131.041 135.488  0.00  0.00    +0.000 OA
ATOM     15  C   UNL     1     113.828 128.894 135.932  0.00  0.00    +0.000 A 
ATOM     16  C   UNL     1     113.985 129.415 136.553  0.00  0.00    +0.000 A 
ATOM     17  C   UNL     1     114.055 129.090 135.163  0.00  0.00    +0.000 A 
ATOM     18  C   UNL     1     114.369 130.131 136.405  0.00  0.00    +0.000 A 
ATOM     19  C   UNL     1     114.438 129.805 135.015  0.00  0.00    +0.000 A 
ATOM     20  C   UNL     1     114.595 130.325 135.636  0.00  0.00    +0.000 A 
ENDBRANCH   5  15
BRANCH  12  21
ATOM     21  O   UNL     1     113.943 124.815 137.411  0.00  0.00    +0.000 OA
ATOM     22  C   UNL     1     114.721 124.666 137.181  0.00  0.00    +0.000 C 
ENDBRANCH  12  21
BRANCH   4  23
ATOM     23  O   UNL     1     112.232 128.720 135.552  0.00  0.00    +0.000 OA
BRANCH  23  31
ATOM     24  O   UNL     1     111.542 129.023 136.766  0.00  0.00    +0.000 OA
ATOM     25  O   UNL     1     109.701 130.045 135.466  0.00  0.00    +0.000 OA
ATOM     26  O   UNL     1     111.005 129.402 134.686  0.00  0.00    +0.000 OA
ATOM     27  C   UNL     1     110.277 129.685 136.724  0.00  0.00    +0.000 C 
ATOM     28  C   UNL     1     110.315 129.704 135.899  0.00  0.00    +0.000 C 
ATOM     29  C   UNL     1     110.891 129.344 137.157  0.00  0.00    +0.000 C 
ATOM     30  C   UNL     1     110.967 129.383 135.509  0.00  0.00    +0.000 C 
ATOM     31  C   UNL     1     111.580 129.042 135.943  0.00  0.00    +0.000 C 
ATOM     32  C   UNL     1     110.853 129.325 137.981  0.00  0.00    +0.000 C 
BRANCH  27  33
ATOM     33  O   UNL     1     109.625 130.007 137.114  0.00  0.00    +0.000 OA
BRANCH  33  38
ATOM     34  O   UNL     1     110.284 131.274 137.172  0.00  0.00    +0.000 OA
ATOM     35  O   UNL     1     108.347 130.634 137.949  0.00  0.00    +0.000 OA
ATOM     36  O   UNL     1     108.367 132.214 138.423  0.00  0.00    +0.000 OA
ATOM     37  O   UNL     1     109.665 133.167 138.063  0.00  0.00    +0.000 OA
ATOM     38  C   UNL     1     109.635 130.796 137.351  0.00  0.00    +0.000 C 
ATOM     39  C   UNL     1     108.996 131.110 137.769  0.00  0.00    +0.000 C 
ATOM     40  C   UNL     1     109.006 131.901 138.006  0.00  0.00    +0.000 C 
ATOM     41  C   UNL     1     109.655 132.377 137.826  0.00  0.00    +0.000 C 
ATOM     42  C   UNL     1     110.294 132.063 137.408  0.00  0.00    +0.000 C 
ATOM     43  C   UNL     1     110.943 132.540 137.229  0.00  0.00    +0.000 C 
ENDBRANCH  33  38
ENDBRANCH  27  33
ENDBRANCH  23  31
ENDBRANCH   4  23
TORSDOF 6
ENDMDL
MODEL 2
REMARK VINA RESULT:     -10.3      2.917      4.745
REMARK  Name = 74978385
REMARK  6 active torsions:
REMARK  status: ('A' for Active; 'I' for Inactive)
REMARK    1  A    between atoms: O_1  and  C_16
REMARK    2  A    between atoms: O_1  and  C_19
REMARK    3  A    between atoms: O_5  and  C_25
REMARK    4  A    between atoms: O_5  and  C_28
REMARK    5  A    between atoms: O_13  and  C_39
REMARK    6  A    between atoms: C_29  and  C_32
REMARK                            x       y       z     vdW  Elec       q    Type
REMARK                         _______ _______ _______ _____ _____    ______ ____
ROOT
ATOM      1  O   UNL     1     113.267 127.074 136.152  0.00  0.00    +0.000 OA
ATOM      2  O   UNL     1     112.093 128.500 137.799  0.00  0.00    +0.000 OA
ATOM      3  O   UNL     1     112.843 129.656 137.375  0.00  0.00    +0.000 OA
ATOM      4  C   UNL     1     112.301 127.221 137.195  0.00  0.00    +0.000 A 
ATOM      5  C   UNL     1     112.693 126.746 136.645  0.00  0.00    +0.000 A 
ATOM      6  C   UNL     1     112.484 128.024 137.250  0.00  0.00    +0.000 A 
ATOM      7  C   UNL     1     113.058 128.351 136.756  0.00  0.00    +0.000 A 
ATOM      8  C   UNL     1     113.450 127.876 136.207  0.00  0.00    +0.000 A 
ATOM      9  C   UNL     1     113.240 129.189 136.823  0.00  0.00    +0.000 A 
ATOM     10  C   UNL     1     114.050 128.205 135.687  0.00  0.00    +0.000 A 
ATOM     11  C   UNL     1     113.836 129.535 136.311  0.00  0.00    +0.000 A 
ATOM     12  C   UNL     1     114.244 129.040 135.740  0.00  0.00    +0.000 A 
ENDROOT
BRANCH   5  15
ATOM     13  O   UNL     1     113.391 124.012 137.100  0.00  0.00    +0.000 OA
ATOM     14  O   UNL     1     111.962 123.535 136.426  0.00  0.00    +0.000 OA
ATOM     15  C   UNL     1     112.510 125.944 136.591  0.00  0.00    +0.000 A 
ATOM     16  C   UNL     1     113.042 125.379 136.873  0.00  0.00    +0.000 A 
ATOM     17  C   UNL     1     111.796 125.705 136.253  0.00  0.00    +0.000 A 
ATOM     18  C   UNL     1     112.859 124.576 136.818  0.00  0.00    +0.000 A 
ATOM     19  C   UNL     1     111.613 124.903 136.198  0.00  0.00    +0.000 A 
ATOM     20  C   UNL     1     112.145 124.338 136.481  0.00  0.00    +0.000 A 
ENDBRANCH   5  15
BRANCH  12  21
ATOM     21  O   UNL     1     114.818 129.365 135.244  0.00  0.00    +0.000 OA
ATOM     22  C   UNL     1     114.595 129.845 134.612  0.00  0.00    +0.000 C 
ENDBRANCH  12  21
BRANCH   4  23
ATOM     23  O   UNL     1     111.727 126.894 137.689  0.00  0.00    +0.000 OA
BRANCH  23  31
ATOM     24  O   UNL     1     112.563 126.854 138.846  0.00  0.00    +0.000 OA
ATOM     25  O   UNL     1     110.585 127.218 140.288  0.00  0.00    +0.000 OA
ATOM     26  O   UNL     1     110.408 127.137 138.650  0.00  0.00    +0.000 OA
ATOM     27  C   UNL     1     111.993 127.016 140.146  0.00  0.00    +0.000 C 
ATOM     28  C   UNL     1     111.244 127.097 139.807  0.00  0.00    +0.000 C 
ATOM     29  C   UNL     1     112.652 126.895 139.665  0.00  0.00    +0.000 C 
ATOM     30  C   UNL     1     111.156 127.056 138.988  0.00  0.00    +0.000 C 
ATOM     31  C   UNL     1     111.816 126.935 138.508  0.00  0.00    +0.000 C 
ATOM     32  C   UNL     1     113.400 126.814 140.004  0.00  0.00    +0.000 C 
BRANCH  27  33
ATOM     33  O   UNL     1     112.081 127.056 140.966  0.00  0.00    +0.000 OA
BRANCH  33  38
ATOM     34  O   UNL     1     112.470 128.431 140.934  0.00  0.00    +0.000 OA
ATOM     35  O   UNL     1     111.556 127.241 142.519  0.00  0.00    +0.000 OA
ATOM     36  O   UNL     1     111.682 128.708 143.263  0.00  0.00    +0.000 OA
ATOM     37  O   UNL     1     112.333 129.990 142.455  0.00  0.00    +0.000 OA
ATOM     38  C   UNL     1     112.144 127.789 141.337  0.00  0.00    +0.000 C 
ATOM     39  C   UNL     1     111.882 127.882 142.114  0.00  0.00    +0.000 C 
ATOM     40  C   UNL     1     111.944 128.616 142.487  0.00  0.00    +0.000 C 
ATOM     41  C   UNL     1     112.270 129.256 142.082  0.00  0.00    +0.000 C 
ATOM     42  C   UNL     1     112.533 129.164 141.305  0.00  0.00    +0.000 C 
ATOM     43  C   UNL     1     112.858 129.806 140.902  0.00  0.00    +0.000 C 
ENDBRANCH  33  38
ENDBRANCH  27  33
ENDBRANCH  23  31
ENDBRANCH   4  23
TORSDOF 6
ENDMDL
MODEL 3
REMARK VINA RESULT:     -10.2      1.356      3.425
REMARK  Name = 74978385
REMARK  6 active torsions:
REMARK  status: ('A' for Active; 'I' for Inactive)
REMARK    1  A    between atoms: O_1  and  C_16
REMARK    2  A    between atoms: O_1  and  C_19
REMARK    3  A    between atoms: O_5  and  C_25
REMARK    4  A    between atoms: O_5  and  C_28
REMARK    5  A    between atoms: O_13  and  C_39
REMARK    6  A    between atoms: C_29  and  C_32
REMARK                            x       y       z     vdW  Elec       q    Type
REMARK                         _______ _______ _______ _____ _____    ______ ____
ROOT
ATOM      1  O   UNL     1     113.366 127.575 136.052  0.00  0.00    +0.000 OA
ATOM      2  O   UNL     1     112.206 129.543 137.006  0.00  0.00    +0.000 OA
ATOM      3  O   UNL     1     113.134 130.438 136.360  0.00  0.00    +0.000 OA
ATOM      4  C   UNL     1     112.320 128.126 136.854  0.00  0.00    +0.000 A 
ATOM      5  C   UNL     1     112.706 127.470 136.536  0.00  0.00    +0.000 A 
ATOM      6  C   UNL     1     112.593 128.887 136.688  0.00  0.00    +0.000 A 
ATOM      7  C   UNL     1     113.252 128.991 136.203  0.00  0.00    +0.000 A 
ATOM      8  C   UNL     1     113.639 128.335 135.885  0.00  0.00    +0.000 A 
ATOM      9  C   UNL     1     113.527 129.789 136.037  0.00  0.00    +0.000 A 
ATOM     10  C   UNL     1     114.327 128.432 135.379  0.00  0.00    +0.000 A 
ATOM     11  C   UNL     1     114.213 129.904 135.534  0.00  0.00    +0.000 A 
ATOM     12  C   UNL     1     114.616 129.221 135.203  0.00  0.00    +0.000 A 
ENDROOT
BRANCH   5  15
ATOM     13  O   UNL     1     111.297 125.116 135.735  0.00  0.00    +0.000 OA
ATOM     14  O   UNL     1     111.614 124.428 137.201  0.00  0.00    +0.000 OA
ATOM     15  C   UNL     1     112.434 126.710 136.702  0.00  0.00    +0.000 A 
ATOM     16  C   UNL     1     112.002 126.294 136.136  0.00  0.00    +0.000 A 
ATOM     17  C   UNL     1     112.592 126.365 137.435  0.00  0.00    +0.000 A 
ATOM     18  C   UNL     1     111.729 125.532 136.302  0.00  0.00    +0.000 A 
ATOM     19  C   UNL     1     112.319 125.605 137.601  0.00  0.00    +0.000 A 
ATOM     20  C   UNL     1     111.887 125.189 137.035  0.00  0.00    +0.000 A 
ENDBRANCH   5  15
BRANCH  12  21
ATOM     21  O   UNL     1     115.276 129.323 134.718  0.00  0.00    +0.000 OA
ATOM     22  C   UNL     1     115.597 130.076 134.612  0.00  0.00    +0.000 C 
ENDBRANCH  12  21
BRANCH   4  23
ATOM     23  O   UNL     1     111.660 128.021 137.338  0.00  0.00    +0.000 OA
BRANCH  23  31
ATOM     24  O   UNL     1     110.713 128.413 136.344  0.00  0.00    +0.000 OA
ATOM     25  O   UNL     1     109.232 129.317 138.109  0.00  0.00    +0.000 OA
ATOM     26  O   UNL     1     110.673 128.624 138.515  0.00  0.00    +0.000 OA
ATOM     27  C   UNL     1     109.498 129.061 136.728  0.00  0.00    +0.000 C 
ATOM     28  C   UNL     1     109.726 129.015 137.521  0.00  0.00    +0.000 C 
ATOM     29  C   UNL     1     109.992 128.759 136.141  0.00  0.00    +0.000 C 
ATOM     30  C   UNL     1     110.446 128.669 137.724  0.00  0.00    +0.000 C 
ATOM     31  C   UNL     1     110.939 128.368 137.135  0.00  0.00    +0.000 C 
ATOM     32  C   UNL     1     109.764 128.804 135.348  0.00  0.00    +0.000 C 
BRANCH  27  33
ATOM     33  O   UNL     1     108.778 129.407 136.525  0.00  0.00    +0.000 OA
BRANCH  33  38
ATOM     34  O   UNL     1     109.393 130.696 136.491  0.00  0.00    +0.000 OA
ATOM     35  O   UNL     1     107.413 130.040 135.847  0.00  0.00    +0.000 OA
ATOM     36  O   UNL     1     107.346 131.646 135.474  0.00  0.00    +0.000 OA
ATOM     37  O   UNL     1     108.643 132.619 135.778  0.00  0.00    +0.000 OA
ATOM     38  C   UNL     1     108.744 130.209 136.339  0.00  0.00    +0.000 C 
ATOM     39  C   UNL     1     108.062 130.526 136.000  0.00  0.00    +0.000 C 
ATOM     40  C   UNL     1     108.028 131.329 135.813  0.00  0.00    +0.000 C 
ATOM     41  C   UNL     1     108.677 131.815 135.965  0.00  0.00    +0.000 C 
ATOM     42  C   UNL     1     109.359 131.499 136.304  0.00  0.00    +0.000 C 
ATOM     43  C   UNL     1     110.008 131.986 136.456  0.00  0.00    +0.000 C 
ENDBRANCH  33  38
ENDBRANCH  27  33
ENDBRANCH  23  31
ENDBRANCH   4  23
TORSDOF 6
ENDMDL
MODEL 4
REMARK VINA RESULT:     -10.2      2.032      3.757
REMARK  Name = 74978385
REMARK  6 active torsions:
REMARK  status: ('A' for Active; 'I' for Inactive)
REMARK    1  A    between atoms: O_1  and  C_16
REMARK    2  A    between atoms: O_1  and  C_19
REMARK    3  A    between atoms: O_5  and  C_25
REMARK    4  A    between atoms: O_5  and  C_28
REMARK    5  A    between atoms: O_13  and  C_39
REMARK    6  A    between atoms: C_29  and  C_32
REMARK                            x       y       z     vdW  Elec       q    Type
REMARK                         _______ _______ _______ _____ _____    ______ ____
ROOT
ATOM      1  O   UNL     1     113.064 126.472 139.139  0.00  0.00    +0.000 OA
ATOM      2  O   UNL     1     113.133 128.705 138.072  0.00  0.00    +0.000 OA
ATOM      3  O   UNL     1     112.987 129.352 139.353  0.00  0.00    +0.000 OA
ATOM      4  C   UNL     1     113.171 127.279 137.965  0.00  0.00    +0.000 A 
ATOM      5  C   UNL     1     113.148 126.535 138.321  0.00  0.00    +0.000 A 
ATOM      6  C   UNL     1     113.110 127.961 138.428  0.00  0.00    +0.000 A 
ATOM      7  C   UNL     1     113.026 127.896 139.246  0.00  0.00    +0.000 A 
ATOM      8  C   UNL     1     113.003 127.152 139.602  0.00  0.00    +0.000 A 
ATOM      9  C   UNL     1     112.963 128.613 139.717  0.00  0.00    +0.000 A 
ATOM     10  C   UNL     1     112.915 127.073 140.453  0.00  0.00    +0.000 A 
ATOM     11  C   UNL     1     112.875 128.553 140.570  0.00  0.00    +0.000 A 
ATOM     12  C   UNL     1     112.851 127.778 140.940  0.00  0.00    +0.000 A 
ENDROOT
BRANCH   5  15
ATOM     13  O   UNL     1     111.934 124.251 137.106  0.00  0.00    +0.000 OA
ATOM     14  O   UNL     1     113.393 123.814 136.470  0.00  0.00    +0.000 OA
ATOM     15  C   UNL     1     113.210 125.856 137.859  0.00  0.00    +0.000 A 
ATOM     16  C   UNL     1     112.542 125.394 137.714  0.00  0.00    +0.000 A 
ATOM     17  C   UNL     1     113.939 125.636 137.540  0.00  0.00    +0.000 A 
ATOM     18  C   UNL     1     112.603 124.713 137.251  0.00  0.00    +0.000 A 
ATOM     19  C   UNL     1     114.000 124.957 137.078  0.00  0.00    +0.000 A 
ATOM     20  C   UNL     1     113.332 124.495 136.933  0.00  0.00    +0.000 A 
ENDBRANCH   5  15
BRANCH  12  21
ATOM     21  O   UNL     1     112.767 127.712 141.758  0.00  0.00    +0.000 OA
ATOM     22  C   UNL     1     112.042 127.882 142.113  0.00  0.00    +0.000 C 
ENDBRANCH  12  21
BRANCH   4  23
ATOM     23  O   UNL     1     113.256 127.344 137.147  0.00  0.00    +0.000 OA
BRANCH  23  31
ATOM     24  O   UNL     1     111.881 127.653 136.912  0.00  0.00    +0.000 OA
ATOM     25  O   UNL     1     112.522 129.003 134.939  0.00  0.00    +0.000 OA
ATOM     26  O   UNL     1     113.684 128.244 135.832  0.00  0.00    +0.000 OA
ATOM     27  C   UNL     1     111.514 128.482 135.807  0.00  0.00    +0.000 C 
ATOM     28  C   UNL     1     112.309 128.553 135.597  0.00  0.00    +0.000 C 
ATOM     29  C   UNL     1     111.301 128.032 136.465  0.00  0.00    +0.000 C 
ATOM     30  C   UNL     1     112.890 128.173 136.043  0.00  0.00    +0.000 C 
ATOM     31  C   UNL     1     112.675 127.723 136.701  0.00  0.00    +0.000 C 
ATOM     32  C   UNL     1     110.506 127.962 136.676  0.00  0.00    +0.000 C 
BRANCH  27  33
ATOM     33  O   UNL     1     110.933 128.862 135.361  0.00  0.00    +0.000 OA
BRANCH  33  38
ATOM     34  O   UNL     1     111.093 130.046 136.145  0.00  0.00    +0.000 OA
ATOM     35  O   UNL     1     109.626 129.535 134.612  0.00  0.00    +0.000 OA
ATOM     36  O   UNL     1     109.132 131.055 135.022  0.00  0.00    +0.000 OA
ATOM     37  O   UNL     1     109.946 131.902 136.181  0.00  0.00    +0.000 OA
ATOM     38  C   UNL     1     110.687 129.621 135.566  0.00  0.00    +0.000 C 
ATOM     39  C   UNL     1     110.033 129.958 135.191  0.00  0.00    +0.000 C 
ATOM     40  C   UNL     1     109.786 130.718 135.396  0.00  0.00    +0.000 C 
ATOM     41  C   UNL     1     110.193 131.142 135.976  0.00  0.00    +0.000 C 
ATOM     42  C   UNL     1     110.847 130.805 136.350  0.00  0.00    +0.000 C 
ATOM     43  C   UNL     1     111.253 131.229 136.929  0.00  0.00    +0.000 C 
ENDBRANCH  33  38
ENDBRANCH  27  33
ENDBRANCH  23  31
ENDBRANCH   4  23
TORSDOF 6
ENDMDL
MODEL 5
REMARK VINA RESULT:     -10.2      1.850      5.227
REMARK  Name = 74978385
REMARK  6 active torsions:
REMARK  status: ('A' for Active; 'I' for Inactive)
REMARK    1  A    between atoms: O_1  and  C_16
REMARK    2  A    between atoms: O_1  and  C_19
REMARK    3  A    between atoms: O_5  and  C_25
REMARK    4  A    between atoms: O_5  and  C_28
REMARK    5  A    between atoms: O_13  and  C_39
REMARK    6  A    between atoms: C_29  and  C_32
REMARK                            x       y       z     vdW  Elec       q    Type
REMARK                         _______ _______ _______ _____ _____    ______ ____
ROOT
ATOM      1  O   UNL     1     111.976 131.121 138.265  0.00  0.00    +0.000 OA
ATOM      2  O   UNL     1     111.950 129.649 136.276  0.00  0.00    +0.000 OA
ATOM      3  O   UNL     1     110.736 130.266 135.800  0.00  0.00    +0.000 OA
ATOM      4  C   UNL     1     112.564 130.071 137.496  0.00  0.00    +0.000 A 
ATOM      5  C   UNL     1     112.573 130.562 138.159  0.00  0.00    +0.000 A 
ATOM      6  C   UNL     1     111.958 130.140 136.939  0.00  0.00    +0.000 A 
ATOM      7  C   UNL     1     111.362 130.699 137.047  0.00  0.00    +0.000 A 
ATOM      8  C   UNL     1     111.370 131.190 137.710  0.00  0.00    +0.000 A 
ATOM      9  C   UNL     1     110.736 130.761 136.460  0.00  0.00    +0.000 A 
ATOM     10  C   UNL     1     110.754 131.776 137.832  0.00  0.00    +0.000 A 
ATOM     11  C   UNL     1     110.112 131.341 136.566  0.00  0.00    +0.000 A 
ATOM     12  C   UNL     1     110.121 131.852 137.257  0.00  0.00    +0.000 A 
ENDROOT
BRANCH   5  15
ATOM     13  O   UNL     1     113.468 129.789 140.760  0.00  0.00    +0.000 OA
ATOM     14  O   UNL     1     114.995 130.287 140.383  0.00  0.00    +0.000 OA
ATOM     15  C   UNL     1     113.178 130.494 138.714  0.00  0.00    +0.000 A 
ATOM     16  C   UNL     1     113.020 130.176 139.459  0.00  0.00    +0.000 A 
ATOM     17  C   UNL     1     113.942 130.743 138.526  0.00  0.00    +0.000 A 
ATOM     18  C   UNL     1     113.626 130.107 140.016  0.00  0.00    +0.000 A 
ATOM     19  C   UNL     1     114.547 130.674 139.082  0.00  0.00    +0.000 A 
ATOM     20  C   UNL     1     114.389 130.356 139.826  0.00  0.00    +0.000 A 
ENDBRANCH   5  15
BRANCH  12  21
ATOM     21  O   UNL     1     109.525 132.412 137.366  0.00  0.00    +0.000 OA
ATOM     22  C   UNL     1     108.775 132.174 137.615  0.00  0.00    +0.000 C 
ENDBRANCH  12  21
BRANCH   4  23
ATOM     23  O   UNL     1     113.161 129.512 137.388  0.00  0.00    +0.000 OA
BRANCH  23  31
ATOM     24  O   UNL     1     112.371 128.410 137.836  0.00  0.00    +0.000 OA
ATOM     25  O   UNL     1     113.622 126.899 136.327  0.00  0.00    +0.000 OA
ATOM     26  O   UNL     1     113.995 128.505 136.382  0.00  0.00    +0.000 OA
ATOM     27  C   UNL     1     112.601 127.103 137.306  0.00  0.00    +0.000 C 
ATOM     28  C   UNL     1     113.205 127.403 136.830  0.00  0.00    +0.000 C 
ATOM     29  C   UNL     1     112.184 127.607 137.809  0.00  0.00    +0.000 C 
ATOM     30  C   UNL     1     113.392 128.206 136.857  0.00  0.00    +0.000 C 
ATOM     31  C   UNL     1     112.974 128.709 137.361  0.00  0.00    +0.000 C 
ATOM     32  C   UNL     1     111.580 127.307 138.285  0.00  0.00    +0.000 C 
BRANCH  27  33
ATOM     33  O   UNL     1     112.414 126.300 137.279  0.00  0.00    +0.000 OA
BRANCH  33  38
ATOM     34  O   UNL     1     111.437 126.548 136.265  0.00  0.00    +0.000 OA
ATOM     35  O   UNL     1     112.261 124.676 137.028  0.00  0.00    +0.000 OA
ATOM     36  O   UNL     1     111.208 124.112 135.890  0.00  0.00    +0.000 OA
ATOM     37  O   UNL     1     110.308 125.172 135.002  0.00  0.00    +0.000 OA
ATOM     38  C   UNL     1     111.888 126.018 136.710  0.00  0.00    +0.000 C 
ATOM     39  C   UNL     1     111.812 125.206 136.585  0.00  0.00    +0.000 C 
ATOM     40  C   UNL     1     111.285 124.924 136.015  0.00  0.00    +0.000 C 
ATOM     41  C   UNL     1     110.835 125.454 135.572  0.00  0.00    +0.000 C 
ATOM     42  C   UNL     1     110.911 126.266 135.697  0.00  0.00    +0.000 C 
ATOM     43  C   UNL     1     110.461 126.796 135.252  0.00  0.00    +0.000 C 
ENDBRANCH  33  38
ENDBRANCH  27  33
ENDBRANCH  23  31
ENDBRANCH   4  23
TORSDOF 6
ENDMDL
MODEL 6
REMARK VINA RESULT:     -10.2      2.049      3.233
REMARK  Name = 74978385
REMARK  6 active torsions:
REMARK  status: ('A' for Active; 'I' for Inactive)
REMARK    1  A    between atoms: O_1  and  C_16
REMARK    2  A    between atoms: O_1  and  C_19
REMARK    3  A    between atoms: O_5  and  C_25
REMARK    4  A    between atoms: O_5  and  C_28
REMARK    5  A    between atoms: O_13  and  C_39
REMARK    6  A    between atoms: C_29  and  C_32
REMARK                            x       y       z     vdW  Elec       q    Type
REMARK                         _______ _______ _______ _____ _____    ______ ____
ROOT
ATOM      1  O   UNL     1     112.411 125.666 138.341  0.00  0.00    +0.000 OA
ATOM      2  O   UNL     1     111.896 127.444 136.697  0.00  0.00    +0.000 OA
ATOM      3  O   UNL     1     111.520 126.462 135.711  0.00  0.00    +0.000 OA
ATOM      4  C   UNL     1     112.337 127.052 137.999  0.00  0.00    +0.000 A 
ATOM      5  C   UNL     1     112.509 126.459 138.547  0.00  0.00    +0.000 A 
ATOM      6  C   UNL     1     112.068 126.851 137.245  0.00  0.00    +0.000 A 
ATOM      7  C   UNL     1     111.970 126.059 137.040  0.00  0.00    +0.000 A 
ATOM      8  C   UNL     1     112.142 125.466 137.588  0.00  0.00    +0.000 A 
ATOM      9  C   UNL     1     111.689 125.862 136.252  0.00  0.00    +0.000 A 
ATOM     10  C   UNL     1     112.044 124.636 137.385  0.00  0.00    +0.000 A 
ATOM     11  C   UNL     1     111.585 125.039 136.032  0.00  0.00    +0.000 A 
ATOM     12  C   UNL     1     111.763 124.422 136.602  0.00  0.00    +0.000 A 
ENDROOT
BRANCH   5  15
ATOM     13  O   UNL     1     112.035 126.737 141.352  0.00  0.00    +0.000 OA
ATOM     14  O   UNL     1     113.586 127.261 141.562  0.00  0.00    +0.000 OA
ATOM     15  C   UNL     1     112.778 126.660 139.300  0.00  0.00    +0.000 A 
ATOM     16  C   UNL     1     112.272 126.598 139.949  0.00  0.00    +0.000 A 
ATOM     17  C   UNL     1     113.553 126.922 139.406  0.00  0.00    +0.000 A 
ATOM     18  C   UNL     1     112.541 126.799 140.703  0.00  0.00    +0.000 A 
ATOM     19  C   UNL     1     113.822 127.122 140.159  0.00  0.00    +0.000 A 
ATOM     20  C   UNL     1     113.316 127.061 140.808  0.00  0.00    +0.000 A 
ENDBRANCH   5  15
BRANCH  12  21
ATOM     21  O   UNL     1     111.666 123.628 136.399  0.00  0.00    +0.000 OA
ATOM     22  C   UNL     1     112.041 123.040 136.841  0.00  0.00    +0.000 C 
ENDBRANCH  12  21
BRANCH   4  23
ATOM     23  O   UNL     1     112.435 127.845 138.205  0.00  0.00    +0.000 OA
BRANCH  23  31
ATOM     24  O   UNL     1     111.039 128.080 138.396  0.00  0.00    +0.000 OA
ATOM     25  O   UNL     1     111.350 130.449 137.750  0.00  0.00    +0.000 OA
ATOM     26  O   UNL     1     112.642 129.424 137.774  0.00  0.00    +0.000 OA
ATOM     27  C   UNL     1     110.496 129.382 138.168  0.00  0.00    +0.000 C 
ATOM     28  C   UNL     1     111.247 129.659 137.965  0.00  0.00    +0.000 C 
ATOM     29  C   UNL     1     110.393 128.593 138.383  0.00  0.00    +0.000 C 
ATOM     30  C   UNL     1     111.893 129.147 137.977  0.00  0.00    +0.000 C 
ATOM     31  C   UNL     1     111.789 128.357 138.193  0.00  0.00    +0.000 C 
ATOM     32  C   UNL     1     109.642 128.315 138.587  0.00  0.00    +0.000 C 
BRANCH  27  33
ATOM     33  O   UNL     1     109.849 129.895 138.156  0.00  0.00    +0.000 OA
BRANCH  33  38
ATOM     34  O   UNL     1     109.592 129.549 136.794  0.00  0.00    +0.000 OA
ATOM     35  O   UNL     1     108.699 131.074 138.075  0.00  0.00    +0.000 OA
ATOM     36  O   UNL     1     107.866 131.319 136.672  0.00  0.00    +0.000 OA
ATOM     37  O   UNL     1     108.183 130.383 135.350  0.00  0.00    +0.000 OA
ATOM     38  C   UNL     1     109.433 130.016 137.455  0.00  0.00    +0.000 C 
ATOM     39  C   UNL     1     108.858 130.606 137.415  0.00  0.00    +0.000 C 
ATOM     40  C   UNL     1     108.441 130.729 136.712  0.00  0.00    +0.000 C 
ATOM     41  C   UNL     1     108.600 130.261 136.052  0.00  0.00    +0.000 C 
ATOM     42  C   UNL     1     109.176 129.671 136.093  0.00  0.00    +0.000 C 
ATOM     43  C   UNL     1     109.334 129.203 135.432  0.00  0.00    +0.000 C 
ENDBRANCH  33  38
ENDBRANCH  27  33
ENDBRANCH  23  31
ENDBRANCH   4  23
TORSDOF 6
ENDMDL
MODEL 7
REMARK VINA RESULT:     -10.2      1.571      5.440
REMARK  Name = 74978385
REMARK  6 active torsions:
REMARK  status: ('A' for Active; 'I' for Inactive)
REMARK    1  A    between atoms: O_1  and  C_16
REMARK    2  A    between atoms: O_1  and  C_19
REMARK    3  A    between atoms: O_5  and  C_25
REMARK    4  A    between atoms: O_5  and  C_28
REMARK    5  A    between atoms: O_13  and  C_39
REMARK    6  A    between atoms: C_29  and  C_32
REMARK                            x       y       z     vdW  Elec       q    Type
REMARK                         _______ _______ _______ _____ _____    ______ ____
ROOT
ATOM      1  O   UNL     1     110.919 130.644 136.056  0.00  0.00    +0.000 OA
ATOM      2  O   UNL     1     109.783 128.855 137.334  0.00  0.00    +0.000 OA
ATOM      3  O   UNL     1     108.510 129.212 136.757  0.00  0.00    +0.000 OA
ATOM      4  C   UNL     1     110.976 129.563 136.988  0.00  0.00    +0.000 A 
ATOM      5  C   UNL     1     111.355 130.159 136.562  0.00  0.00    +0.000 A 
ATOM      6  C   UNL     1     110.162 129.451 136.908  0.00  0.00    +0.000 A 
ATOM      7  C   UNL     1     109.728 129.937 136.402  0.00  0.00    +0.000 A 
ATOM      8  C   UNL     1     110.106 130.533 135.976  0.00  0.00    +0.000 A 
ATOM      9  C   UNL     1     108.880 129.811 136.327  0.00  0.00    +0.000 A 
ATOM     10  C   UNL     1     109.664 131.046 135.446  0.00  0.00    +0.000 A 
ATOM     11  C   UNL     1     108.422 130.314 135.802  0.00  0.00    +0.000 A 
ATOM     12  C   UNL     1     108.817 130.935 135.359  0.00  0.00    +0.000 A 
ENDROOT
BRANCH   5  15
ATOM     13  O   UNL     1     114.006 129.857 135.539  0.00  0.00    +0.000 OA
ATOM     14  O   UNL     1     114.609 130.603 136.882  0.00  0.00    +0.000 OA
ATOM     15  C   UNL     1     112.168 130.270 136.642  0.00  0.00    +0.000 A 
ATOM     16  C   UNL     1     112.680 130.008 136.051  0.00  0.00    +0.000 A 
ATOM     17  C   UNL     1     112.470 130.643 137.313  0.00  0.00    +0.000 A 
ATOM     18  C   UNL     1     113.494 130.119 136.131  0.00  0.00    +0.000 A 
ATOM     19  C   UNL     1     113.283 130.754 137.393  0.00  0.00    +0.000 A 
ATOM     20  C   UNL     1     113.795 130.492 136.802  0.00  0.00    +0.000 A 
ENDBRANCH   5  15
BRANCH  12  21
ATOM     21  O   UNL     1     108.384 131.422 134.852  0.00  0.00    +0.000 OA
ATOM     22  C   UNL     1     107.924 132.033 135.161  0.00  0.00    +0.000 C 
ENDBRANCH  12  21
BRANCH   4  23
ATOM     23  O   UNL     1     111.410 129.077 137.494  0.00  0.00    +0.000 OA
BRANCH  23  31
ATOM     24  O   UNL     1     111.378 127.955 136.610  0.00  0.00    +0.000 OA
ATOM     25  O   UNL     1     111.540 126.423 138.546  0.00  0.00    +0.000 OA
ATOM     26  O   UNL     1     111.519 128.055 138.785  0.00  0.00    +0.000 OA
ATOM     27  C   UNL     1     111.443 126.628 137.135  0.00  0.00    +0.000 C 
ATOM     28  C   UNL     1     111.486 126.934 137.901  0.00  0.00    +0.000 C 
ATOM     29  C   UNL     1     111.389 127.139 136.490  0.00  0.00    +0.000 C 
ATOM     30  C   UNL     1     111.475 127.750 138.020  0.00  0.00    +0.000 C 
ATOM     31  C   UNL     1     111.421 128.261 137.374  0.00  0.00    +0.000 C 
ATOM     32  C   UNL     1     111.345 126.833 135.724  0.00  0.00    +0.000 C 
BRANCH  27  33
ATOM     33  O   UNL     1     111.454 125.812 137.016  0.00  0.00    +0.000 OA
BRANCH  33  38
ATOM     34  O   UNL     1     112.874 125.833 136.857  0.00  0.00    +0.000 OA
ATOM     35  O   UNL     1     111.493 124.167 137.145  0.00  0.00    +0.000 OA
ATOM     36  O   UNL     1     112.932 123.366 137.050  0.00  0.00    +0.000 OA
ATOM     37  O   UNL     1     114.333 124.210 136.827  0.00  0.00    +0.000 OA
ATOM     38  C   UNL     1     112.173 125.412 136.969  0.00  0.00    +0.000 C 
ATOM     39  C   UNL     1     112.192 124.590 137.033  0.00  0.00    +0.000 C 
ATOM     40  C   UNL     1     112.913 124.189 136.986  0.00  0.00    +0.000 C 
ATOM     41  C   UNL     1     113.612 124.611 136.874  0.00  0.00    +0.000 C 
ATOM     42  C   UNL     1     113.593 125.433 136.810  0.00  0.00    +0.000 C 
ATOM     43  C   UNL     1     114.294 125.854 136.698  0.00  0.00    +0.000 C 
ENDBRANCH  33  38
ENDBRANCH  27  33
ENDBRANCH  23  31
ENDBRANCH   4  23
TORSDOF 6
ENDMDL
MODEL 8
REMARK VINA RESULT:     -10.2      2.754      3.646
REMARK  Name = 74978385
REMARK  6 active torsions:
REMARK  status: ('A' for Active; 'I' for Inactive)
REMARK    1  A    between atoms: O_1  and  C_16
REMARK    2  A    between atoms: O_1  and  C_19
REMARK    3  A    between atoms: O_5  and  C_25
REMARK    4  A    between atoms: O_5  and  C_28
REMARK    5  A    between atoms: O_13  and  C_39
REMARK    6  A    between atoms: C_29  and  C_32
REMARK                            x       y       z     vdW  Elec       q    Type
REMARK                         _______ _______ _______ _____ _____    ______ ____
ROOT
ATOM      1  O   UNL     1     112.371 126.664 136.167  0.00  0.00    +0.000 OA
ATOM      2  O   UNL     1     111.017 127.227 138.161  0.00  0.00    +0.000 OA
ATOM      3  O   UNL     1     110.695 125.837 138.370  0.00  0.00    +0.000 OA
ATOM      4  C   UNL     1     111.846 127.638 137.071  0.00  0.00    +0.000 A 
ATOM      5  C   UNL     1     112.298 127.450 136.406  0.00  0.00    +0.000 A 
ATOM      6  C   UNL     1     111.468 127.040 137.496  0.00  0.00    +0.000 A 
ATOM      7  C   UNL     1     111.542 126.254 137.256  0.00  0.00    +0.000 A 
ATOM      8  C   UNL     1     111.994 126.066 136.591  0.00  0.00    +0.000 A 
ATOM      9  C   UNL     1     111.144 125.640 137.706  0.00  0.00    +0.000 A 
ATOM     10  C   UNL     1     112.078 125.251 136.331  0.00  0.00    +0.000 A 
ATOM     11  C   UNL     1     111.217 124.820 137.461  0.00  0.00    +0.000 A 
ATOM     12  C   UNL     1     111.687 124.624 136.769  0.00  0.00    +0.000 A 
ENDROOT
BRANCH   5  15
ATOM     13  O   UNL     1     114.687 128.843 135.684  0.00  0.00    +0.000 OA
ATOM     14  O   UNL     1     113.809 129.843 134.709  0.00  0.00    +0.000 OA
ATOM     15  C   UNL     1     112.675 128.048 135.982  0.00  0.00    +0.000 A 
ATOM     16  C   UNL     1     113.492 128.146 136.046  0.00  0.00    +0.000 A 
ATOM     17  C   UNL     1     112.236 128.549 135.494  0.00  0.00    +0.000 A 
ATOM     18  C   UNL     1     113.870 128.745 135.621  0.00  0.00    +0.000 A 
ATOM     19  C   UNL     1     112.614 129.146 135.070  0.00  0.00    +0.000 A 
ATOM     20  C   UNL     1     113.430 129.244 135.133  0.00  0.00    +0.000 A 
ENDBRANCH   5  15
BRANCH  12  21
ATOM     21  O   UNL     1     111.762 123.839 136.527  0.00  0.00    +0.000 OA
ATOM     22  C   UNL     1     112.303 123.342 136.902  0.00  0.00    +0.000 C 
ENDBRANCH  12  21
BRANCH   4  23
ATOM     23  O   UNL     1     111.772 128.424 137.311  0.00  0.00    +0.000 OA
BRANCH  23  31
ATOM     24  O   UNL     1     112.659 128.275 138.421  0.00  0.00    +0.000 OA
ATOM     25  O   UNL     1     111.459 130.075 139.623  0.00  0.00    +0.000 OA
ATOM     26  O   UNL     1     110.972 129.624 138.113  0.00  0.00    +0.000 OA
ATOM     27  C   UNL     1     112.503 129.100 139.577  0.00  0.00    +0.000 C 
ATOM     28  C   UNL     1     111.859 129.475 139.222  0.00  0.00    +0.000 C 
ATOM     29  C   UNL     1     112.903 128.500 139.176  0.00  0.00    +0.000 C 
ATOM     30  C   UNL     1     111.615 129.249 138.467  0.00  0.00    +0.000 C 
ATOM     31  C   UNL     1     112.016 128.649 138.067  0.00  0.00    +0.000 C 
ATOM     32  C   UNL     1     113.547 128.126 139.531  0.00  0.00    +0.000 C 
BRANCH  27  33
ATOM     33  O   UNL     1     112.747 129.326 140.332  0.00  0.00    +0.000 OA
BRANCH  33  38
ATOM     34  O   UNL     1     111.927 128.321 140.933  0.00  0.00    +0.000 OA
ATOM     35  O   UNL     1     112.886 130.085 141.791  0.00  0.00    +0.000 OA
ATOM     36  O   UNL     1     112.135 129.460 143.121  0.00  0.00    +0.000 OA
ATOM     37  O   UNL     1     111.246 128.075 142.992  0.00  0.00    +0.000 OA
ATOM     38  C   UNL     1     112.372 129.013 140.997  0.00  0.00    +0.000 C 
ATOM     39  C   UNL     1     112.441 129.393 141.726  0.00  0.00    +0.000 C 
ATOM     40  C   UNL     1     112.066 129.080 142.392  0.00  0.00    +0.000 C 
ATOM     41  C   UNL     1     111.621 128.388 142.327  0.00  0.00    +0.000 C 
ATOM     42  C   UNL     1     111.552 128.009 141.597  0.00  0.00    +0.000 C 
ATOM     43  C   UNL     1     111.107 127.316 141.534  0.00  0.00    +0.000 C 
ENDBRANCH  33  38
ENDBRANCH  27  33
ENDBRANCH  23  31
ENDBRANCH   4  23
TORSDOF 6
ENDMDL
MODEL 9
REMARK VINA RESULT:     -10.1      2.293      3.036
REMARK  Name = 74978385
REMARK  6 active torsions:
REMARK  status: ('A' for Active; 'I' for Inactive)
REMARK    1  A    between atoms: O_1  and  C_16
REMARK    2  A    between atoms: O_1  and  C_19
REMARK    3  A    between atoms: O_5  and  C_25
REMARK    4  A    between atoms: O_5  and  C_28
REMARK    5  A    between atoms: O_13  and  C_39
REMARK    6  A    between atoms: C_29  and  C_32
REMARK                            x       y       z     vdW  Elec       q    Type
REMARK                         _______ _______ _______ _____ _____    ______ ____
ROOT
ATOM      1  O   UNL     1     113.485 128.330 139.232  0.00  0.00    +0.000 OA
ATOM      2  O   UNL     1     112.316 129.222 137.241  0.00  0.00    +0.000 OA
ATOM      3  O   UNL     1     112.175 127.895 136.694  0.00  0.00    +0.000 OA
ATOM      4  C   UNL     1     112.964 129.439 138.497  0.00  0.00    +0.000 A 
ATOM      5  C   UNL     1     113.354 129.141 139.161  0.00  0.00    +0.000 A 
ATOM      6  C   UNL     1     112.706 128.925 137.905  0.00  0.00    +0.000 A 
ATOM      7  C   UNL     1     112.838 128.114 137.977  0.00  0.00    +0.000 A 
ATOM      8  C   UNL     1     113.227 127.816 138.641  0.00  0.00    +0.000 A 
ATOM      9  C   UNL     1     112.564 127.588 137.354  0.00  0.00    +0.000 A 
ATOM     10  C   UNL     1     113.370 126.973 138.727  0.00  0.00    +0.000 A 
ATOM     11  C   UNL     1     112.698 126.743 137.424  0.00  0.00    +0.000 A 
ATOM     12  C   UNL     1     113.104 126.433 138.115  0.00  0.00    +0.000 A 
ENDROOT
BRANCH   5  15
ATOM     13  O   UNL     1     113.069 130.235 141.786  0.00  0.00    +0.000 OA
ATOM     14  O   UNL     1     114.385 131.197 141.527  0.00  0.00    +0.000 OA
ATOM     15  C   UNL     1     113.611 129.655 139.752  0.00  0.00    +0.000 A 
ATOM     16  C   UNL     1     113.211 129.688 140.473  0.00  0.00    +0.000 A 
ATOM     17  C   UNL     1     114.269 130.137 139.623  0.00  0.00    +0.000 A 
ATOM     18  C   UNL     1     113.469 130.202 141.065  0.00  0.00    +0.000 A 
ATOM     19  C   UNL     1     114.526 130.650 140.214  0.00  0.00    +0.000 A 
ATOM     20  C   UNL     1     114.127 130.683 140.935  0.00  0.00    +0.000 A 
ENDBRANCH   5  15
BRANCH  12  21
ATOM     21  O   UNL     1     113.237 125.622 138.189  0.00  0.00    +0.000 OA
ATOM     22  C   UNL     1     113.908 125.281 137.850  0.00  0.00    +0.000 C 
ENDBRANCH  12  21
BRANCH   4  23
ATOM     23  O   UNL     1     112.832 130.250 138.425  0.00  0.00    +0.000 OA
BRANCH  23  31
ATOM     24  O   UNL     1     111.449 130.170 138.773  0.00  0.00    +0.000 OA
ATOM     25  O   UNL     1     110.978 132.146 137.360  0.00  0.00    +0.000 OA
ATOM     26  O   UNL     1     112.518 131.568 137.482  0.00  0.00    +0.000 OA
ATOM     27  C   UNL     1     110.521 131.118 138.241  0.00  0.00    +0.000 C 
ATOM     28  C   UNL     1     111.135 131.488 137.831  0.00  0.00    +0.000 C 
ATOM     29  C   UNL     1     110.679 130.459 138.712  0.00  0.00    +0.000 C 
ATOM     30  C   UNL     1     111.906 131.198 137.892  0.00  0.00    +0.000 C 
ATOM     31  C   UNL     1     112.062 130.539 138.364  0.00  0.00    +0.000 C 
ATOM     32  C   UNL     1     110.065 130.090 139.122  0.00  0.00    +0.000 C 
BRANCH  27  33
ATOM     33  O   UNL     1     109.751 131.407 138.180  0.00  0.00    +0.000 OA
BRANCH  33  38
ATOM     34  O   UNL     1     109.488 130.536 137.078  0.00  0.00    +0.000 OA
ATOM     35  O   UNL     1     108.375 132.252 137.841  0.00  0.00    +0.000 OA
ATOM     36  O   UNL     1     107.423 131.803 136.570  0.00  0.00    +0.000 OA
ATOM     37  O   UNL     1     107.848 130.509 135.638  0.00  0.00    +0.000 OA
ATOM     38  C   UNL     1     109.276 131.183 137.545  0.00  0.00    +0.000 C 
ATOM     39  C   UNL     1     108.588 131.605 137.376  0.00  0.00    +0.000 C 
ATOM     40  C   UNL     1     108.112 131.381 136.740  0.00  0.00    +0.000 C 
ATOM     41  C   UNL     1     108.325 130.734 136.274  0.00  0.00    +0.000 C 
ATOM     42  C   UNL     1     109.013 130.312 136.443  0.00  0.00    +0.000 C 
ATOM     43  C   UNL     1     109.225 129.665 135.977  0.00  0.00    +0.000 C 
ENDBRANCH  33  38
ENDBRANCH  27  33
ENDBRANCH  23  31
ENDBRANCH   4  23
TORSDOF 6
ENDMDL
MODEL 10
REMARK VINA RESULT:     -10.1      3.582      5.408
REMARK  Name = 74978385
REMARK  6 active torsions:
REMARK  status: ('A' for Active; 'I' for Inactive)
REMARK    1  A    between atoms: O_1  and  C_16
REMARK    2  A    between atoms: O_1  and  C_19
REMARK    3  A    between atoms: O_5  and  C_25
REMARK    4  A    between atoms: O_5  and  C_28
REMARK    5  A    between atoms: O_13  and  C_39
REMARK    6  A    between atoms: C_29  and  C_32
REMARK                            x       y       z     vdW  Elec       q    Type
REMARK                         _______ _______ _______ _____ _____    ______ ____
ROOT
ATOM      1  O   UNL     1     110.465 125.935 138.199  0.00  0.00    +0.000 OA
ATOM      2  O   UNL     1     112.920 125.922 138.517  0.00  0.00    +0.000 OA
ATOM      3  O   UNL     1     113.123 125.518 137.147  0.00  0.00    +0.000 OA
ATOM      4  C   UNL     1     111.605 126.128 139.039  0.00  0.00    +0.000 A 
ATOM      5  C   UNL     1     110.787 126.133 138.933  0.00  0.00    +0.000 A 
ATOM      6  C   UNL     1     112.102 125.926 138.411  0.00  0.00    +0.000 A 
ATOM      7  C   UNL     1     111.779 125.728 137.678  0.00  0.00    +0.000 A 
ATOM      8  C   UNL     1     110.961 125.733 137.572  0.00  0.00    +0.000 A 
ATOM      9  C   UNL     1     112.306 125.520 137.032  0.00  0.00    +0.000 A 
ATOM     10  C   UNL     1     110.613 125.529 136.813  0.00  0.00    +0.000 A 
ATOM     11  C   UNL     1     111.976 125.313 136.266  0.00  0.00    +0.000 A 
ATOM     12  C   UNL     1     111.124 125.317 136.156  0.00  0.00    +0.000 A 
ENDROOT
BRANCH   5  15
ATOM     13  O   UNL     1     109.459 125.428 141.364  0.00  0.00    +0.000 OA
ATOM     14  O   UNL     1     108.804 126.940 141.444  0.00  0.00    +0.000 OA
ATOM     15  C   UNL     1     110.291 126.334 139.560  0.00  0.00    +0.000 A 
ATOM     16  C   UNL     1     110.124 125.780 140.148  0.00  0.00    +0.000 A 
ATOM     17  C   UNL     1     109.963 127.090 139.601  0.00  0.00    +0.000 A 
ATOM     18  C   UNL     1     109.627 125.982 140.776  0.00  0.00    +0.000 A 
ATOM     19  C   UNL     1     109.468 127.292 140.228  0.00  0.00    +0.000 A 
ATOM     20  C   UNL     1     109.300 126.738 140.816  0.00  0.00    +0.000 A 
ENDBRANCH   5  15
BRANCH  12  21
ATOM     21  O   UNL     1     110.799 125.120 135.424  0.00  0.00    +0.000 OA
ATOM     22  C   UNL     1     110.472 125.708 134.946  0.00  0.00    +0.000 C 
ENDBRANCH  12  21
BRANCH   4  23
ATOM     23  O   UNL     1     111.928 126.326 139.772  0.00  0.00    +0.000 OA
BRANCH  23  31
ATOM     24  O   UNL     1     112.370 127.610 139.329  0.00  0.00    +0.000 OA
ATOM     25  O   UNL     1     114.152 127.589 141.045  0.00  0.00    +0.000 OA
ATOM     26  O   UNL     1     113.116 126.312 140.916  0.00  0.00    +0.000 OA
ATOM     27  C   UNL     1     113.482 128.242 139.965  0.00  0.00    +0.000 C 
ATOM     28  C   UNL     1     113.558 127.596 140.473  0.00  0.00    +0.000 C 
ATOM     29  C   UNL     1     112.888 128.248 139.393  0.00  0.00    +0.000 C 
ATOM     30  C   UNL     1     113.040 126.957 140.409  0.00  0.00    +0.000 C 
ATOM     31  C   UNL     1     112.446 126.964 139.836  0.00  0.00    +0.000 C 
ATOM     32  C   UNL     1     112.812 128.895 138.885  0.00  0.00    +0.000 C 
BRANCH  27  33
ATOM     33  O   UNL     1     114.000 128.881 140.030  0.00  0.00    +0.000 OA
BRANCH  33  38
ATOM     34  O   UNL     1     113.115 129.507 140.961  0.00  0.00    +0.000 OA
ATOM     35  O   UNL     1     115.091 130.100 140.247  0.00  0.00    +0.000 OA
ATOM     36  O   UNL     1     114.752 131.335 141.286  0.00  0.00    +0.000 OA
ATOM     37  O   UNL     1     113.322 131.352 142.109  0.00  0.00    +0.000 OA
ATOM     38  C   UNL     1     113.831 129.498 140.549  0.00  0.00    +0.000 C 
ATOM     39  C   UNL     1     114.376 130.107 140.658  0.00  0.00    +0.000 C 
ATOM     40  C   UNL     1     114.206 130.726 141.178  0.00  0.00    +0.000 C 
ATOM     41  C   UNL     1     113.491 130.734 141.589  0.00  0.00    +0.000 C 
ATOM     42  C   UNL     1     112.946 130.124 141.481  0.00  0.00    +0.000 C 
ATOM     43  C   UNL     1     112.231 130.133 141.892  0.00  0.00    +0.000 C 
ENDBRANCH  33  38
ENDBRANCH  27  33
ENDBRANCH  23  31
ENDBRANCH   4  23
TORSDOF 6
ENDMDL
