MODEL 1
REMARK VINA RESULT:      -9.7      0.000      0.000
REMARK  Name = 44258572
REMARK  11 active torsions:
REMARK  status: ('A' for Active; 'I' for Inactive)
REMARK    1  A    between atoms: O_1  and  C_19
REMARK    2  A    between atoms: O_1  and  C_22
REMARK    3  A    between atoms: O_5  and  C_24
REMARK    4  A    between atoms: O_5  and  C_31
REMARK    5  A    between atoms: O_10  and  C_29
REMARK    6  A    between atoms: O_10  and  C_34
REMARK    7  A    between atoms: O_11  and  C_30
REMARK    8  A    between atoms: O_11  and  C_35
REMARK    9  A    between atoms: C_25  and  C_29
REMARK   10  A    between atoms: C_28  and  C_30
REMARK   11  A    between atoms: C_42  and  C_44
REMARK                            x       y       z     vdW  Elec       q    Type
REMARK                         _______ _______ _______ _____ _____    ______ ____
ROOT
ATOM      1  O   UNL     1     106.278 128.519 142.497  0.00  0.00    +0.000 OA
ATOM      2  O   UNL     1     107.207 126.447 143.479  0.00  0.00    +0.000 OA
ATOM      3  O   UNL     1     108.142 127.385 142.495  0.00  0.00    +0.000 OA
ATOM      4  C   UNL     1     106.120 127.359 143.316  0.00  0.00    +0.000 C 
ATOM      5  C   UNL     1     106.897 127.138 143.151  0.00  0.00    +0.000 C 
ATOM      6  C   UNL     1     107.365 127.606 142.660  0.00  0.00    +0.000 C 
ATOM      7  C   UNL     1     105.810 128.050 142.989  0.00  0.00    +0.000 C 
ATOM      8  C   UNL     1     107.055 128.297 142.333  0.00  0.00    +0.000 C 
ENDROOT
BRANCH   4   9
ATOM      9  O   UNL     1     105.652 126.890 143.808  0.00  0.00    +0.000 OA
BRANCH   9  14
ATOM     10  O   UNL     1     106.088 127.599 144.970  0.00  0.00    +0.000 OA
ATOM     11  O   UNL     1     105.144 125.642 144.760  0.00  0.00    +0.000 OA
ATOM     12  O   UNL     1     105.325 125.728 146.398  0.00  0.00    +0.000 OA
ATOM     13  O   UNL     1     106.014 127.062 147.083  0.00  0.00    +0.000 OA
ATOM     14  C   UNL     1     105.743 126.933 144.626  0.00  0.00    +0.000 C 
ATOM     15  C   UNL     1     105.488 126.309 145.103  0.00  0.00    +0.000 C 
ATOM     16  C   UNL     1     105.579 126.352 145.922  0.00  0.00    +0.000 C 
ATOM     17  C   UNL     1     105.924 127.019 146.264  0.00  0.00    +0.000 C 
ATOM     18  C   UNL     1     106.178 127.642 145.788  0.00  0.00    +0.000 C 
BRANCH  18  19
ATOM     19  C   UNL     1     106.523 128.309 146.130  0.00  0.00    +0.000 C 
BRANCH  19  20
ATOM     20  O   UNL     1     106.386 129.055 145.807  0.00  0.00    +0.000 OA
BRANCH  20  22
ATOM     21  O   UNL     1     106.467 130.126 146.750  0.00  0.00    +0.000 OA
ATOM     22  C   UNL     1     106.781 129.715 146.107  0.00  0.00    +0.000 C 
ATOM     23  C   UNL     1     107.489 129.963 145.764  0.00  0.00    +0.000 C 
ENDBRANCH  20  22
ENDBRANCH  19  20
ENDBRANCH  18  19
ENDBRANCH   9  14
ENDBRANCH   4   9
BRANCH   7  24
ATOM     24  O   UNL     1     105.033 128.272 143.153  0.00  0.00    +0.000 OA
BRANCH  24  29
ATOM     25  O   UNL     1     104.163 129.659 143.356  0.00  0.00    +0.000 OA
ATOM     26  O   UNL     1     103.173 130.235 142.160  0.00  0.00    +0.000 OA
ATOM     27  O   UNL     1     103.949 127.976 140.525  0.00  0.00    +0.000 OA
ATOM     28  O   UNL     1     103.015 128.937 139.991  0.00  0.00    +0.000 OA
ATOM     29  C   UNL     1     104.544 128.545 142.547  0.00  0.00    +0.000 A 
ATOM     30  C   UNL     1     104.109 129.239 142.649  0.00  0.00    +0.000 A 
ATOM     31  C   UNL     1     104.491 128.124 141.840  0.00  0.00    +0.000 A 
ATOM     32  C   UNL     1     103.621 129.511 142.042  0.00  0.00    +0.000 A 
ATOM     33  C   UNL     1     104.002 128.397 141.233  0.00  0.00    +0.000 A 
ATOM     34  C   UNL     1     103.567 129.090 141.334  0.00  0.00    +0.000 A 
ATOM     35  C   UNL     1     103.062 129.364 140.695  0.00  0.00    +0.000 A 
ATOM     36  C   UNL     1     102.663 130.524 141.532  0.00  0.00    +0.000 A 
ATOM     37  C   UNL     1     102.607 130.086 140.795  0.00  0.00    +0.000 A 
BRANCH  36  39
ATOM     38  O   UNL     1     100.928 133.300 141.947  0.00  0.00    +0.000 OA
ATOM     39  C   UNL     1     102.229 131.218 141.636  0.00  0.00    +0.000 A 
ATOM     40  C   UNL     1     101.454 131.182 141.917  0.00  0.00    +0.000 A 
ATOM     41  C   UNL     1     102.570 131.948 141.458  0.00  0.00    +0.000 A 
ATOM     42  C   UNL     1     101.020 131.877 142.021  0.00  0.00    +0.000 A 
ATOM     43  C   UNL     1     102.136 132.642 141.562  0.00  0.00    +0.000 A 
ATOM     44  C   UNL     1     101.361 132.606 141.844  0.00  0.00    +0.000 A 
ENDBRANCH  36  39
ENDBRANCH  24  29
ENDBRANCH   7  24
BRANCH   8  45
ATOM     45  C   UNL     1     107.523 128.767 141.841  0.00  0.00    +0.000 C 
BRANCH  45  46
ATOM     46  O   UNL     1     107.417 129.585 141.830  0.00  0.00    +0.000 OA
BRANCH  46  48
ATOM     47  O   UNL     1     107.694 129.916 140.468  0.00  0.00    +0.000 OA
ATOM     48  C   UNL     1     107.816 130.044 141.274  0.00  0.00    +0.000 C 
ATOM     49  C   UNL     1     108.339 130.633 141.524  0.00  0.00    +0.000 C 
ENDBRANCH  46  48
ENDBRANCH  45  46
ENDBRANCH   8  45
TORSDOF 11
ENDMDL
MODEL 2
REMARK VINA RESULT:      -9.4      2.924      5.825
REMARK  Name = 44258572
REMARK  11 active torsions:
REMARK  status: ('A' for Active; 'I' for Inactive)
REMARK    1  A    between atoms: O_1  and  C_19
REMARK    2  A    between atoms: O_1  and  C_22
REMARK    3  A    between atoms: O_5  and  C_24
REMARK    4  A    between atoms: O_5  and  C_31
REMARK    5  A    between atoms: O_10  and  C_29
REMARK    6  A    between atoms: O_10  and  C_34
REMARK    7  A    between atoms: O_11  and  C_30
REMARK    8  A    between atoms: O_11  and  C_35
REMARK    9  A    between atoms: C_25  and  C_29
REMARK   10  A    between atoms: C_28  and  C_30
REMARK   11  A    between atoms: C_42  and  C_44
REMARK                            x       y       z     vdW  Elec       q    Type
REMARK                         _______ _______ _______ _____ _____    ______ ____
ROOT
ATOM      1  O   UNL     1     106.150 126.435 142.908  0.00  0.00    +0.000 OA
ATOM      2  O   UNL     1     107.915 128.009 143.637  0.00  0.00    +0.000 OA
ATOM      3  O   UNL     1     106.994 127.224 144.759  0.00  0.00    +0.000 OA
ATOM      4  C   UNL     1     107.199 127.352 142.589  0.00  0.00    +0.000 C 
ATOM      5  C   UNL     1     107.326 127.484 143.394  0.00  0.00    +0.000 C 
ATOM      6  C   UNL     1     106.867 127.092 143.955  0.00  0.00    +0.000 C 
ATOM      7  C   UNL     1     106.610 126.827 142.347  0.00  0.00    +0.000 C 
ATOM      8  C   UNL     1     106.278 126.567 143.712  0.00  0.00    +0.000 C 
ENDROOT
BRANCH   4   9
ATOM      9  O   UNL     1     107.658 127.744 142.029  0.00  0.00    +0.000 OA
BRANCH   9  14
ATOM     10  O   UNL     1     106.731 128.829 141.952  0.00  0.00    +0.000 OA
ATOM     11  O   UNL     1     108.836 128.707 141.388  0.00  0.00    +0.000 OA
ATOM     12  O   UNL     1     108.496 130.272 140.992  0.00  0.00    +0.000 OA
ATOM     13  O   UNL     1     106.980 130.875 141.236  0.00  0.00    +0.000 OA
ATOM     14  C   UNL     1     107.489 128.527 141.831  0.00  0.00    +0.000 C 
ATOM     15  C   UNL     1     108.078 129.009 141.510  0.00  0.00    +0.000 C 
ATOM     16  C   UNL     1     107.908 129.791 141.312  0.00  0.00    +0.000 C 
ATOM     17  C   UNL     1     107.149 130.092 141.434  0.00  0.00    +0.000 C 
ATOM     18  C   UNL     1     106.561 129.612 141.754  0.00  0.00    +0.000 C 
BRANCH  18  19
ATOM     19  C   UNL     1     105.803 129.912 141.877  0.00  0.00    +0.000 C 
BRANCH  19  20
ATOM     20  O   UNL     1     105.148 129.517 141.568  0.00  0.00    +0.000 OA
BRANCH  20  22
ATOM     21  O   UNL     1     104.059 130.415 141.342  0.00  0.00    +0.000 OA
ATOM     22  C   UNL     1     104.386 129.775 141.750  0.00  0.00    +0.000 C 
ATOM     23  C   UNL     1     103.950 129.394 142.338  0.00  0.00    +0.000 C 
ENDBRANCH  20  22
ENDBRANCH  19  20
ENDBRANCH  18  19
ENDBRANCH   9  14
ENDBRANCH   4   9
BRANCH   7  24
ATOM     24  O   UNL     1     106.482 126.695 141.543  0.00  0.00    +0.000 OA
BRANCH  24  29
ATOM     25  O   UNL     1     105.180 126.347 140.590  0.00  0.00    +0.000 OA
ATOM     26  O   UNL     1     104.921 124.817 140.014  0.00  0.00    +0.000 OA
ATOM     27  O   UNL     1     107.329 123.970 141.380  0.00  0.00    +0.000 OA
ATOM     28  O   UNL     1     106.575 122.999 140.625  0.00  0.00    +0.000 OA
ATOM     29  C   UNL     1     106.368 125.926 141.264  0.00  0.00    +0.000 A 
ATOM     30  C   UNL     1     105.717 125.753 140.788  0.00  0.00    +0.000 A 
ATOM     31  C   UNL     1     106.905 125.333 141.461  0.00  0.00    +0.000 A 
ATOM     32  C   UNL     1     105.603 124.985 140.509  0.00  0.00    +0.000 A 
ATOM     33  C   UNL     1     106.791 124.565 141.183  0.00  0.00    +0.000 A 
ATOM     34  C   UNL     1     106.141 124.390 140.707  0.00  0.00    +0.000 A 
ATOM     35  C   UNL     1     106.033 123.587 140.422  0.00  0.00    +0.000 A 
ATOM     36  C   UNL     1     104.798 124.019 139.721  0.00  0.00    +0.000 A 
ATOM     37  C   UNL     1     105.357 123.400 139.926  0.00  0.00    +0.000 A 
BRANCH  36  39
ATOM     38  O   UNL     1     102.191 123.334 137.817  0.00  0.00    +0.000 OA
ATOM     39  C   UNL     1     104.146 123.848 139.245  0.00  0.00    +0.000 A 
ATOM     40  C   UNL     1     104.213 123.888 138.423  0.00  0.00    +0.000 A 
ATOM     41  C   UNL     1     103.427 123.636 139.590  0.00  0.00    +0.000 A 
ATOM     42  C   UNL     1     103.560 123.717 137.947  0.00  0.00    +0.000 A 
ATOM     43  C   UNL     1     102.776 123.465 139.114  0.00  0.00    +0.000 A 
ATOM     44  C   UNL     1     102.842 123.505 138.292  0.00  0.00    +0.000 A 
ENDBRANCH  36  39
ENDBRANCH  24  29
ENDBRANCH   7  24
BRANCH   8  45
ATOM     45  C   UNL     1     105.818 126.175 144.273  0.00  0.00    +0.000 C 
BRANCH  45  46
ATOM     46  O   UNL     1     105.628 125.379 144.167  0.00  0.00    +0.000 OA
BRANCH  46  48
ATOM     47  O   UNL     1     104.716 125.400 145.267  0.00  0.00    +0.000 OA
ATOM     48  C   UNL     1     105.195 124.979 144.743  0.00  0.00    +0.000 C 
ATOM     49  C   UNL     1     105.241 124.156 144.796  0.00  0.00    +0.000 C 
ENDBRANCH  46  48
ENDBRANCH  45  46
ENDBRANCH   8  45
TORSDOF 11
ENDMDL
MODEL 3
REMARK VINA RESULT:      -9.3      2.666      5.228
REMARK  Name = 44258572
REMARK  11 active torsions:
REMARK  status: ('A' for Active; 'I' for Inactive)
REMARK    1  A    between atoms: O_1  and  C_19
REMARK    2  A    between atoms: O_1  and  C_22
REMARK    3  A    between atoms: O_5  and  C_24
REMARK    4  A    between atoms: O_5  and  C_31
REMARK    5  A    between atoms: O_10  and  C_29
REMARK    6  A    between atoms: O_10  and  C_34
REMARK    7  A    between atoms: O_11  and  C_30
REMARK    8  A    between atoms: O_11  and  C_35
REMARK    9  A    between atoms: C_25  and  C_29
REMARK   10  A    between atoms: C_28  and  C_30
REMARK   11  A    between atoms: C_42  and  C_44
REMARK                            x       y       z     vdW  Elec       q    Type
REMARK                         _______ _______ _______ _____ _____    ______ ____
ROOT
ATOM      1  O   UNL     1     105.635 126.953 143.744  0.00  0.00    +0.000 OA
ATOM      2  O   UNL     1     106.549 127.381 146.004  0.00  0.00    +0.000 OA
ATOM      3  O   UNL     1     105.709 128.563 145.217  0.00  0.00    +0.000 OA
ATOM      4  C   UNL     1     106.360 126.504 144.892  0.00  0.00    +0.000 C 
ATOM      5  C   UNL     1     106.244 127.238 145.251  0.00  0.00    +0.000 C 
ATOM      6  C   UNL     1     105.824 127.829 144.858  0.00  0.00    +0.000 C 
ATOM      7  C   UNL     1     106.055 126.362 144.139  0.00  0.00    +0.000 C 
ATOM      8  C   UNL     1     105.520 127.686 144.105  0.00  0.00    +0.000 C 
ENDROOT
BRANCH   4   9
ATOM      9  O   UNL     1     106.779 125.914 145.285  0.00  0.00    +0.000 OA
BRANCH   9  14
ATOM     10  O   UNL     1     105.641 125.290 145.883  0.00  0.00    +0.000 OA
ATOM     11  O   UNL     1     107.674 125.566 146.627  0.00  0.00    +0.000 OA
ATOM     12  O   UNL     1     106.983 124.768 147.896  0.00  0.00    +0.000 OA
ATOM     13  O   UNL     1     105.397 124.318 147.822  0.00  0.00    +0.000 OA
ATOM     14  C   UNL     1     106.434 125.515 145.919  0.00  0.00    +0.000 C 
ATOM     15  C   UNL     1     106.881 125.341 146.591  0.00  0.00    +0.000 C 
ATOM     16  C   UNL     1     106.536 124.942 147.225  0.00  0.00    +0.000 C 
ATOM     17  C   UNL     1     105.743 124.717 147.188  0.00  0.00    +0.000 C 
ATOM     18  C   UNL     1     105.296 124.891 146.517  0.00  0.00    +0.000 C 
BRANCH  18  19
ATOM     19  C   UNL     1     104.502 124.666 146.480  0.00  0.00    +0.000 C 
BRANCH  19  20
ATOM     20  O   UNL     1     104.223 124.250 145.824  0.00  0.00    +0.000 OA
BRANCH  20  22
ATOM     21  O   UNL     1     102.824 124.378 146.090  0.00  0.00    +0.000 OA
ATOM     22  C   UNL     1     103.465 123.924 145.835  0.00  0.00    +0.000 C 
ATOM     23  C   UNL     1     103.348 123.145 145.591  0.00  0.00    +0.000 C 
ENDBRANCH  20  22
ENDBRANCH  19  20
ENDBRANCH  18  19
ENDBRANCH   9  14
ENDBRANCH   4   9
BRANCH   7  24
ATOM     24  O   UNL     1     106.170 125.628 143.779  0.00  0.00    +0.000 OA
BRANCH  24  29
ATOM     25  O   UNL     1     105.163 124.899 142.694  0.00  0.00    +0.000 OA
ATOM     26  O   UNL     1     105.556 124.800 141.089  0.00  0.00    +0.000 OA
ATOM     27  O   UNL     1     108.023 126.196 141.678  0.00  0.00    +0.000 OA
ATOM     28  O   UNL     1     107.752 125.798 140.318  0.00  0.00    +0.000 OA
ATOM     29  C   UNL     1     106.381 125.588 142.982  0.00  0.00    +0.000 A 
ATOM     30  C   UNL     1     105.877 125.223 142.440  0.00  0.00    +0.000 A 
ATOM     31  C   UNL     1     107.096 125.912 142.729  0.00  0.00    +0.000 A 
ATOM     32  C   UNL     1     106.089 125.183 141.644  0.00  0.00    +0.000 A 
ATOM     33  C   UNL     1     107.307 125.872 141.932  0.00  0.00    +0.000 A 
ATOM     34  C   UNL     1     106.804 125.507 141.389  0.00  0.00    +0.000 A 
ATOM     35  C   UNL     1     107.036 125.471 140.563  0.00  0.00    +0.000 A 
ATOM     36  C   UNL     1     105.771 124.755 140.258  0.00  0.00    +0.000 A 
ATOM     37  C   UNL     1     106.515 125.093 139.993  0.00  0.00    +0.000 A 
BRANCH  36  39
ATOM     38  O   UNL     1     103.749 123.295 138.097  0.00  0.00    +0.000 OA
ATOM     39  C   UNL     1     105.265 124.390 139.718  0.00  0.00    +0.000 A 
ATOM     40  C   UNL     1     105.366 123.592 139.533  0.00  0.00    +0.000 A 
ATOM     41  C   UNL     1     104.659 124.822 139.363  0.00  0.00    +0.000 A 
ATOM     42  C   UNL     1     104.860 123.227 138.992  0.00  0.00    +0.000 A 
ATOM     43  C   UNL     1     104.154 124.457 138.822  0.00  0.00    +0.000 A 
ATOM     44  C   UNL     1     104.255 123.659 138.637  0.00  0.00    +0.000 A 
ENDBRANCH  36  39
ENDBRANCH  24  29
ENDBRANCH   7  24
BRANCH   8  45
ATOM     45  C   UNL     1     105.099 128.277 143.710  0.00  0.00    +0.000 C 
BRANCH  45  46
ATOM     46  O   UNL     1     104.606 128.081 143.079  0.00  0.00    +0.000 OA
BRANCH  46  48
ATOM     47  O   UNL     1     103.901 129.311 142.902  0.00  0.00    +0.000 OA
ATOM     48  C   UNL     1     104.316 128.673 142.584  0.00  0.00    +0.000 C 
ATOM     49  C   UNL     1     104.442 128.627 141.769  0.00  0.00    +0.000 C 
ENDBRANCH  46  48
ENDBRANCH  45  46
ENDBRANCH   8  45
TORSDOF 11
ENDMDL
MODEL 4
REMARK VINA RESULT:      -9.3      3.423      6.254
REMARK  Name = 44258572
REMARK  11 active torsions:
REMARK  status: ('A' for Active; 'I' for Inactive)
REMARK    1  A    between atoms: O_1  and  C_19
REMARK    2  A    between atoms: O_1  and  C_22
REMARK    3  A    between atoms: O_5  and  C_24
REMARK    4  A    between atoms: O_5  and  C_31
REMARK    5  A    between atoms: O_10  and  C_29
REMARK    6  A    between atoms: O_10  and  C_34
REMARK    7  A    between atoms: O_11  and  C_30
REMARK    8  A    between atoms: O_11  and  C_35
REMARK    9  A    between atoms: C_25  and  C_29
REMARK   10  A    between atoms: C_28  and  C_30
REMARK   11  A    between atoms: C_42  and  C_44
REMARK                            x       y       z     vdW  Elec       q    Type
REMARK                         _______ _______ _______ _____ _____    ______ ____
ROOT
ATOM      1  O   UNL     1     107.054 127.125 141.512  0.00  0.00    +0.000 OA
ATOM      2  O   UNL     1     109.161 127.810 142.616  0.00  0.00    +0.000 OA
ATOM      3  O   UNL     1     107.790 128.703 142.828  0.00  0.00    +0.000 OA
ATOM      4  C   UNL     1     108.443 126.906 141.774  0.00  0.00    +0.000 C 
ATOM      5  C   UNL     1     108.459 127.582 142.248  0.00  0.00    +0.000 C 
ATOM      6  C   UNL     1     107.774 128.028 142.354  0.00  0.00    +0.000 C 
ATOM      7  C   UNL     1     107.740 126.678 141.406  0.00  0.00    +0.000 C 
ATOM      8  C   UNL     1     107.072 127.800 141.986  0.00  0.00    +0.000 C 
ENDROOT
BRANCH   4   9
ATOM      9  O   UNL     1     109.127 126.460 141.668  0.00  0.00    +0.000 OA
BRANCH   9  14
ATOM     10  O   UNL     1     109.491 127.262 140.542  0.00  0.00    +0.000 OA
ATOM     11  O   UNL     1     110.618 125.752 141.645  0.00  0.00    +0.000 OA
ATOM     12  O   UNL     1     111.726 126.200 140.507  0.00  0.00    +0.000 OA
ATOM     13  O   UNL     1     111.344 127.356 139.394  0.00  0.00    +0.000 OA
ATOM     14  C   UNL     1     109.682 126.684 141.099  0.00  0.00    +0.000 C 
ATOM     15  C   UNL     1     110.427 126.330 141.088  0.00  0.00    +0.000 C 
ATOM     16  C   UNL     1     110.982 126.554 140.519  0.00  0.00    +0.000 C 
ATOM     17  C   UNL     1     110.790 127.132 139.962  0.00  0.00    +0.000 C 
ATOM     18  C   UNL     1     110.046 127.486 139.974  0.00  0.00    +0.000 C 
BRANCH  18  19
ATOM     19  C   UNL     1     109.854 128.064 139.417  0.00  0.00    +0.000 C 
BRANCH  19  20
ATOM     20  O   UNL     1     109.783 128.852 139.649  0.00  0.00    +0.000 OA
BRANCH  20  22
ATOM     21  O   UNL     1     109.218 129.201 138.384  0.00  0.00    +0.000 OA
ATOM     22  C   UNL     1     109.377 129.389 139.173  0.00  0.00    +0.000 C 
ATOM     23  C   UNL     1     109.129 130.112 139.483  0.00  0.00    +0.000 C 
ENDBRANCH  20  22
ENDBRANCH  19  20
ENDBRANCH  18  19
ENDBRANCH   9  14
ENDBRANCH   4   9
BRANCH   7  24
ATOM     24  O   UNL     1     107.723 126.003 140.932  0.00  0.00    +0.000 OA
BRANCH  24  29
ATOM     25  O   UNL     1     106.801 125.636 139.614  0.00  0.00    +0.000 OA
ATOM     26  O   UNL     1     105.545 124.562 139.716  0.00  0.00    +0.000 OA
ATOM     27  O   UNL     1     106.155 124.222 142.525  0.00  0.00    +0.000 OA
ATOM     28  O   UNL     1     105.057 123.483 141.954  0.00  0.00    +0.000 OA
ATOM     29  C   UNL     1     107.101 125.466 141.001  0.00  0.00    +0.000 A 
ATOM     30  C   UNL     1     106.640 125.283 140.341  0.00  0.00    +0.000 A 
ATOM     31  C   UNL     1     106.939 125.113 141.728  0.00  0.00    +0.000 A 
ATOM     32  C   UNL     1     106.018 124.745 140.410  0.00  0.00    +0.000 A 
ATOM     33  C   UNL     1     106.317 124.576 141.797  0.00  0.00    +0.000 A 
ATOM     34  C   UNL     1     105.856 124.392 141.139  0.00  0.00    +0.000 A 
ATOM     35  C   UNL     1     105.211 123.831 141.223  0.00  0.00    +0.000 A 
ATOM     36  C   UNL     1     104.896 124.004 139.782  0.00  0.00    +0.000 A 
ATOM     37  C   UNL     1     104.727 123.636 140.540  0.00  0.00    +0.000 A 
BRANCH  36  39
ATOM     38  O   UNL     1     103.059 123.275 137.139  0.00  0.00    +0.000 OA
ATOM     39  C   UNL     1     104.436 123.822 139.121  0.00  0.00    +0.000 A 
ATOM     40  C   UNL     1     103.643 124.049 139.094  0.00  0.00    +0.000 A 
ATOM     41  C   UNL     1     104.769 123.412 138.487  0.00  0.00    +0.000 A 
ATOM     42  C   UNL     1     103.184 123.866 138.433  0.00  0.00    +0.000 A 
ATOM     43  C   UNL     1     104.310 123.230 137.826  0.00  0.00    +0.000 A 
ATOM     44  C   UNL     1     103.517 123.458 137.800  0.00  0.00    +0.000 A 
ENDBRANCH  36  39
ENDBRANCH  24  29
ENDBRANCH   7  24
BRANCH   8  45
ATOM     45  C   UNL     1     106.385 128.247 142.093  0.00  0.00    +0.000 C 
BRANCH  45  46
ATOM     46  O   UNL     1     105.786 128.221 141.527  0.00  0.00    +0.000 OA
BRANCH  46  48
ATOM     47  O   UNL     1     105.062 129.435 141.318  0.00  0.00    +0.000 OA
ATOM     48  C   UNL     1     105.103 128.673 141.630  0.00  0.00    +0.000 C 
ATOM     49  C   UNL     1     104.461 128.361 142.046  0.00  0.00    +0.000 C 
ENDBRANCH  46  48
ENDBRANCH  45  46
ENDBRANCH   8  45
TORSDOF 11
ENDMDL
MODEL 5
REMARK VINA RESULT:      -9.3      7.827     10.224
REMARK  Name = 44258572
REMARK  11 active torsions:
REMARK  status: ('A' for Active; 'I' for Inactive)
REMARK    1  A    between atoms: O_1  and  C_19
REMARK    2  A    between atoms: O_1  and  C_22
REMARK    3  A    between atoms: O_5  and  C_24
REMARK    4  A    between atoms: O_5  and  C_31
REMARK    5  A    between atoms: O_10  and  C_29
REMARK    6  A    between atoms: O_10  and  C_34
REMARK    7  A    between atoms: O_11  and  C_30
REMARK    8  A    between atoms: O_11  and  C_35
REMARK    9  A    between atoms: C_25  and  C_29
REMARK   10  A    between atoms: C_28  and  C_30
REMARK   11  A    between atoms: C_42  and  C_44
REMARK                            x       y       z     vdW  Elec       q    Type
REMARK                         _______ _______ _______ _____ _____    ______ ____
ROOT
ATOM      1  O   UNL     1     112.205 126.226 137.525  0.00  0.00    +0.000 OA
ATOM      2  O   UNL     1     110.387 125.354 136.091  0.00  0.00    +0.000 OA
ATOM      3  O   UNL     1     111.884 124.662 136.036  0.00  0.00    +0.000 OA
ATOM      4  C   UNL     1     110.850 126.281 137.074  0.00  0.00    +0.000 C 
ATOM      5  C   UNL     1     110.993 125.645 136.569  0.00  0.00    +0.000 C 
ATOM      6  C   UNL     1     111.741 125.299 136.541  0.00  0.00    +0.000 C 
ATOM      7  C   UNL     1     111.456 126.572 137.552  0.00  0.00    +0.000 C 
ATOM      8  C   UNL     1     112.347 125.590 137.019  0.00  0.00    +0.000 C 
ENDROOT
BRANCH   4   9
ATOM      9  O   UNL     1     110.102 126.627 137.101  0.00  0.00    +0.000 OA
BRANCH   9  14
ATOM     10  O   UNL     1     110.476 127.564 136.089  0.00  0.00    +0.000 OA
ATOM     11  O   UNL     1     108.521 127.065 136.921  0.00  0.00    +0.000 OA
ATOM     12  O   UNL     1     108.106 128.221 135.819  0.00  0.00    +0.000 OA
ATOM     13  O   UNL     1     109.272 128.939 134.898  0.00  0.00    +0.000 OA
ATOM     14  C   UNL     1     109.894 127.205 136.550  0.00  0.00    +0.000 C 
ATOM     15  C   UNL     1     109.103 127.424 136.460  0.00  0.00    +0.000 C 
ATOM     16  C   UNL     1     108.896 128.002 135.909  0.00  0.00    +0.000 C 
ATOM     17  C   UNL     1     109.479 128.361 135.449  0.00  0.00    +0.000 C 
ATOM     18  C   UNL     1     110.269 128.142 135.538  0.00  0.00    +0.000 C 
BRANCH  18  19
ATOM     19  C   UNL     1     110.852 128.501 135.078  0.00  0.00    +0.000 C 
BRANCH  19  20
ATOM     20  O   UNL     1     111.319 129.101 135.398  0.00  0.00    +0.000 OA
BRANCH  20  22
ATOM     21  O   UNL     1     112.429 128.661 134.613  0.00  0.00    +0.000 OA
ATOM     22  C   UNL     1     112.096 129.202 135.139  0.00  0.00    +0.000 C 
ATOM     23  C   UNL     1     112.539 129.845 135.406  0.00  0.00    +0.000 C 
ENDBRANCH  20  22
ENDBRANCH  19  20
ENDBRANCH  18  19
ENDBRANCH   9  14
ENDBRANCH   4   9
BRANCH   7  24
ATOM     24  O   UNL     1     111.314 127.208 138.057  0.00  0.00    +0.000 OA
BRANCH  24  29
ATOM     25  O   UNL     1     112.156 128.585 138.404  0.00  0.00    +0.000 OA
ATOM     26  O   UNL     1     112.997 128.744 139.821  0.00  0.00    +0.000 OA
ATOM     27  O   UNL     1     112.127 126.083 140.555  0.00  0.00    +0.000 OA
ATOM     28  O   UNL     1     112.968 126.819 141.466  0.00  0.00    +0.000 OA
ATOM     29  C   UNL     1     111.728 127.271 138.768  0.00  0.00    +0.000 A 
ATOM     30  C   UNL     1     112.149 127.960 138.941  0.00  0.00    +0.000 A 
ATOM     31  C   UNL     1     111.720 126.646 139.306  0.00  0.00    +0.000 A 
ATOM     32  C   UNL     1     112.562 128.022 139.652  0.00  0.00    +0.000 A 
ATOM     33  C   UNL     1     112.134 126.709 140.017  0.00  0.00    +0.000 A 
ATOM     34  C   UNL     1     112.555 127.396 140.191  0.00  0.00    +0.000 A 
ATOM     35  C   UNL     1     112.981 127.450 140.935  0.00  0.00    +0.000 A 
ATOM     36  C   UNL     1     113.429 128.815 140.560  0.00  0.00    +0.000 A 
ATOM     37  C   UNL     1     113.421 128.164 141.120  0.00  0.00    +0.000 A 
BRANCH  36  39
ATOM     38  O   UNL     1     115.109 131.572 141.242  0.00  0.00    +0.000 OA
ATOM     39  C   UNL     1     113.849 129.505 140.731  0.00  0.00    +0.000 A 
ATOM     40  C   UNL     1     113.507 130.090 141.201  0.00  0.00    +0.000 A 
ATOM     41  C   UNL     1     114.611 129.608 140.431  0.00  0.00    +0.000 A 
ATOM     42  C   UNL     1     113.928 130.780 141.371  0.00  0.00    +0.000 A 
ATOM     43  C   UNL     1     115.031 130.298 140.602  0.00  0.00    +0.000 A 
ATOM     44  C   UNL     1     114.689 130.883 141.072  0.00  0.00    +0.000 A 
ENDBRANCH  36  39
ENDBRANCH  24  29
ENDBRANCH   7  24
BRANCH   8  45
ATOM     45  C   UNL     1     113.096 125.244 136.992  0.00  0.00    +0.000 C 
BRANCH  45  46
ATOM     46  O   UNL     1     113.763 125.715 136.875  0.00  0.00    +0.000 OA
BRANCH  46  48
ATOM     47  O   UNL     1     114.761 125.061 137.661  0.00  0.00    +0.000 OA
ATOM     48  C   UNL     1     114.516 125.386 136.944  0.00  0.00    +0.000 C 
ATOM     49  C   UNL     1     115.026 125.382 136.293  0.00  0.00    +0.000 C 
ENDBRANCH  46  48
ENDBRANCH  45  46
ENDBRANCH   8  45
TORSDOF 11
ENDMDL
MODEL 6
REMARK VINA RESULT:      -9.3      5.232      9.152
REMARK  Name = 44258572
REMARK  11 active torsions:
REMARK  status: ('A' for Active; 'I' for Inactive)
REMARK    1  A    between atoms: O_1  and  C_19
REMARK    2  A    between atoms: O_1  and  C_22
REMARK    3  A    between atoms: O_5  and  C_24
REMARK    4  A    between atoms: O_5  and  C_31
REMARK    5  A    between atoms: O_10  and  C_29
REMARK    6  A    between atoms: O_10  and  C_34
REMARK    7  A    between atoms: O_11  and  C_30
REMARK    8  A    between atoms: O_11  and  C_35
REMARK    9  A    between atoms: C_25  and  C_29
REMARK   10  A    between atoms: C_28  and  C_30
REMARK   11  A    between atoms: C_42  and  C_44
REMARK                            x       y       z     vdW  Elec       q    Type
REMARK                         _______ _______ _______ _____ _____    ______ ____
ROOT
ATOM      1  O   UNL     1     110.056 129.644 137.879  0.00  0.00    +0.000 OA
ATOM      2  O   UNL     1     109.185 131.606 139.111  0.00  0.00    +0.000 OA
ATOM      3  O   UNL     1     108.404 131.067 137.761  0.00  0.00    +0.000 OA
ATOM      4  C   UNL     1     110.156 130.569 138.965  0.00  0.00    +0.000 C 
ATOM      5  C   UNL     1     109.475 130.952 138.700  0.00  0.00    +0.000 C 
ATOM      6  C   UNL     1     109.085 130.683 138.026  0.00  0.00    +0.000 C 
ATOM      7  C   UNL     1     110.447 129.915 138.554  0.00  0.00    +0.000 C 
ATOM      8  C   UNL     1     109.376 130.029 137.615  0.00  0.00    +0.000 C 
ENDROOT
BRANCH   4   9
ATOM      9  O   UNL     1     110.547 130.838 139.639  0.00  0.00    +0.000 OA
BRANCH   9  14
ATOM     10  O   UNL     1     109.776 129.985 140.489  0.00  0.00    +0.000 OA
ATOM     11  O   UNL     1     110.921 131.789 140.935  0.00  0.00    +0.000 OA
ATOM     12  O   UNL     1     110.338 131.411 142.431  0.00  0.00    +0.000 OA
ATOM     13  O   UNL     1     109.380 130.082 142.632  0.00  0.00    +0.000 OA
ATOM     14  C   UNL     1     110.255 130.649 140.387  0.00  0.00    +0.000 C 
ATOM     15  C   UNL     1     110.442 131.125 141.036  0.00  0.00    +0.000 C 
ATOM     16  C   UNL     1     110.151 130.936 141.784  0.00  0.00    +0.000 C 
ATOM     17  C   UNL     1     109.672 130.271 141.884  0.00  0.00    +0.000 C 
ATOM     18  C   UNL     1     109.485 129.796 141.237  0.00  0.00    +0.000 C 
BRANCH  18  19
ATOM     19  C   UNL     1     109.006 129.131 141.337  0.00  0.00    +0.000 C 
BRANCH  19  20
ATOM     20  O   UNL     1     109.279 128.389 141.104  0.00  0.00    +0.000 OA
BRANCH  20  22
ATOM     21  O   UNL     1     107.981 127.841 140.863  0.00  0.00    +0.000 OA
ATOM     22  C   UNL     1     108.766 127.743 141.101  0.00  0.00    +0.000 C 
ATOM     23  C   UNL     1     109.037 126.999 141.334  0.00  0.00    +0.000 C 
ENDBRANCH  20  22
ENDBRANCH  19  20
ENDBRANCH  18  19
ENDBRANCH   9  14
ENDBRANCH   4   9
BRANCH   7  24
ATOM     24  O   UNL     1     111.127 129.530 138.818  0.00  0.00    +0.000 OA
BRANCH  24  29
ATOM     25  O   UNL     1     111.499 127.923 138.767  0.00  0.00    +0.000 OA
ATOM     26  O   UNL     1     112.607 127.331 137.688  0.00  0.00    +0.000 OA
ATOM     27  O   UNL     1     112.973 130.025 136.693  0.00  0.00    +0.000 OA
ATOM     28  O   UNL     1     113.733 128.951 136.101  0.00  0.00    +0.000 OA
ATOM     29  C   UNL     1     111.682 129.252 138.274  0.00  0.00    +0.000 A 
ATOM     30  C   UNL     1     111.867 128.448 138.249  0.00  0.00    +0.000 A 
ATOM     31  C   UNL     1     112.050 129.777 137.756  0.00  0.00    +0.000 A 
ATOM     32  C   UNL     1     112.422 128.171 137.705  0.00  0.00    +0.000 A 
ATOM     33  C   UNL     1     112.604 129.499 137.212  0.00  0.00    +0.000 A 
ATOM     34  C   UNL     1     112.791 128.696 137.186  0.00  0.00    +0.000 A 
ATOM     35  C   UNL     1     113.369 128.419 136.615  0.00  0.00    +0.000 A 
ATOM     36  C   UNL     1     113.183 127.036 137.124  0.00  0.00    +0.000 A 
ATOM     37  C   UNL     1     113.567 127.583 136.584  0.00  0.00    +0.000 A 
BRANCH  36  39
ATOM     38  O   UNL     1     113.920 123.821 137.031  0.00  0.00    +0.000 OA
ATOM     39  C   UNL     1     113.367 126.232 137.101  0.00  0.00    +0.000 A 
ATOM     40  C   UNL     1     112.944 125.726 136.605  0.00  0.00    +0.000 A 
ATOM     41  C   UNL     1     113.975 125.935 137.572  0.00  0.00    +0.000 A 
ATOM     42  C   UNL     1     113.128 124.922 136.582  0.00  0.00    +0.000 A 
ATOM     43  C   UNL     1     114.159 125.131 137.549  0.00  0.00    +0.000 A 
ATOM     44  C   UNL     1     113.736 124.625 137.054  0.00  0.00    +0.000 A 
ENDBRANCH  36  39
ENDBRANCH  24  29
ENDBRANCH   7  24
BRANCH   8  45
ATOM     45  C   UNL     1     108.985 129.759 136.940  0.00  0.00    +0.000 C 
BRANCH  45  46
ATOM     46  O   UNL     1     108.991 128.955 136.755  0.00  0.00    +0.000 OA
BRANCH  46  48
ATOM     47  O   UNL     1     107.966 128.807 135.770  0.00  0.00    +0.000 OA
ATOM     48  C   UNL     1     108.749 128.703 136.008  0.00  0.00    +0.000 C 
ATOM     49  C   UNL     1     109.292 128.347 135.497  0.00  0.00    +0.000 C 
ENDBRANCH  46  48
ENDBRANCH  45  46
ENDBRANCH   8  45
TORSDOF 11
ENDMDL
MODEL 7
REMARK VINA RESULT:      -9.2      7.159     10.370
REMARK  Name = 44258572
REMARK  11 active torsions:
REMARK  status: ('A' for Active; 'I' for Inactive)
REMARK    1  A    between atoms: O_1  and  C_19
REMARK    2  A    between atoms: O_1  and  C_22
REMARK    3  A    between atoms: O_5  and  C_24
REMARK    4  A    between atoms: O_5  and  C_31
REMARK    5  A    between atoms: O_10  and  C_29
REMARK    6  A    between atoms: O_10  and  C_34
REMARK    7  A    between atoms: O_11  and  C_30
REMARK    8  A    between atoms: O_11  and  C_35
REMARK    9  A    between atoms: C_25  and  C_29
REMARK   10  A    between atoms: C_28  and  C_30
REMARK   11  A    between atoms: C_42  and  C_44
REMARK                            x       y       z     vdW  Elec       q    Type
REMARK                         _______ _______ _______ _____ _____    ______ ____
ROOT
ATOM      1  O   UNL     1     112.515 129.887 137.230  0.00  0.00    +0.000 OA
ATOM      2  O   UNL     1     111.729 132.169 137.778  0.00  0.00    +0.000 OA
ATOM      3  O   UNL     1     112.978 131.959 136.721  0.00  0.00    +0.000 OA
ATOM      4  C   UNL     1     111.628 130.754 137.942  0.00  0.00    +0.000 C 
ATOM      5  C   UNL     1     111.991 131.409 137.595  0.00  0.00    +0.000 C 
ATOM      6  C   UNL     1     112.615 131.304 137.067  0.00  0.00    +0.000 C 
ATOM      7  C   UNL     1     111.890 129.993 137.759  0.00  0.00    +0.000 C 
ATOM      8  C   UNL     1     112.877 130.543 136.885  0.00  0.00    +0.000 C 
ENDROOT
BRANCH   4   9
ATOM      9  O   UNL     1     111.003 130.859 138.470  0.00  0.00    +0.000 OA
BRANCH   9  14
ATOM     10  O   UNL     1     110.061 130.837 137.395  0.00  0.00    +0.000 OA
ATOM     11  O   UNL     1     109.835 131.437 139.481  0.00  0.00    +0.000 OA
ATOM     12  O   UNL     1     108.309 131.703 138.913  0.00  0.00    +0.000 OA
ATOM     13  O   UNL     1     107.952 131.393 137.332  0.00  0.00    +0.000 OA
ATOM     14  C   UNL     1     110.241 130.992 138.185  0.00  0.00    +0.000 C 
ATOM     15  C   UNL     1     109.656 131.281 138.691  0.00  0.00    +0.000 C 
ATOM     16  C   UNL     1     108.893 131.415 138.407  0.00  0.00    +0.000 C 
ATOM     17  C   UNL     1     108.715 131.259 137.616  0.00  0.00    +0.000 C 
ATOM     18  C   UNL     1     109.299 130.971 137.111  0.00  0.00    +0.000 C 
BRANCH  18  19
ATOM     19  C   UNL     1     109.121 130.815 136.320  0.00  0.00    +0.000 C 
BRANCH  19  20
ATOM     20  O   UNL     1     109.356 130.102 135.977  0.00  0.00    +0.000 OA
BRANCH  20  22
ATOM     21  O   UNL     1     108.665 129.419 134.930  0.00  0.00    +0.000 OA
ATOM     22  C   UNL     1     109.230 129.969 135.173  0.00  0.00    +0.000 C 
ATOM     23  C   UNL     1     109.669 130.386 134.612  0.00  0.00    +0.000 C 
ENDBRANCH  20  22
ENDBRANCH  19  20
ENDBRANCH  18  19
ENDBRANCH   9  14
ENDBRANCH   4   9
BRANCH   7  24
ATOM     24  O   UNL     1     111.528 129.337 138.105  0.00  0.00    +0.000 OA
BRANCH  24  29
ATOM     25  O   UNL     1     111.273 127.893 137.349  0.00  0.00    +0.000 OA
ATOM     26  O   UNL     1     112.158 126.550 137.741  0.00  0.00    +0.000 OA
ATOM     27  O   UNL     1     113.585 128.146 139.691  0.00  0.00    +0.000 OA
ATOM     28  O   UNL     1     113.930 126.753 139.539  0.00  0.00    +0.000 OA
ATOM     29  C   UNL     1     111.978 128.678 138.312  0.00  0.00    +0.000 A 
ATOM     30  C   UNL     1     111.850 127.956 137.934  0.00  0.00    +0.000 A 
ATOM     31  C   UNL     1     112.556 128.742 138.897  0.00  0.00    +0.000 A 
ATOM     32  C   UNL     1     112.301 127.297 138.142  0.00  0.00    +0.000 A 
ATOM     33  C   UNL     1     113.006 128.083 139.105  0.00  0.00    +0.000 A 
ATOM     34  C   UNL     1     112.879 127.360 138.728  0.00  0.00    +0.000 A 
ATOM     35  C   UNL     1     113.355 126.681 138.953  0.00  0.00    +0.000 A 
ATOM     36  C   UNL     1     112.624 125.860 137.953  0.00  0.00    +0.000 A 
ATOM     37  C   UNL     1     113.227 125.926 138.563  0.00  0.00    +0.000 A 
BRANCH  36  39
ATOM     38  O   UNL     1     112.107 122.976 136.436  0.00  0.00    +0.000 OA
ATOM     39  C   UNL     1     112.495 125.139 137.574  0.00  0.00    +0.000 A 
ATOM     40  C   UNL     1     111.820 124.698 137.747  0.00  0.00    +0.000 A 
ATOM     41  C   UNL     1     113.041 124.859 137.022  0.00  0.00    +0.000 A 
ATOM     42  C   UNL     1     111.690 123.976 137.367  0.00  0.00    +0.000 A 
ATOM     43  C   UNL     1     112.911 124.138 136.643  0.00  0.00    +0.000 A 
ATOM     44  C   UNL     1     112.236 123.697 136.816  0.00  0.00    +0.000 A 
ENDBRANCH  36  39
ENDBRANCH  24  29
ENDBRANCH   7  24
BRANCH   8  45
ATOM     45  C   UNL     1     113.502 130.437 136.356  0.00  0.00    +0.000 C 
BRANCH  45  46
ATOM     46  O   UNL     1     113.465 129.839 135.789  0.00  0.00    +0.000 OA
BRANCH  46  48
ATOM     47  O   UNL     1     114.563 130.204 134.950  0.00  0.00    +0.000 OA
ATOM     48  C   UNL     1     114.142 129.630 135.367  0.00  0.00    +0.000 C 
ATOM     49  C   UNL     1     114.399 128.845 135.363  0.00  0.00    +0.000 C 
ENDBRANCH  46  48
ENDBRANCH  45  46
ENDBRANCH   8  45
TORSDOF 11
ENDMDL
MODEL 8
REMARK VINA RESULT:      -9.2      6.827      8.885
REMARK  Name = 44258572
REMARK  11 active torsions:
REMARK  status: ('A' for Active; 'I' for Inactive)
REMARK    1  A    between atoms: O_1  and  C_19
REMARK    2  A    between atoms: O_1  and  C_22
REMARK    3  A    between atoms: O_5  and  C_24
REMARK    4  A    between atoms: O_5  and  C_31
REMARK    5  A    between atoms: O_10  and  C_29
REMARK    6  A    between atoms: O_10  and  C_34
REMARK    7  A    between atoms: O_11  and  C_30
REMARK    8  A    between atoms: O_11  and  C_35
REMARK    9  A    between atoms: C_25  and  C_29
REMARK   10  A    between atoms: C_28  and  C_30
REMARK   11  A    between atoms: C_42  and  C_44
REMARK                            x       y       z     vdW  Elec       q    Type
REMARK                         _______ _______ _______ _____ _____    ______ ____
ROOT
ATOM      1  O   UNL     1     112.511 128.039 139.587  0.00  0.00    +0.000 OA
ATOM      2  O   UNL     1     114.513 128.029 141.042  0.00  0.00    +0.000 OA
ATOM      3  O   UNL     1     113.405 126.812 141.155  0.00  0.00    +0.000 OA
ATOM      4  C   UNL     1     113.733 128.645 140.016  0.00  0.00    +0.000 C 
ATOM      5  C   UNL     1     113.846 128.033 140.557  0.00  0.00    +0.000 C 
ATOM      6  C   UNL     1     113.292 127.424 140.614  0.00  0.00    +0.000 C 
ATOM      7  C   UNL     1     113.066 128.648 139.530  0.00  0.00    +0.000 C 
ATOM      8  C   UNL     1     112.625 127.427 140.128  0.00  0.00    +0.000 C 
ENDROOT
BRANCH   4   9
ATOM      9  O   UNL     1     114.286 129.253 139.959  0.00  0.00    +0.000 OA
BRANCH   9  14
ATOM     10  O   UNL     1     113.580 130.022 140.935  0.00  0.00    +0.000 OA
ATOM     11  O   UNL     1     115.594 130.245 140.127  0.00  0.00    +0.000 OA
ATOM     12  O   UNL     1     115.542 131.508 141.186  0.00  0.00    +0.000 OA
ATOM     13  O   UNL     1     114.181 131.780 142.079  0.00  0.00    +0.000 OA
ATOM     14  C   UNL     1     114.260 129.885 140.489  0.00  0.00    +0.000 C 
ATOM     15  C   UNL     1     114.914 130.381 140.573  0.00  0.00    +0.000 C 
ATOM     16  C   UNL     1     114.888 131.013 141.103  0.00  0.00    +0.000 C 
ATOM     17  C   UNL     1     114.207 131.149 141.549  0.00  0.00    +0.000 C 
ATOM     18  C   UNL     1     113.553 130.653 141.465  0.00  0.00    +0.000 C 
BRANCH  18  19
ATOM     19  C   UNL     1     112.872 130.789 141.911  0.00  0.00    +0.000 C 
BRANCH  19  20
ATOM     20  O   UNL     1     112.148 130.899 141.533  0.00  0.00    +0.000 OA
BRANCH  20  22
ATOM     21  O   UNL     1     111.152 131.737 142.125  0.00  0.00    +0.000 OA
ATOM     22  C   UNL     1     111.458 130.984 141.978  0.00  0.00    +0.000 C 
ATOM     23  C   UNL     1     111.074 130.317 142.276  0.00  0.00    +0.000 C 
ENDBRANCH  20  22
ENDBRANCH  19  20
ENDBRANCH  18  19
ENDBRANCH   9  14
ENDBRANCH   4   9
BRANCH   7  24
ATOM     24  O   UNL     1     112.952 129.260 138.989  0.00  0.00    +0.000 OA
BRANCH  24  29
ATOM     25  O   UNL     1     111.560 129.984 138.477  0.00  0.00    +0.000 OA
ATOM     26  O   UNL     1     110.934 129.678 136.976  0.00  0.00    +0.000 OA
ATOM     27  O   UNL     1     113.150 127.879 136.494  0.00  0.00    +0.000 OA
ATOM     28  O   UNL     1     112.160 128.061 135.461  0.00  0.00    +0.000 OA
ATOM     29  C   UNL     1     112.654 129.095 138.237  0.00  0.00    +0.000 A 
ATOM     30  C   UNL     1     111.958 129.458 137.982  0.00  0.00    +0.000 A 
ATOM     31  C   UNL     1     113.051 128.570 137.742  0.00  0.00    +0.000 A 
ATOM     32  C   UNL     1     111.659 129.294 137.230  0.00  0.00    +0.000 A 
ATOM     33  C   UNL     1     112.752 128.406 136.990  0.00  0.00    +0.000 A 
ATOM     34  C   UNL     1     112.057 128.767 136.734  0.00  0.00    +0.000 A 
ATOM     35  C   UNL     1     111.756 128.589 135.950  0.00  0.00    +0.000 A 
ATOM     36  C   UNL     1     110.618 129.511 136.194  0.00  0.00    +0.000 A 
ATOM     37  C   UNL     1     111.032 128.963 135.678  0.00  0.00    +0.000 A 
BRANCH  36  39
ATOM     38  O   UNL     1     107.834 130.965 135.182  0.00  0.00    +0.000 OA
ATOM     39  C   UNL     1     109.922 129.875 135.941  0.00  0.00    +0.000 A 
ATOM     40  C   UNL     1     109.958 130.564 135.490  0.00  0.00    +0.000 A 
ATOM     41  C   UNL     1     109.191 129.548 136.139  0.00  0.00    +0.000 A 
ATOM     42  C   UNL     1     109.261 130.928 135.237  0.00  0.00    +0.000 A 
ATOM     43  C   UNL     1     108.495 129.912 135.886  0.00  0.00    +0.000 A 
ATOM     44  C   UNL     1     108.530 130.602 135.435  0.00  0.00    +0.000 A 
ENDBRANCH  36  39
ENDBRANCH  24  29
ENDBRANCH   7  24
BRANCH   8  45
ATOM     45  C   UNL     1     112.071 126.818 140.184  0.00  0.00    +0.000 C 
BRANCH  45  46
ATOM     46  O   UNL     1     111.269 126.979 140.074  0.00  0.00    +0.000 OA
BRANCH  46  48
ATOM     47  O   UNL     1     110.502 125.958 140.715  0.00  0.00    +0.000 OA
ATOM     48  C   UNL     1     110.727 126.359 140.030  0.00  0.00    +0.000 C 
ATOM     49  C   UNL     1     110.410 126.139 139.300  0.00  0.00    +0.000 C 
ENDBRANCH  46  48
ENDBRANCH  45  46
ENDBRANCH   8  45
TORSDOF 11
ENDMDL
MODEL 9
REMARK VINA RESULT:      -9.2      6.133      9.510
REMARK  Name = 44258572
REMARK  11 active torsions:
REMARK  status: ('A' for Active; 'I' for Inactive)
REMARK    1  A    between atoms: O_1  and  C_19
REMARK    2  A    between atoms: O_1  and  C_22
REMARK    3  A    between atoms: O_5  and  C_24
REMARK    4  A    between atoms: O_5  and  C_31
REMARK    5  A    between atoms: O_10  and  C_29
REMARK    6  A    between atoms: O_10  and  C_34
REMARK    7  A    between atoms: O_11  and  C_30
REMARK    8  A    between atoms: O_11  and  C_35
REMARK    9  A    between atoms: C_25  and  C_29
REMARK   10  A    between atoms: C_28  and  C_30
REMARK   11  A    between atoms: C_42  and  C_44
REMARK                            x       y       z     vdW  Elec       q    Type
REMARK                         _______ _______ _______ _____ _____    ______ ____
ROOT
ATOM      1  O   UNL     1     111.895 130.129 137.244  0.00  0.00    +0.000 OA
ATOM      2  O   UNL     1     110.748 132.231 137.871  0.00  0.00    +0.000 OA
ATOM      3  O   UNL     1     112.254 132.282 137.198  0.00  0.00    +0.000 OA
ATOM      4  C   UNL     1     110.759 130.804 137.790  0.00  0.00    +0.000 C 
ATOM      5  C   UNL     1     111.130 131.530 137.662  0.00  0.00    +0.000 C 
ATOM      6  C   UNL     1     111.883 131.556 137.325  0.00  0.00    +0.000 C 
ATOM      7  C   UNL     1     111.142 130.104 137.581  0.00  0.00    +0.000 C 
ATOM      8  C   UNL     1     112.265 130.856 137.116  0.00  0.00    +0.000 C 
ENDROOT
BRANCH   4   9
ATOM      9  O   UNL     1     110.007 130.779 138.126  0.00  0.00    +0.000 OA
BRANCH   9  14
ATOM     10  O   UNL     1     110.580 130.767 139.435  0.00  0.00    +0.000 OA
ATOM     11  O   UNL     1     108.510 130.998 138.784  0.00  0.00    +0.000 OA
ATOM     12  O   UNL     1     108.335 131.096 140.422  0.00  0.00    +0.000 OA
ATOM     13  O   UNL     1     109.657 130.974 141.401  0.00  0.00    +0.000 OA
ATOM     14  C   UNL     1     109.920 130.828 138.945  0.00  0.00    +0.000 C 
ATOM     15  C   UNL     1     109.170 130.938 139.274  0.00  0.00    +0.000 C 
ATOM     16  C   UNL     1     109.083 130.986 140.093  0.00  0.00    +0.000 C 
ATOM     17  C   UNL     1     109.745 130.925 140.582  0.00  0.00    +0.000 C 
ATOM     18  C   UNL     1     110.493 130.816 140.254  0.00  0.00    +0.000 C 
BRANCH  18  19
ATOM     19  C   UNL     1     111.154 130.755 140.743  0.00  0.00    +0.000 C 
BRANCH  19  20
ATOM     20  O   UNL     1     111.702 130.150 140.622  0.00  0.00    +0.000 OA
BRANCH  20  22
ATOM     21  O   UNL     1     112.992 130.744 140.774  0.00  0.00    +0.000 OA
ATOM     22  C   UNL     1     112.436 130.176 140.997  0.00  0.00    +0.000 C 
ATOM     23  C   UNL     1     112.614 129.635 141.594  0.00  0.00    +0.000 C 
ENDBRANCH  20  22
ENDBRANCH  19  20
ENDBRANCH  18  19
ENDBRANCH   9  14
ENDBRANCH   4   9
BRANCH   7  24
ATOM     24  O   UNL     1     110.772 129.378 137.708  0.00  0.00    +0.000 OA
BRANCH  24  29
ATOM     25  O   UNL     1     111.441 127.912 138.061  0.00  0.00    +0.000 OA
ATOM     26  O   UNL     1     111.527 126.709 136.926  0.00  0.00    +0.000 OA
ATOM     27  O   UNL     1     110.240 128.492 135.043  0.00  0.00    +0.000 OA
ATOM     28  O   UNL     1     110.602 127.164 134.613  0.00  0.00    +0.000 OA
ATOM     29  C   UNL     1     110.806 128.790 137.130  0.00  0.00    +0.000 A 
ATOM     30  C   UNL     1     111.141 128.057 137.307  0.00  0.00    +0.000 A 
ATOM     31  C   UNL     1     110.506 128.935 136.376  0.00  0.00    +0.000 A 
ATOM     32  C   UNL     1     111.175 127.469 136.730  0.00  0.00    +0.000 A 
ATOM     33  C   UNL     1     110.541 128.347 135.798  0.00  0.00    +0.000 A 
ATOM     34  C   UNL     1     110.875 127.614 135.974  0.00  0.00    +0.000 A 
ATOM     35  C   UNL     1     110.905 127.010 135.364  0.00  0.00    +0.000 A 
ATOM     36  C   UNL     1     111.565 126.094 136.329  0.00  0.00    +0.000 A 
ATOM     37  C   UNL     1     111.252 126.245 135.543  0.00  0.00    +0.000 A 
BRANCH  36  39
ATOM     38  O   UNL     1     112.905 123.165 137.047  0.00  0.00    +0.000 OA
ATOM     39  C   UNL     1     111.900 125.361 136.508  0.00  0.00    +0.000 A 
ATOM     40  C   UNL     1     112.716 125.255 136.448  0.00  0.00    +0.000 A 
ATOM     41  C   UNL     1     111.419 124.735 136.748  0.00  0.00    +0.000 A 
ATOM     42  C   UNL     1     113.051 124.522 136.628  0.00  0.00    +0.000 A 
ATOM     43  C   UNL     1     111.755 124.003 136.927  0.00  0.00    +0.000 A 
ATOM     44  C   UNL     1     112.571 123.897 136.867  0.00  0.00    +0.000 A 
ENDBRANCH  36  39
ENDBRANCH  24  29
ENDBRANCH   7  24
BRANCH   8  45
ATOM     45  C   UNL     1     113.018 130.881 136.780  0.00  0.00    +0.000 C 
BRANCH  45  46
ATOM     46  O   UNL     1     113.528 130.238 136.862  0.00  0.00    +0.000 OA
BRANCH  46  48
ATOM     47  O   UNL     1     114.870 130.681 136.649  0.00  0.00    +0.000 OA
ATOM     48  C   UNL     1     114.229 130.211 136.428  0.00  0.00    +0.000 C 
ATOM     49  C   UNL     1     114.290 129.712 135.773  0.00  0.00    +0.000 C 
ENDBRANCH  46  48
ENDBRANCH  45  46
ENDBRANCH   8  45
TORSDOF 11
ENDMDL
MODEL 10
REMARK VINA RESULT:      -9.0      5.829      8.981
REMARK  Name = 44258572
REMARK  11 active torsions:
REMARK  status: ('A' for Active; 'I' for Inactive)
REMARK    1  A    between atoms: O_1  and  C_19
REMARK    2  A    between atoms: O_1  and  C_22
REMARK    3  A    between atoms: O_5  and  C_24
REMARK    4  A    between atoms: O_5  and  C_31
REMARK    5  A    between atoms: O_10  and  C_29
REMARK    6  A    between atoms: O_10  and  C_34
REMARK    7  A    between atoms: O_11  and  C_30
REMARK    8  A    between atoms: O_11  and  C_35
REMARK    9  A    between atoms: C_25  and  C_29
REMARK   10  A    between atoms: C_28  and  C_30
REMARK   11  A    between atoms: C_42  and  C_44
REMARK                            x       y       z     vdW  Elec       q    Type
REMARK                         _______ _______ _______ _____ _____    ______ ____
ROOT
ATOM      1  O   UNL     1     113.131 129.284 139.615  0.00  0.00    +0.000 OA
ATOM      2  O   UNL     1     113.448 130.231 141.879  0.00  0.00    +0.000 OA
ATOM      3  O   UNL     1     114.129 130.973 140.572  0.00  0.00    +0.000 OA
ATOM      4  C   UNL     1     112.897 129.228 141.024  0.00  0.00    +0.000 C 
ATOM      5  C   UNL     1     113.343 129.915 141.124  0.00  0.00    +0.000 C 
ATOM      6  C   UNL     1     113.683 130.286 140.471  0.00  0.00    +0.000 C 
ATOM      7  C   UNL     1     112.791 128.912 140.269  0.00  0.00    +0.000 C 
ATOM      8  C   UNL     1     113.577 129.970 139.716  0.00  0.00    +0.000 C 
ENDROOT
BRANCH   4   9
ATOM      9  O   UNL     1     112.557 128.858 141.677  0.00  0.00    +0.000 OA
BRANCH   9  14
ATOM     10  O   UNL     1     111.409 129.702 141.566  0.00  0.00    +0.000 OA
ATOM     11  O   UNL     1     111.965 128.241 143.088  0.00  0.00    +0.000 OA
ATOM     12  O   UNL     1     110.523 128.777 143.683  0.00  0.00    +0.000 OA
ATOM     13  O   UNL     1     109.671 129.931 142.866  0.00  0.00    +0.000 OA
ATOM     14  C   UNL     1     111.835 129.126 141.974  0.00  0.00    +0.000 C 
ATOM     15  C   UNL     1     111.539 128.817 142.680  0.00  0.00    +0.000 C 
ATOM     16  C   UNL     1     110.818 129.086 142.978  0.00  0.00    +0.000 C 
ATOM     17  C   UNL     1     110.393 129.663 142.569  0.00  0.00    +0.000 C 
ATOM     18  C   UNL     1     110.688 129.971 141.863  0.00  0.00    +0.000 C 
BRANCH  18  19
ATOM     19  C   UNL     1     110.263 130.548 141.454  0.00  0.00    +0.000 C 
BRANCH  19  20
ATOM     20  O   UNL     1     110.107 130.452 140.650  0.00  0.00    +0.000 OA
BRANCH  20  22
ATOM     21  O   UNL     1     110.153 131.850 140.359  0.00  0.00    +0.000 OA
ATOM     22  C   UNL     1     109.860 131.095 140.197  0.00  0.00    +0.000 C 
ATOM     23  C   UNL     1     109.319 130.985 139.583  0.00  0.00    +0.000 C 
ENDBRANCH  20  22
ENDBRANCH  19  20
ENDBRANCH  18  19
ENDBRANCH   9  14
ENDBRANCH   4   9
BRANCH   7  24
ATOM     24  O   UNL     1     112.345 128.226 140.167  0.00  0.00    +0.000 OA
BRANCH  24  29
ATOM     25  O   UNL     1     111.379 127.868 138.878  0.00  0.00    +0.000 OA
ATOM     26  O   UNL     1     111.824 126.732 137.760  0.00  0.00    +0.000 OA
ATOM     27  O   UNL     1     114.261 126.307 139.264  0.00  0.00    +0.000 OA
ATOM     28  O   UNL     1     114.037 125.539 138.064  0.00  0.00    +0.000 OA
ATOM     29  C   UNL     1     112.583 127.657 139.619  0.00  0.00    +0.000 A 
ATOM     30  C   UNL     1     112.099 127.478 138.975  0.00  0.00    +0.000 A 
ATOM     31  C   UNL     1     113.303 127.267 139.716  0.00  0.00    +0.000 A 
ATOM     32  C   UNL     1     112.337 126.909 138.427  0.00  0.00    +0.000 A 
ATOM     33  C   UNL     1     113.540 126.698 139.168  0.00  0.00    +0.000 A 
ATOM     34  C   UNL     1     113.058 126.518 138.523  0.00  0.00    +0.000 A 
ATOM     35  C   UNL     1     113.316 125.924 137.959  0.00  0.00    +0.000 A 
ATOM     36  C   UNL     1     112.067 126.140 137.186  0.00  0.00    +0.000 A 
ATOM     37  C   UNL     1     112.817 125.733 137.286  0.00  0.00    +0.000 A 
BRANCH  36  39
ATOM     38  O   UNL     1     110.127 125.432 134.612  0.00  0.00    +0.000 OA
ATOM     39  C   UNL     1     111.582 125.963 136.542  0.00  0.00    +0.000 A 
ATOM     40  C   UNL     1     111.485 126.513 135.935  0.00  0.00    +0.000 A 
ATOM     41  C   UNL     1     111.193 125.236 136.506  0.00  0.00    +0.000 A 
ATOM     42  C   UNL     1     110.999 126.336 135.291  0.00  0.00    +0.000 A 
ATOM     43  C   UNL     1     110.708 125.059 135.862  0.00  0.00    +0.000 A 
ATOM     44  C   UNL     1     110.612 125.609 135.255  0.00  0.00    +0.000 A 
ENDBRANCH  36  39
ENDBRANCH  24  29
ENDBRANCH   7  24
BRANCH   8  45
ATOM     45  C   UNL     1     113.918 130.341 139.062  0.00  0.00    +0.000 C 
BRANCH  45  46
ATOM     46  O   UNL     1     113.478 130.444 138.372  0.00  0.00    +0.000 OA
BRANCH  46  48
ATOM     47  O   UNL     1     114.601 130.409 137.489  0.00  0.00    +0.000 OA
ATOM     48  C   UNL     1     113.851 130.694 137.680  0.00  0.00    +0.000 C 
ATOM     49  C   UNL     1     113.472 131.231 137.179  0.00  0.00    +0.000 C 
ENDBRANCH  46  48
ENDBRANCH  45  46
ENDBRANCH   8  45
TORSDOF 11
ENDMDL
