MODEL 1
REMARK VINA RESULT:     -10.1      0.000      0.000
REMARK  Name = 3085014
REMARK  7 active torsions:
REMARK  status: ('A' for Active; 'I' for Inactive)
REMARK    1  A    between atoms: O_1  and  C_15
REMARK    2  A    between atoms: O_1  and  C_20
REMARK    3  A    between atoms: O_10  and  C_29
REMARK    4  A    between atoms: O_14  and  C_42
REMARK    5  A    between atoms: C_17  and  C_25
REMARK    6  A    between atoms: C_19  and  C_26
REMARK    7  A    between atoms: C_35  and  C_37
REMARK                            x       y       z     vdW  Elec       q    Type
REMARK                         _______ _______ _______ _____ _____    ______ ____
ROOT
ATOM      1  O   UNL     1     111.564 132.412 142.476  0.00  0.00    +0.000 OA
ATOM      2  O   UNL     1     111.833 131.429 145.185  0.00  0.00    +0.000 OA
ATOM      3  O   UNL     1     112.005 133.319 143.509  0.00  0.00    +0.000 OA
ATOM      4  C   UNL     1     111.261 131.047 142.772  0.00  0.00    +0.000 A 
ATOM      5  C   UNL     1     111.507 131.795 143.020  0.00  0.00    +0.000 A 
ATOM      6  C   UNL     1     111.204 130.430 143.317  0.00  0.00    +0.000 A 
ATOM      7  C   UNL     1     111.696 131.924 143.813  0.00  0.00    +0.000 A 
ATOM      8  C   UNL     1     111.393 130.559 144.108  0.00  0.00    +0.000 A 
ATOM      9  C   UNL     1     111.639 131.307 144.358  0.00  0.00    +0.000 A 
ATOM     10  C   UNL     1     111.951 132.707 144.060  0.00  0.00    +0.000 A 
ATOM     11  C   UNL     1     112.149 132.849 144.883  0.00  0.00    +0.000 A 
ATOM     12  C   UNL     1     112.089 132.205 145.451  0.00  0.00    +0.000 A 
ENDROOT
BRANCH   4  18
ATOM     13  O   UNL     1     110.283 130.882 141.743  0.00  0.00    +0.000 OA
ATOM     14  O   UNL     1     112.087 130.599 140.073  0.00  0.00    +0.000 OA
ATOM     15  O   UNL     1     110.507 130.529 139.602  0.00  0.00    +0.000 OA
ATOM     16  C   UNL     1     111.674 130.823 141.423  0.00  0.00    +0.000 C 
ATOM     17  C   UNL     1     111.485 130.694 140.629  0.00  0.00    +0.000 C 
ATOM     18  C   UNL     1     111.072 130.917 141.979  0.00  0.00    +0.000 C 
ATOM     19  C   UNL     1     110.695 130.658 140.394  0.00  0.00    +0.000 C 
ATOM     20  C   UNL     1     110.094 130.752 140.951  0.00  0.00    +0.000 C 
BRANCH  20  22
ATOM     21  O   UNL     1     108.740 131.187 141.092  0.00  0.00    +0.000 OA
ATOM     22  C   UNL     1     109.305 130.717 140.716  0.00  0.00    +0.000 C 
ENDBRANCH  20  22
BRANCH  16  23
ATOM     23  O   UNL     1     112.464 130.859 141.658  0.00  0.00    +0.000 OA
BRANCH  23  28
ATOM     24  O   UNL     1     112.764 129.495 141.353  0.00  0.00    +0.000 OA
ATOM     25  O   UNL     1     113.999 131.291 141.235  0.00  0.00    +0.000 OA
ATOM     26  O   UNL     1     115.066 130.144 140.718  0.00  0.00    +0.000 OA
ATOM     27  O   UNL     1     114.598 128.564 140.624  0.00  0.00    +0.000 OA
ATOM     28  C   UNL     1     112.997 130.284 141.400  0.00  0.00    +0.000 C 
ATOM     29  C   UNL     1     113.765 130.501 141.188  0.00  0.00    +0.000 C 
ATOM     30  C   UNL     1     114.299 129.928 140.929  0.00  0.00    +0.000 C 
ATOM     31  C   UNL     1     114.064 129.138 140.883  0.00  0.00    +0.000 C 
ATOM     32  C   UNL     1     113.297 128.922 141.094  0.00  0.00    +0.000 C 
ATOM     33  C   UNL     1     113.063 128.132 141.047  0.00  0.00    +0.000 C 
ENDBRANCH  23  28
ENDBRANCH  16  23
ENDBRANCH   4  18
BRANCH  12  34
ATOM     34  C   UNL     1     112.278 132.333 146.244  0.00  0.00    +0.000 A 
ATOM     35  C   UNL     1     111.772 132.777 146.721  0.00  0.00    +0.000 A 
ATOM     36  C   UNL     1     112.971 132.015 146.559  0.00  0.00    +0.000 A 
ATOM     37  C   UNL     1     111.960 132.904 147.514  0.00  0.00    +0.000 A 
ATOM     38  C   UNL     1     113.158 132.143 147.353  0.00  0.00    +0.000 A 
ATOM     39  C   UNL     1     112.653 132.587 147.830  0.00  0.00    +0.000 A 
BRANCH  39  40
ATOM     40  O   UNL     1     112.841 132.714 148.623  0.00  0.00    +0.000 OA
ATOM     41  C   UNL     1     112.251 132.931 149.157  0.00  0.00    +0.000 C 
ENDBRANCH  39  40
ENDBRANCH  12  34
BRANCH   6  42
ATOM     42  O   UNL     1     110.958 129.682 143.067  0.00  0.00    +0.000 OA
ATOM     43  C   UNL     1     110.717 129.122 143.622  0.00  0.00    +0.000 C 
ENDBRANCH   6  42
TORSDOF 7
ENDMDL
MODEL 2
REMARK VINA RESULT:     -10.0      5.664      7.422
REMARK  Name = 3085014
REMARK  7 active torsions:
REMARK  status: ('A' for Active; 'I' for Inactive)
REMARK    1  A    between atoms: O_1  and  C_15
REMARK    2  A    between atoms: O_1  and  C_20
REMARK    3  A    between atoms: O_10  and  C_29
REMARK    4  A    between atoms: O_14  and  C_42
REMARK    5  A    between atoms: C_17  and  C_25
REMARK    6  A    between atoms: C_19  and  C_26
REMARK    7  A    between atoms: C_35  and  C_37
REMARK                            x       y       z     vdW  Elec       q    Type
REMARK                         _______ _______ _______ _____ _____    ______ ____
ROOT
ATOM      1  O   UNL     1     105.376 126.372 143.845  0.00  0.00    +0.000 OA
ATOM      2  O   UNL     1     106.864 126.597 146.317  0.00  0.00    +0.000 OA
ATOM      3  O   UNL     1     105.352 125.272 144.779  0.00  0.00    +0.000 OA
ATOM      4  C   UNL     1     106.120 127.560 144.124  0.00  0.00    +0.000 A 
ATOM      5  C   UNL     1     105.869 126.806 144.344  0.00  0.00    +0.000 A 
ATOM      6  C   UNL     1     106.612 127.994 144.623  0.00  0.00    +0.000 A 
ATOM      7  C   UNL     1     106.112 126.485 145.066  0.00  0.00    +0.000 A 
ATOM      8  C   UNL     1     106.855 127.674 145.343  0.00  0.00    +0.000 A 
ATOM      9  C   UNL     1     106.605 126.919 145.565  0.00  0.00    +0.000 A 
ATOM     10  C   UNL     1     105.844 125.699 145.284  0.00  0.00    +0.000 A 
ATOM     11  C   UNL     1     106.093 125.359 146.033  0.00  0.00    +0.000 A 
ATOM     12  C   UNL     1     106.607 125.811 146.554  0.00  0.00    +0.000 A 
ENDROOT
BRANCH   4  18
ATOM     13  O   UNL     1     105.133 128.232 143.337  0.00  0.00    +0.000 OA
ATOM     14  O   UNL     1     106.636 128.138 141.373  0.00  0.00    +0.000 OA
ATOM     15  O   UNL     1     105.149 128.841 141.241  0.00  0.00    +0.000 OA
ATOM     16  C   UNL     1     106.378 127.849 142.748  0.00  0.00    +0.000 C 
ATOM     17  C   UNL     1     106.135 128.169 142.027  0.00  0.00    +0.000 C 
ATOM     18  C   UNL     1     105.877 127.881 143.403  0.00  0.00    +0.000 C 
ATOM     19  C   UNL     1     105.392 128.521 141.961  0.00  0.00    +0.000 C 
ATOM     20  C   UNL     1     104.891 128.552 142.617  0.00  0.00    +0.000 C 
BRANCH  20  22
ATOM     21  O   UNL     1     103.907 129.468 143.103  0.00  0.00    +0.000 OA
ATOM     22  C   UNL     1     104.147 128.903 142.551  0.00  0.00    +0.000 C 
ENDBRANCH  20  22
BRANCH  16  23
ATOM     23  O   UNL     1     107.121 127.498 142.814  0.00  0.00    +0.000 OA
BRANCH  23  28
ATOM     24  O   UNL     1     106.838 126.395 141.951  0.00  0.00    +0.000 OA
ATOM     25  O   UNL     1     108.684 127.511 142.283  0.00  0.00    +0.000 OA
ATOM     26  O   UNL     1     109.181 126.415 141.154  0.00  0.00    +0.000 OA
ATOM     27  O   UNL     1     108.116 125.306 140.556  0.00  0.00    +0.000 OA
ATOM     28  C   UNL     1     107.369 126.949 142.250  0.00  0.00    +0.000 C 
ATOM     29  C   UNL     1     108.151 126.956 141.984  0.00  0.00    +0.000 C 
ATOM     30  C   UNL     1     108.400 126.409 141.420  0.00  0.00    +0.000 C 
ATOM     31  C   UNL     1     107.867 125.854 141.121  0.00  0.00    +0.000 C 
ATOM     32  C   UNL     1     107.086 125.847 141.387  0.00  0.00    +0.000 C 
ATOM     33  C   UNL     1     106.554 125.292 141.088  0.00  0.00    +0.000 C 
ENDBRANCH  23  28
ENDBRANCH  16  23
ENDBRANCH   4  18
BRANCH  12  34
ATOM     34  C   UNL     1     106.851 125.493 147.275  0.00  0.00    +0.000 A 
ATOM     35  C   UNL     1     107.643 125.293 147.390  0.00  0.00    +0.000 A 
ATOM     36  C   UNL     1     106.303 125.376 147.881  0.00  0.00    +0.000 A 
ATOM     37  C   UNL     1     107.887 124.975 148.110  0.00  0.00    +0.000 A 
ATOM     38  C   UNL     1     106.548 125.058 148.602  0.00  0.00    +0.000 A 
ATOM     39  C   UNL     1     107.340 124.858 148.716  0.00  0.00    +0.000 A 
BRANCH  39  40
ATOM     40  O   UNL     1     107.585 124.540 149.437  0.00  0.00    +0.000 OA
ATOM     41  C   UNL     1     107.432 123.748 149.612  0.00  0.00    +0.000 C 
ENDBRANCH  39  40
ENDBRANCH  12  34
BRANCH   6  42
ATOM     42  O   UNL     1     106.862 128.749 144.401  0.00  0.00    +0.000 OA
ATOM     43  C   UNL     1     107.199 129.252 144.961  0.00  0.00    +0.000 C 
ENDBRANCH   6  42
TORSDOF 7
ENDMDL
MODEL 3
REMARK VINA RESULT:      -9.9      5.676      8.506
REMARK  Name = 3085014
REMARK  7 active torsions:
REMARK  status: ('A' for Active; 'I' for Inactive)
REMARK    1  A    between atoms: O_1  and  C_15
REMARK    2  A    between atoms: O_1  and  C_20
REMARK    3  A    between atoms: O_10  and  C_29
REMARK    4  A    between atoms: O_14  and  C_42
REMARK    5  A    between atoms: C_17  and  C_25
REMARK    6  A    between atoms: C_19  and  C_26
REMARK    7  A    between atoms: C_35  and  C_37
REMARK                            x       y       z     vdW  Elec       q    Type
REMARK                         _______ _______ _______ _____ _____    ______ ____
ROOT
ATOM      1  O   UNL     1     113.190 128.057 136.974  0.00  0.00    +0.000 OA
ATOM      2  O   UNL     1     110.552 128.415 135.838  0.00  0.00    +0.000 OA
ATOM      3  O   UNL     1     112.692 129.396 136.768  0.00  0.00    +0.000 OA
ATOM      4  C   UNL     1     112.403 126.916 136.627  0.00  0.00    +0.000 A 
ATOM      5  C   UNL     1     112.494 127.735 136.671  0.00  0.00    +0.000 A 
ATOM      6  C   UNL     1     111.707 126.593 136.324  0.00  0.00    +0.000 A 
ATOM      7  C   UNL     1     111.887 128.231 136.413  0.00  0.00    +0.000 A 
ATOM      8  C   UNL     1     111.101 127.090 136.066  0.00  0.00    +0.000 A 
ATOM      9  C   UNL     1     111.190 127.909 136.110  0.00  0.00    +0.000 A 
ATOM     10  C   UNL     1     111.993 129.082 136.464  0.00  0.00    +0.000 A 
ATOM     11  C   UNL     1     111.366 129.605 136.197  0.00  0.00    +0.000 A 
ATOM     12  C   UNL     1     110.640 129.269 135.881  0.00  0.00    +0.000 A 
ENDROOT
BRANCH   4  18
ATOM     13  O   UNL     1     113.642 126.244 136.385  0.00  0.00    +0.000 OA
ATOM     14  O   UNL     1     113.564 125.281 138.663  0.00  0.00    +0.000 OA
ATOM     15  O   UNL     1     114.828 124.931 137.661  0.00  0.00    +0.000 OA
ATOM     16  C   UNL     1     112.984 126.098 137.645  0.00  0.00    +0.000 C 
ATOM     17  C   UNL     1     113.590 125.602 137.904  0.00  0.00    +0.000 C 
ATOM     18  C   UNL     1     113.010 126.419 136.885  0.00  0.00    +0.000 C 
ATOM     19  C   UNL     1     114.222 125.427 137.403  0.00  0.00    +0.000 C 
ATOM     20  C   UNL     1     114.247 125.749 136.643  0.00  0.00    +0.000 C 
BRANCH  20  22
ATOM     21  O   UNL     1     115.228 126.172 135.694  0.00  0.00    +0.000 OA
ATOM     22  C   UNL     1     114.879 125.574 136.142  0.00  0.00    +0.000 C 
ENDBRANCH  20  22
BRANCH  16  23
ATOM     23  O   UNL     1     112.352 126.273 138.146  0.00  0.00    +0.000 OA
BRANCH  23  28
ATOM     24  O   UNL     1     113.139 126.997 139.094  0.00  0.00    +0.000 OA
ATOM     25  O   UNL     1     111.350 125.773 139.358  0.00  0.00    +0.000 OA
ATOM     26  O   UNL     1     111.637 126.246 140.913  0.00  0.00    +0.000 OA
ATOM     27  O   UNL     1     112.924 127.220 141.255  0.00  0.00    +0.000 OA
ATOM     28  C   UNL     1     112.495 126.510 138.923  0.00  0.00    +0.000 C 
ATOM     29  C   UNL     1     111.995 126.260 139.529  0.00  0.00    +0.000 C 
ATOM     30  C   UNL     1     112.137 126.496 140.306  0.00  0.00    +0.000 C 
ATOM     31  C   UNL     1     112.781 126.983 140.477  0.00  0.00    +0.000 C 
ATOM     32  C   UNL     1     113.282 127.233 139.871  0.00  0.00    +0.000 C 
ATOM     33  C   UNL     1     113.926 127.720 140.043  0.00  0.00    +0.000 C 
ENDBRANCH  23  28
ENDBRANCH  16  23
ENDBRANCH   4  18
BRANCH  12  34
ATOM     34  C   UNL     1     110.032 129.763 135.622  0.00  0.00    +0.000 A 
ATOM     35  C   UNL     1     110.069 130.103 134.871  0.00  0.00    +0.000 A 
ATOM     36  C   UNL     1     109.388 129.917 136.114  0.00  0.00    +0.000 A 
ATOM     37  C   UNL     1     109.462 130.596 134.612  0.00  0.00    +0.000 A 
ATOM     38  C   UNL     1     108.780 130.411 135.854  0.00  0.00    +0.000 A 
ATOM     39  C   UNL     1     108.817 130.751 135.103  0.00  0.00    +0.000 A 
BRANCH  39  40
ATOM     40  O   UNL     1     108.210 131.245 134.844  0.00  0.00    +0.000 OA
ATOM     41  C   UNL     1     108.355 132.047 134.719  0.00  0.00    +0.000 C 
ENDBRANCH  39  40
ENDBRANCH  12  34
BRANCH   6  42
ATOM     42  O   UNL     1     111.617 125.774 136.280  0.00  0.00    +0.000 OA
ATOM     43  C   UNL     1     110.991 125.451 135.851  0.00  0.00    +0.000 C 
ENDBRANCH   6  42
TORSDOF 7
ENDMDL
MODEL 4
REMARK VINA RESULT:      -9.9      2.998      7.130
REMARK  Name = 3085014
REMARK  7 active torsions:
REMARK  status: ('A' for Active; 'I' for Inactive)
REMARK    1  A    between atoms: O_1  and  C_15
REMARK    2  A    between atoms: O_1  and  C_20
REMARK    3  A    between atoms: O_10  and  C_29
REMARK    4  A    between atoms: O_14  and  C_42
REMARK    5  A    between atoms: C_17  and  C_25
REMARK    6  A    between atoms: C_19  and  C_26
REMARK    7  A    between atoms: C_35  and  C_37
REMARK                            x       y       z     vdW  Elec       q    Type
REMARK                         _______ _______ _______ _____ _____    ______ ____
ROOT
ATOM      1  O   UNL     1     113.839 128.341 141.063  0.00  0.00    +0.000 OA
ATOM      2  O   UNL     1     113.162 127.331 138.437  0.00  0.00    +0.000 OA
ATOM      3  O   UNL     1     114.017 126.936 140.787  0.00  0.00    +0.000 OA
ATOM      4  C   UNL     1     113.336 129.232 140.065  0.00  0.00    +0.000 A 
ATOM      5  C   UNL     1     113.560 128.473 140.298  0.00  0.00    +0.000 A 
ATOM      6  C   UNL     1     113.057 129.363 139.300  0.00  0.00    +0.000 A 
ATOM      7  C   UNL     1     113.504 127.845 139.765  0.00  0.00    +0.000 A 
ATOM      8  C   UNL     1     113.002 128.736 138.768  0.00  0.00    +0.000 A 
ATOM      9  C   UNL     1     113.225 127.976 139.000  0.00  0.00    +0.000 A 
ATOM     10  C   UNL     1     113.739 127.059 140.020  0.00  0.00    +0.000 A 
ATOM     11  C   UNL     1     113.684 126.400 139.471  0.00  0.00    +0.000 A 
ATOM     12  C   UNL     1     113.393 126.537 138.673  0.00  0.00    +0.000 A 
ENDROOT
BRANCH   4  18
ATOM     13  O   UNL     1     114.117 130.234 140.720  0.00  0.00    +0.000 OA
ATOM     14  O   UNL     1     112.108 130.994 141.950  0.00  0.00    +0.000 OA
ATOM     15  O   UNL     1     113.558 131.743 142.195  0.00  0.00    +0.000 OA
ATOM     16  C   UNL     1     112.722 130.113 141.007  0.00  0.00    +0.000 C 
ATOM     17  C   UNL     1     112.778 130.741 141.540  0.00  0.00    +0.000 C 
ATOM     18  C   UNL     1     113.392 129.860 140.598  0.00  0.00    +0.000 C 
ATOM     19  C   UNL     1     113.503 131.116 141.663  0.00  0.00    +0.000 C 
ATOM     20  C   UNL     1     114.172 130.861 141.252  0.00  0.00    +0.000 C 
BRANCH  20  22
ATOM     21  O   UNL     1     115.274 131.621 140.749  0.00  0.00    +0.000 OA
ATOM     22  C   UNL     1     114.897 131.236 141.375  0.00  0.00    +0.000 C 
ENDBRANCH  20  22
BRANCH  16  23
ATOM     23  O   UNL     1     111.997 129.739 140.885  0.00  0.00    +0.000 OA
BRANCH  23  28
ATOM     24  O   UNL     1     111.915 129.206 142.208  0.00  0.00    +0.000 OA
ATOM     25  O   UNL     1     110.351 129.833 140.820  0.00  0.00    +0.000 OA
ATOM     26  O   UNL     1     109.446 129.347 142.111  0.00  0.00    +0.000 OA
ATOM     27  O   UNL     1     110.186 128.767 143.467  0.00  0.00    +0.000 OA
ATOM     28  C   UNL     1     111.545 129.496 141.531  0.00  0.00    +0.000 C 
ATOM     29  C   UNL     1     110.722 129.543 141.498  0.00  0.00    +0.000 C 
ATOM     30  C   UNL     1     110.269 129.300 142.143  0.00  0.00    +0.000 C 
ATOM     31  C   UNL     1     110.639 129.010 142.821  0.00  0.00    +0.000 C 
ATOM     32  C   UNL     1     111.462 128.963 142.853  0.00  0.00    +0.000 C 
ATOM     33  C   UNL     1     111.832 128.673 143.532  0.00  0.00    +0.000 C 
ENDBRANCH  23  28
ENDBRANCH  16  23
ENDBRANCH   4  18
BRANCH  12  34
ATOM     34  C   UNL     1     113.337 125.911 138.139  0.00  0.00    +0.000 A 
ATOM     35  C   UNL     1     112.599 125.593 137.953  0.00  0.00    +0.000 A 
ATOM     36  C   UNL     1     114.018 125.604 137.790  0.00  0.00    +0.000 A 
ATOM     37  C   UNL     1     112.541 124.968 137.419  0.00  0.00    +0.000 A 
ATOM     38  C   UNL     1     113.961 124.977 137.255  0.00  0.00    +0.000 A 
ATOM     39  C   UNL     1     113.222 124.660 137.070  0.00  0.00    +0.000 A 
BRANCH  39  40
ATOM     40  O   UNL     1     113.165 124.034 136.536  0.00  0.00    +0.000 OA
ATOM     41  C   UNL     1     112.517 123.525 136.564  0.00  0.00    +0.000 C 
ENDBRANCH  39  40
ENDBRANCH  12  34
BRANCH   6  42
ATOM     42  O   UNL     1     112.834 130.123 139.067  0.00  0.00    +0.000 OA
ATOM     43  C   UNL     1     112.729 130.295 138.267  0.00  0.00    +0.000 C 
ENDBRANCH   6  42
TORSDOF 7
ENDMDL
MODEL 5
REMARK VINA RESULT:      -9.8      7.284     10.200
REMARK  Name = 3085014
REMARK  7 active torsions:
REMARK  status: ('A' for Active; 'I' for Inactive)
REMARK    1  A    between atoms: O_1  and  C_15
REMARK    2  A    between atoms: O_1  and  C_20
REMARK    3  A    between atoms: O_10  and  C_29
REMARK    4  A    between atoms: O_14  and  C_42
REMARK    5  A    between atoms: C_17  and  C_25
REMARK    6  A    between atoms: C_19  and  C_26
REMARK    7  A    between atoms: C_35  and  C_37
REMARK                            x       y       z     vdW  Elec       q    Type
REMARK                         _______ _______ _______ _____ _____    ______ ____
ROOT
ATOM      1  O   UNL     1     106.288 125.443 145.167  0.00  0.00    +0.000 OA
ATOM      2  O   UNL     1     105.354 128.086 144.446  0.00  0.00    +0.000 OA
ATOM      3  O   UNL     1     106.241 125.812 143.772  0.00  0.00    +0.000 OA
ATOM      4  C   UNL     1     105.882 126.358 146.186  0.00  0.00    +0.000 A 
ATOM      5  C   UNL     1     105.999 126.183 145.389  0.00  0.00    +0.000 A 
ATOM      6  C   UNL     1     105.593 127.098 146.409  0.00  0.00    +0.000 A 
ATOM      7  C   UNL     1     105.826 126.749 144.813  0.00  0.00    +0.000 A 
ATOM      8  C   UNL     1     105.421 127.663 145.834  0.00  0.00    +0.000 A 
ATOM      9  C   UNL     1     105.538 127.489 145.035  0.00  0.00    +0.000 A 
ATOM     10  C   UNL     1     105.952 126.555 143.986  0.00  0.00    +0.000 A 
ATOM     11  C   UNL     1     105.775 127.139 143.381  0.00  0.00    +0.000 A 
ATOM     12  C   UNL     1     105.474 127.910 143.613  0.00  0.00    +0.000 A 
ENDROOT
BRANCH   4  18
ATOM     13  O   UNL     1     106.835 125.674 147.005  0.00  0.00    +0.000 OA
ATOM     14  O   UNL     1     105.012 124.331 148.003  0.00  0.00    +0.000 OA
ATOM     15  O   UNL     1     106.571 124.096 148.488  0.00  0.00    +0.000 OA
ATOM     16  C   UNL     1     105.447 125.345 147.095  0.00  0.00    +0.000 C 
ATOM     17  C   UNL     1     105.619 124.779 147.671  0.00  0.00    +0.000 C 
ATOM     18  C   UNL     1     106.055 125.792 146.762  0.00  0.00    +0.000 C 
ATOM     19  C   UNL     1     106.399 124.661 147.913  0.00  0.00    +0.000 C 
ATOM     20  C   UNL     1     107.006 125.109 147.580  0.00  0.00    +0.000 C 
BRANCH  20  22
ATOM     21  O   UNL     1     108.402 125.383 147.435  0.00  0.00    +0.000 OA
ATOM     22  C   UNL     1     107.786 124.992 147.822  0.00  0.00    +0.000 C 
ENDBRANCH  20  22
BRANCH  16  23
ATOM     23  O   UNL     1     104.667 125.462 146.852  0.00  0.00    +0.000 OA
BRANCH  23  28
ATOM     24  O   UNL     1     104.507 124.212 146.180  0.00  0.00    +0.000 OA
ATOM     25  O   UNL     1     103.106 125.378 147.381  0.00  0.00    +0.000 OA
ATOM     26  O   UNL     1     102.166 124.085 146.972  0.00  0.00    +0.000 OA
ATOM     27  O   UNL     1     102.786 122.877 146.035  0.00  0.00    +0.000 OA
ATOM     28  C   UNL     1     104.197 124.816 146.648  0.00  0.00    +0.000 C 
ATOM     29  C   UNL     1     103.417 124.773 146.912  0.00  0.00    +0.000 C 
ATOM     30  C   UNL     1     102.946 124.127 146.708  0.00  0.00    +0.000 C 
ATOM     31  C   UNL     1     103.257 123.524 146.239  0.00  0.00    +0.000 C 
ATOM     32  C   UNL     1     104.037 123.566 145.975  0.00  0.00    +0.000 C 
ATOM     33  C   UNL     1     104.347 122.961 145.507  0.00  0.00    +0.000 C 
ENDBRANCH  23  28
ENDBRANCH  16  23
ENDBRANCH   4  18
BRANCH  12  34
ATOM     34  C   UNL     1     105.300 128.478 143.039  0.00  0.00    +0.000 A 
ATOM     35  C   UNL     1     104.537 128.532 142.730  0.00  0.00    +0.000 A 
ATOM     36  C   UNL     1     105.890 128.991 142.775  0.00  0.00    +0.000 A 
ATOM     37  C   UNL     1     104.364 129.099 142.157  0.00  0.00    +0.000 A 
ATOM     38  C   UNL     1     105.716 129.558 142.201  0.00  0.00    +0.000 A 
ATOM     39  C   UNL     1     104.953 129.612 141.893  0.00  0.00    +0.000 A 
BRANCH  39  40
ATOM     40  O   UNL     1     104.780 130.179 141.319  0.00  0.00    +0.000 OA
ATOM     41  C   UNL     1     104.497 130.920 141.545  0.00  0.00    +0.000 C 
ENDBRANCH  39  40
ENDBRANCH  12  34
BRANCH   6  42
ATOM     42  O   UNL     1     105.477 127.272 147.207  0.00  0.00    +0.000 OA
ATOM     43  C   UNL     1     105.366 128.054 147.446  0.00  0.00    +0.000 C 
ENDBRANCH   6  42
TORSDOF 7
ENDMDL
MODEL 6
REMARK VINA RESULT:      -9.7      4.174      7.069
REMARK  Name = 3085014
REMARK  7 active torsions:
REMARK  status: ('A' for Active; 'I' for Inactive)
REMARK    1  A    between atoms: O_1  and  C_15
REMARK    2  A    between atoms: O_1  and  C_20
REMARK    3  A    between atoms: O_10  and  C_29
REMARK    4  A    between atoms: O_14  and  C_42
REMARK    5  A    between atoms: C_17  and  C_25
REMARK    6  A    between atoms: C_19  and  C_26
REMARK    7  A    between atoms: C_35  and  C_37
REMARK                            x       y       z     vdW  Elec       q    Type
REMARK                         _______ _______ _______ _____ _____    ______ ____
ROOT
ATOM      1  O   UNL     1     111.841 130.525 139.664  0.00  0.00    +0.000 OA
ATOM      2  O   UNL     1     111.391 131.179 136.881  0.00  0.00    +0.000 OA
ATOM      3  O   UNL     1     110.533 130.974 139.254  0.00  0.00    +0.000 OA
ATOM      4  C   UNL     1     112.908 130.400 138.721  0.00  0.00    +0.000 A 
ATOM      5  C   UNL     1     112.124 130.590 138.891  0.00  0.00    +0.000 A 
ATOM      6  C   UNL     1     113.190 130.466 137.948  0.00  0.00    +0.000 A 
ATOM      7  C   UNL     1     111.621 130.847 138.289  0.00  0.00    +0.000 A 
ATOM      8  C   UNL     1     112.688 130.722 137.347  0.00  0.00    +0.000 A 
ATOM      9  C   UNL     1     111.903 130.913 137.516  0.00  0.00    +0.000 A 
ATOM     10  C   UNL     1     110.807 131.043 138.479  0.00  0.00    +0.000 A 
ATOM     11  C   UNL     1     110.278 131.311 137.857  0.00  0.00    +0.000 A 
ATOM     12  C   UNL     1     110.572 131.380 137.051  0.00  0.00    +0.000 A 
ENDROOT
BRANCH   4  18
ATOM     13  O   UNL     1     113.774 130.693 139.819  0.00  0.00    +0.000 OA
ATOM     14  O   UNL     1     114.187 128.273 140.138  0.00  0.00    +0.000 OA
ATOM     15  O   UNL     1     114.916 129.372 141.130  0.00  0.00    +0.000 OA
ATOM     16  C   UNL     1     113.547 129.336 139.429  0.00  0.00    +0.000 C 
ATOM     17  C   UNL     1     114.050 129.080 140.032  0.00  0.00    +0.000 C 
ATOM     18  C   UNL     1     113.410 130.143 139.323  0.00  0.00    +0.000 C 
ATOM     19  C   UNL     1     114.414 129.629 140.528  0.00  0.00    +0.000 C 
ATOM     20  C   UNL     1     114.276 130.436 140.421  0.00  0.00    +0.000 C 
BRANCH  20  22
ATOM     21  O   UNL     1     115.010 131.650 140.596  0.00  0.00    +0.000 OA
ATOM     22  C   UNL     1     114.640 130.985 140.917  0.00  0.00    +0.000 C 
ENDBRANCH  20  22
BRANCH  16  23
ATOM     23  O   UNL     1     113.183 128.787 138.933  0.00  0.00    +0.000 OA
BRANCH  23  28
ATOM     24  O   UNL     1     112.368 128.202 139.952  0.00  0.00    +0.000 OA
ATOM     25  O   UNL     1     113.299 127.321 138.185  0.00  0.00    +0.000 OA
ATOM     26  O   UNL     1     112.542 126.004 138.829  0.00  0.00    +0.000 OA
ATOM     27  O   UNL     1     111.669 126.152 140.221  0.00  0.00    +0.000 OA
ATOM     28  C   UNL     1     112.804 128.128 139.256  0.00  0.00    +0.000 C 
ATOM     29  C   UNL     1     112.862 127.396 138.882  0.00  0.00    +0.000 C 
ATOM     30  C   UNL     1     112.484 126.737 139.203  0.00  0.00    +0.000 C 
ATOM     31  C   UNL     1     112.048 126.812 139.899  0.00  0.00    +0.000 C 
ATOM     32  C   UNL     1     111.990 127.545 140.273  0.00  0.00    +0.000 C 
ATOM     33  C   UNL     1     111.553 127.618 140.970  0.00  0.00    +0.000 C 
ENDBRANCH  23  28
ENDBRANCH  16  23
ENDBRANCH   4  18
BRANCH  12  34
ATOM     34  C   UNL     1     110.072 131.636 136.447  0.00  0.00    +0.000 A 
ATOM     35  C   UNL     1     109.702 131.086 135.957  0.00  0.00    +0.000 A 
ATOM     36  C   UNL     1     109.943 132.443 136.334  0.00  0.00    +0.000 A 
ATOM     37  C   UNL     1     109.202 131.341 135.353  0.00  0.00    +0.000 A 
ATOM     38  C   UNL     1     109.442 132.699 135.729  0.00  0.00    +0.000 A 
ATOM     39  C   UNL     1     109.072 132.147 135.239  0.00  0.00    +0.000 A 
BRANCH  39  40
ATOM     40  O   UNL     1     108.572 132.404 134.635  0.00  0.00    +0.000 OA
ATOM     41  C   UNL     1     107.760 132.267 134.686  0.00  0.00    +0.000 C 
ENDBRANCH  39  40
ENDBRANCH  12  34
BRANCH   6  42
ATOM     42  O   UNL     1     113.974 130.274 137.779  0.00  0.00    +0.000 OA
ATOM     43  C   UNL     1     114.306 130.497 137.056  0.00  0.00    +0.000 C 
ENDBRANCH   6  42
TORSDOF 7
ENDMDL
MODEL 7
REMARK VINA RESULT:      -9.6      3.459      6.986
REMARK  Name = 3085014
REMARK  7 active torsions:
REMARK  status: ('A' for Active; 'I' for Inactive)
REMARK    1  A    between atoms: O_1  and  C_15
REMARK    2  A    between atoms: O_1  and  C_20
REMARK    3  A    between atoms: O_10  and  C_29
REMARK    4  A    between atoms: O_14  and  C_42
REMARK    5  A    between atoms: C_17  and  C_25
REMARK    6  A    between atoms: C_19  and  C_26
REMARK    7  A    between atoms: C_35  and  C_37
REMARK                            x       y       z     vdW  Elec       q    Type
REMARK                         _______ _______ _______ _____ _____    ______ ____
ROOT
ATOM      1  O   UNL     1     113.239 129.220 138.071  0.00  0.00    +0.000 OA
ATOM      2  O   UNL     1     110.526 130.020 137.456  0.00  0.00    +0.000 OA
ATOM      3  O   UNL     1     113.013 130.161 137.000  0.00  0.00    +0.000 OA
ATOM      4  C   UNL     1     112.150 128.685 138.825  0.00  0.00    +0.000 A 
ATOM      5  C   UNL     1     112.429 129.173 138.222  0.00  0.00    +0.000 A 
ATOM      6  C   UNL     1     111.340 128.637 138.976  0.00  0.00    +0.000 A 
ATOM      7  C   UNL     1     111.898 129.614 137.769  0.00  0.00    +0.000 A 
ATOM      8  C   UNL     1     110.810 129.078 138.524  0.00  0.00    +0.000 A 
ATOM      9  C   UNL     1     111.089 129.566 137.920  0.00  0.00    +0.000 A 
ATOM     10  C   UNL     1     112.202 130.119 137.144  0.00  0.00    +0.000 A 
ATOM     11  C   UNL     1     111.655 130.581 136.669  0.00  0.00    +0.000 A 
ATOM     12  C   UNL     1     110.811 130.531 136.826  0.00  0.00    +0.000 A 
ENDROOT
BRANCH   4  18
ATOM     13  O   UNL     1     112.971 127.526 138.991  0.00  0.00    +0.000 OA
ATOM     14  O   UNL     1     113.691 128.355 141.209  0.00  0.00    +0.000 OA
ATOM     15  O   UNL     1     114.272 126.922 140.636  0.00  0.00    +0.000 OA
ATOM     16  C   UNL     1     112.920 128.520 140.017  0.00  0.00    +0.000 C 
ATOM     17  C   UNL     1     113.451 128.079 140.470  0.00  0.00    +0.000 C 
ATOM     18  C   UNL     1     112.681 128.243 139.278  0.00  0.00    +0.000 C 
ATOM     19  C   UNL     1     113.742 127.362 140.183  0.00  0.00    +0.000 C 
ATOM     20  C   UNL     1     113.501 127.086 139.444  0.00  0.00    +0.000 C 
BRANCH  20  22
ATOM     21  O   UNL     1     113.349 125.931 138.616  0.00  0.00    +0.000 OA
ATOM     22  C   UNL     1     113.792 126.369 139.157  0.00  0.00    +0.000 C 
ENDBRANCH  20  22
BRANCH  16  23
ATOM     23  O   UNL     1     112.629 129.237 140.304  0.00  0.00    +0.000 OA
BRANCH  23  28
ATOM     24  O   UNL     1     113.896 129.898 140.275  0.00  0.00    +0.000 OA
ATOM     25  O   UNL     1     112.175 130.164 141.591  0.00  0.00    +0.000 OA
ATOM     26  O   UNL     1     113.214 131.288 142.206  0.00  0.00    +0.000 OA
ATOM     27  O   UNL     1     114.708 131.486 141.533  0.00  0.00    +0.000 OA
ATOM     28  C   UNL     1     113.150 129.799 140.611  0.00  0.00    +0.000 C 
ATOM     29  C   UNL     1     112.922 130.262 141.255  0.00  0.00    +0.000 C 
ATOM     30  C   UNL     1     113.441 130.825 141.562  0.00  0.00    +0.000 C 
ATOM     31  C   UNL     1     114.188 130.923 141.225  0.00  0.00    +0.000 C 
ATOM     32  C   UNL     1     114.415 130.460 140.582  0.00  0.00    +0.000 C 
ATOM     33  C   UNL     1     115.162 130.559 140.246  0.00  0.00    +0.000 C 
ENDBRANCH  23  28
ENDBRANCH  16  23
ENDBRANCH   4  18
BRANCH  12  34
ATOM     34  C   UNL     1     110.278 130.971 136.375  0.00  0.00    +0.000 A 
ATOM     35  C   UNL     1     110.066 131.732 136.613  0.00  0.00    +0.000 A 
ATOM     36  C   UNL     1     109.958 130.650 135.686  0.00  0.00    +0.000 A 
ATOM     37  C   UNL     1     109.534 132.172 136.163  0.00  0.00    +0.000 A 
ATOM     38  C   UNL     1     109.425 131.091 135.235  0.00  0.00    +0.000 A 
ATOM     39  C   UNL     1     109.213 131.852 135.474  0.00  0.00    +0.000 A 
BRANCH  39  40
ATOM     40  O   UNL     1     108.680 132.291 135.023  0.00  0.00    +0.000 OA
ATOM     41  C   UNL     1     107.875 132.114 135.046  0.00  0.00    +0.000 C 
ENDBRANCH  39  40
ENDBRANCH  12  34
BRANCH   6  42
ATOM     42  O   UNL     1     111.061 128.148 139.579  0.00  0.00    +0.000 OA
ATOM     43  C   UNL     1     110.259 127.961 139.621  0.00  0.00    +0.000 C 
ENDBRANCH   6  42
TORSDOF 7
ENDMDL
MODEL 8
REMARK VINA RESULT:      -9.6      4.138      6.958
REMARK  Name = 3085014
REMARK  7 active torsions:
REMARK  status: ('A' for Active; 'I' for Inactive)
REMARK    1  A    between atoms: O_1  and  C_15
REMARK    2  A    between atoms: O_1  and  C_20
REMARK    3  A    between atoms: O_10  and  C_29
REMARK    4  A    between atoms: O_14  and  C_42
REMARK    5  A    between atoms: C_17  and  C_25
REMARK    6  A    between atoms: C_19  and  C_26
REMARK    7  A    between atoms: C_35  and  C_37
REMARK                            x       y       z     vdW  Elec       q    Type
REMARK                         _______ _______ _______ _____ _____    ______ ____
ROOT
ATOM      1  O   UNL     1     112.331 125.837 139.378  0.00  0.00    +0.000 OA
ATOM      2  O   UNL     1     112.996 128.648 139.565  0.00  0.00    +0.000 OA
ATOM      3  O   UNL     1     112.254 126.490 140.663  0.00  0.00    +0.000 OA
ATOM      4  C   UNL     1     112.728 126.555 138.208  0.00  0.00    +0.000 A 
ATOM      5  C   UNL     1     112.573 126.539 139.018  0.00  0.00    +0.000 A 
ATOM      6  C   UNL     1     112.970 127.256 137.847  0.00  0.00    +0.000 A 
ATOM      7  C   UNL     1     112.660 127.225 139.468  0.00  0.00    +0.000 A 
ATOM      8  C   UNL     1     113.057 127.942 138.297  0.00  0.00    +0.000 A 
ATOM      9  C   UNL     1     112.902 127.927 139.107  0.00  0.00    +0.000 A 
ATOM     10  C   UNL     1     112.496 127.196 140.310  0.00  0.00    +0.000 A 
ATOM     11  C   UNL     1     112.584 127.907 140.785  0.00  0.00    +0.000 A 
ATOM     12  C   UNL     1     112.837 128.638 140.409  0.00  0.00    +0.000 A 
ENDROOT
BRANCH   4  18
ATOM     13  O   UNL     1     113.306 125.433 137.535  0.00  0.00    +0.000 OA
ATOM     14  O   UNL     1     111.049 124.680 136.854  0.00  0.00    +0.000 OA
ATOM     15  O   UNL     1     112.379 123.810 136.409  0.00  0.00    +0.000 OA
ATOM     16  C   UNL     1     111.888 125.617 137.531  0.00  0.00    +0.000 C 
ATOM     17  C   UNL     1     111.801 124.930 137.081  0.00  0.00    +0.000 C 
ATOM     18  C   UNL     1     112.641 125.868 137.758  0.00  0.00    +0.000 C 
ATOM     19  C   UNL     1     112.466 124.496 136.858  0.00  0.00    +0.000 C 
ATOM     20  C   UNL     1     113.218 124.748 137.086  0.00  0.00    +0.000 C 
BRANCH  20  22
ATOM     21  O   UNL     1     114.560 124.324 137.335  0.00  0.00    +0.000 OA
ATOM     22  C   UNL     1     113.883 124.313 136.863  0.00  0.00    +0.000 C 
ENDBRANCH  20  22
BRANCH  16  23
ATOM     23  O   UNL     1     111.223 126.052 137.753  0.00  0.00    +0.000 OA
BRANCH  23  28
ATOM     24  O   UNL     1     110.886 126.379 136.404  0.00  0.00    +0.000 OA
ATOM     25  O   UNL     1     109.644 126.237 138.193  0.00  0.00    +0.000 OA
ATOM     26  O   UNL     1     108.517 126.656 137.064  0.00  0.00    +0.000 OA
ATOM     27  O   UNL     1     108.969 126.890 135.494  0.00  0.00    +0.000 OA
ATOM     28  C   UNL     1     110.660 126.262 137.188  0.00  0.00    +0.000 C 
ATOM     29  C   UNL     1     109.870 126.354 137.408  0.00  0.00    +0.000 C 
ATOM     30  C   UNL     1     109.306 126.564 136.844  0.00  0.00    +0.000 C 
ATOM     31  C   UNL     1     109.533 126.680 136.059  0.00  0.00    +0.000 C 
ATOM     32  C   UNL     1     110.323 126.588 135.839  0.00  0.00    +0.000 C 
ATOM     33  C   UNL     1     110.548 126.705 135.054  0.00  0.00    +0.000 C 
ENDBRANCH  23  28
ENDBRANCH  16  23
ENDBRANCH   4  18
BRANCH  12  34
ATOM     34  C   UNL     1     112.924 129.326 140.857  0.00  0.00    +0.000 A 
ATOM     35  C   UNL     1     113.673 129.656 140.963  0.00  0.00    +0.000 A 
ATOM     36  C   UNL     1     112.264 129.683 141.198  0.00  0.00    +0.000 A 
ATOM     37  C   UNL     1     113.761 130.343 141.410  0.00  0.00    +0.000 A 
ATOM     38  C   UNL     1     112.352 130.371 141.646  0.00  0.00    +0.000 A 
ATOM     39  C   UNL     1     113.101 130.701 141.751  0.00  0.00    +0.000 A 
BRANCH  39  40
ATOM     40  O   UNL     1     113.189 131.388 142.199  0.00  0.00    +0.000 OA
ATOM     41  C   UNL     1     112.666 131.548 142.817  0.00  0.00    +0.000 C 
ENDBRANCH  39  40
ENDBRANCH  12  34
BRANCH   6  42
ATOM     42  O   UNL     1     113.125 127.271 137.037  0.00  0.00    +0.000 OA
ATOM     43  C   UNL     1     113.513 127.918 136.703  0.00  0.00    +0.000 C 
ENDBRANCH   6  42
TORSDOF 7
ENDMDL
MODEL 9
REMARK VINA RESULT:      -9.5      7.632     10.353
REMARK  Name = 3085014
REMARK  7 active torsions:
REMARK  status: ('A' for Active; 'I' for Inactive)
REMARK    1  A    between atoms: O_1  and  C_15
REMARK    2  A    between atoms: O_1  and  C_20
REMARK    3  A    between atoms: O_10  and  C_29
REMARK    4  A    between atoms: O_14  and  C_42
REMARK    5  A    between atoms: C_17  and  C_25
REMARK    6  A    between atoms: C_19  and  C_26
REMARK    7  A    between atoms: C_35  and  C_37
REMARK                            x       y       z     vdW  Elec       q    Type
REMARK                         _______ _______ _______ _____ _____    ______ ____
ROOT
ATOM      1  O   UNL     1     106.360 127.193 146.713  0.00  0.00    +0.000 OA
ATOM      2  O   UNL     1     105.288 126.988 144.032  0.00  0.00    +0.000 OA
ATOM      3  O   UNL     1     106.114 128.402 145.964  0.00  0.00    +0.000 OA
ATOM      4  C   UNL     1     106.084 125.908 146.152  0.00  0.00    +0.000 A 
ATOM      5  C   UNL     1     106.092 126.730 146.085  0.00  0.00    +0.000 A 
ATOM      6  C   UNL     1     105.816 125.445 145.525  0.00  0.00    +0.000 A 
ATOM      7  C   UNL     1     105.831 127.089 145.389  0.00  0.00    +0.000 A 
ATOM      8  C   UNL     1     105.555 125.804 144.830  0.00  0.00    +0.000 A 
ATOM      9  C   UNL     1     105.562 126.626 144.762  0.00  0.00    +0.000 A 
ATOM     10  C   UNL     1     105.844 127.946 145.331  0.00  0.00    +0.000 A 
ATOM     11  C   UNL     1     105.574 128.327 144.610  0.00  0.00    +0.000 A 
ATOM     12  C   UNL     1     105.294 127.844 143.956  0.00  0.00    +0.000 A 
ENDROOT
BRANCH   4  18
ATOM     13  O   UNL     1     107.153 125.447 146.983  0.00  0.00    +0.000 OA
ATOM     14  O   UNL     1     105.512 124.676 148.667  0.00  0.00    +0.000 OA
ATOM     15  O   UNL     1     107.127 124.472 148.935  0.00  0.00    +0.000 OA
ATOM     16  C   UNL     1     105.798 125.292 147.410  0.00  0.00    +0.000 C 
ATOM     17  C   UNL     1     106.059 124.933 148.106  0.00  0.00    +0.000 C 
ATOM     18  C   UNL     1     106.345 125.549 146.849  0.00  0.00    +0.000 C 
ATOM     19  C   UNL     1     106.867 124.831 148.240  0.00  0.00    +0.000 C 
ATOM     20  C   UNL     1     107.413 125.088 147.678  0.00  0.00    +0.000 C 
BRANCH  20  22
ATOM     21  O   UNL     1     108.769 125.454 147.409  0.00  0.00    +0.000 OA
ATOM     22  C   UNL     1     108.221 124.986 147.812  0.00  0.00    +0.000 C 
ENDBRANCH  20  22
BRANCH  16  23
ATOM     23  O   UNL     1     104.990 125.394 147.276  0.00  0.00    +0.000 OA
BRANCH  23  28
ATOM     24  O   UNL     1     104.817 126.371 148.304  0.00  0.00    +0.000 OA
ATOM     25  O   UNL     1     103.448 124.861 147.523  0.00  0.00    +0.000 OA
ATOM     26  O   UNL     1     102.505 125.571 148.675  0.00  0.00    +0.000 OA
ATOM     27  O   UNL     1     103.103 126.815 149.580  0.00  0.00    +0.000 OA
ATOM     28  C   UNL     1     104.519 125.750 147.852  0.00  0.00    +0.000 C 
ATOM     29  C   UNL     1     103.748 125.483 147.976  0.00  0.00    +0.000 C 
ATOM     30  C   UNL     1     103.275 125.838 148.551  0.00  0.00    +0.000 C 
ATOM     31  C   UNL     1     103.575 126.459 149.003  0.00  0.00    +0.000 C 
ATOM     32  C   UNL     1     104.346 126.726 148.880  0.00  0.00    +0.000 C 
ATOM     33  C   UNL     1     104.644 127.348 149.333  0.00  0.00    +0.000 C 
ENDBRANCH  23  28
ENDBRANCH  16  23
ENDBRANCH   4  18
BRANCH  12  34
ATOM     34  C   UNL     1     105.032 128.201 143.259  0.00  0.00    +0.000 A 
ATOM     35  C   UNL     1     105.315 127.938 142.530  0.00  0.00    +0.000 A 
ATOM     36  C   UNL     1     104.488 128.820 143.291  0.00  0.00    +0.000 A 
ATOM     37  C   UNL     1     105.054 128.293 141.834  0.00  0.00    +0.000 A 
ATOM     38  C   UNL     1     104.227 129.176 142.594  0.00  0.00    +0.000 A 
ATOM     39  C   UNL     1     104.511 128.912 141.865  0.00  0.00    +0.000 A 
BRANCH  39  40
ATOM     40  O   UNL     1     104.249 129.269 141.169  0.00  0.00    +0.000 OA
ATOM     41  C   UNL     1     103.444 129.287 140.992  0.00  0.00    +0.000 C 
ENDBRANCH  39  40
ENDBRANCH  12  34
BRANCH   6  42
ATOM     42  O   UNL     1     105.808 124.622 145.593  0.00  0.00    +0.000 OA
ATOM     43  C   UNL     1     105.640 124.156 144.934  0.00  0.00    +0.000 C 
ENDBRANCH   6  42
TORSDOF 7
ENDMDL
MODEL 10
REMARK VINA RESULT:      -9.5      5.510      8.313
REMARK  Name = 3085014
REMARK  7 active torsions:
REMARK  status: ('A' for Active; 'I' for Inactive)
REMARK    1  A    between atoms: O_1  and  C_15
REMARK    2  A    between atoms: O_1  and  C_20
REMARK    3  A    between atoms: O_10  and  C_29
REMARK    4  A    between atoms: O_14  and  C_42
REMARK    5  A    between atoms: C_17  and  C_25
REMARK    6  A    between atoms: C_19  and  C_26
REMARK    7  A    between atoms: C_35  and  C_37
REMARK                            x       y       z     vdW  Elec       q    Type
REMARK                         _______ _______ _______ _____ _____    ______ ____
ROOT
ATOM      1  O   UNL     1     104.707 128.076 141.447  0.00  0.00    +0.000 OA
ATOM      2  O   UNL     1     103.358 130.331 142.661  0.00  0.00    +0.000 OA
ATOM      3  O   UNL     1     103.736 128.810 140.672  0.00  0.00    +0.000 OA
ATOM      4  C   UNL     1     105.007 128.445 142.795  0.00  0.00    +0.000 A 
ATOM      5  C   UNL     1     104.585 128.570 142.097  0.00  0.00    +0.000 A 
ATOM      6  C   UNL     1     104.886 128.939 143.444  0.00  0.00    +0.000 A 
ATOM      7  C   UNL     1     104.042 129.189 142.049  0.00  0.00    +0.000 A 
ATOM      8  C   UNL     1     104.343 129.558 143.396  0.00  0.00    +0.000 A 
ATOM      9  C   UNL     1     103.920 129.683 142.698  0.00  0.00    +0.000 A 
ATOM     10  C   UNL     1     103.609 129.309 141.317  0.00  0.00    +0.000 A 
ATOM     11  C   UNL     1     103.041 129.951 141.259  0.00  0.00    +0.000 A 
ATOM     12  C   UNL     1     102.915 130.466 141.936  0.00  0.00    +0.000 A 
ENDROOT
BRANCH   4  18
ATOM     13  O   UNL     1     105.348 127.128 143.235  0.00  0.00    +0.000 OA
ATOM     14  O   UNL     1     107.586 127.364 142.204  0.00  0.00    +0.000 OA
ATOM     15  O   UNL     1     107.180 125.969 142.987  0.00  0.00    +0.000 OA
ATOM     16  C   UNL     1     106.296 127.904 142.499  0.00  0.00    +0.000 C 
ATOM     17  C   UNL     1     106.840 127.285 142.547  0.00  0.00    +0.000 C 
ATOM     18  C   UNL     1     105.551 127.826 142.843  0.00  0.00    +0.000 C 
ATOM     19  C   UNL     1     106.637 126.588 142.939  0.00  0.00    +0.000 C 
ATOM     20  C   UNL     1     105.891 126.510 143.283  0.00  0.00    +0.000 C 
BRANCH  20  22
ATOM     21  O   UNL     1     105.252 125.844 144.375  0.00  0.00    +0.000 OA
ATOM     22  C   UNL     1     105.688 125.813 143.674  0.00  0.00    +0.000 C 
ENDBRANCH  20  22
BRANCH  16  23
ATOM     23  O   UNL     1     106.499 128.602 142.108  0.00  0.00    +0.000 OA
BRANCH  23  28
ATOM     24  O   UNL     1     107.533 128.957 143.027  0.00  0.00    +0.000 OA
ATOM     25  O   UNL     1     107.323 129.351 140.891  0.00  0.00    +0.000 OA
ATOM     26  O   UNL     1     108.770 130.081 141.202  0.00  0.00    +0.000 OA
ATOM     27  O   UNL     1     109.392 130.062 142.730  0.00  0.00    +0.000 OA
ATOM     28  C   UNL     1     107.222 128.967 142.264  0.00  0.00    +0.000 C 
ATOM     29  C   UNL     1     107.634 129.341 141.655  0.00  0.00    +0.000 C 
ATOM     30  C   UNL     1     108.358 129.707 141.810  0.00  0.00    +0.000 C 
ATOM     31  C   UNL     1     108.668 129.697 142.574  0.00  0.00    +0.000 C 
ATOM     32  C   UNL     1     108.256 129.322 143.183  0.00  0.00    +0.000 C 
ATOM     33  C   UNL     1     108.567 129.313 143.947  0.00  0.00    +0.000 C 
ENDBRANCH  23  28
ENDBRANCH  16  23
ENDBRANCH   4  18
BRANCH  12  34
ATOM     34  C   UNL     1     102.372 131.086 141.891  0.00  0.00    +0.000 A 
ATOM     35  C   UNL     1     102.626 131.842 141.681  0.00  0.00    +0.000 A 
ATOM     36  C   UNL     1     101.575 130.950 142.055  0.00  0.00    +0.000 A 
ATOM     37  C   UNL     1     102.085 132.462 141.635  0.00  0.00    +0.000 A 
ATOM     38  C   UNL     1     101.033 131.570 142.009  0.00  0.00    +0.000 A 
ATOM     39  C   UNL     1     101.288 132.326 141.799  0.00  0.00    +0.000 A 
BRANCH  39  40
ATOM     40  O   UNL     1     100.745 132.946 141.753  0.00  0.00    +0.000 OA
ATOM     41  C   UNL     1     100.798 133.579 142.279  0.00  0.00    +0.000 C 
ENDBRANCH  39  40
ENDBRANCH  12  34
BRANCH   6  42
ATOM     42  O   UNL     1     105.308 128.814 144.142  0.00  0.00    +0.000 OA
ATOM     43  C   UNL     1     105.073 129.187 144.839  0.00  0.00    +0.000 C 
ENDBRANCH   6  42
TORSDOF 7
ENDMDL
