MODEL 1
REMARK VINA RESULT:      -9.8      0.000      0.000
REMARK  Name = 44258787
REMARK  9 active torsions:
REMARK  status: ('A' for Active; 'I' for Inactive)
REMARK    1  A    between atoms: O_3  and  C_25
REMARK    2  A    between atoms: O_3  and  C_29
REMARK    3  A    between atoms: O_4  and  C_26
REMARK    4  A    between atoms: O_4  and  C_30
REMARK    5  A    between atoms: C_23  and  C_27
REMARK    6  A    between atoms: C_24  and  C_28
REMARK    7  A    between atoms: C_31  and  C_38
REMARK    8  A    between atoms: C_35  and  C_39
REMARK    9  A    between atoms: C_38  and  C_40
REMARK                            x       y       z     vdW  Elec       q    Type
REMARK                         _______ _______ _______ _____ _____    ______ ____
ROOT
ATOM      1  O   UNL     1     111.086 129.879 136.964  0.00  0.00    +0.000 OA
ATOM      2  O   UNL     1     110.128 127.709 138.614  0.00  0.00    +0.000 OA
ATOM      3  O   UNL     1     109.590 129.041 138.749  0.00  0.00    +0.000 OA
ATOM      4  C   UNL     1     111.693 127.729 137.011  0.00  0.00    +0.000 A 
ATOM      5  C   UNL     1     110.063 130.115 137.934  0.00  0.00    +0.000 A 
ATOM      6  C   UNL     1     111.661 128.558 136.787  0.00  0.00    +0.000 A 
ATOM      7  C   UNL     1     111.111 129.085 137.185  0.00  0.00    +0.000 A 
ATOM      8  C   UNL     1     110.613 128.805 137.779  0.00  0.00    +0.000 A 
ATOM      9  C   UNL     1     110.089 129.320 138.154  0.00  0.00    +0.000 A 
ATOM     10  C   UNL     1     110.562 130.395 137.339  0.00  0.00    +0.000 A 
ATOM     11  C   UNL     1     111.174 127.438 137.631  0.00  0.00    +0.000 A 
ATOM     12  C   UNL     1     110.630 127.979 138.017  0.00  0.00    +0.000 A 
ENDROOT
BRANCH  10  14
ATOM     13  O   UNL     1     110.456 133.573 136.460  0.00  0.00    +0.000 OA
ATOM     14  C   UNL     1     110.536 131.189 137.119  0.00  0.00    +0.000 A 
ATOM     15  C   UNL     1     111.125 131.708 137.374  0.00  0.00    +0.000 A 
ATOM     16  C   UNL     1     109.920 131.465 136.644  0.00  0.00    +0.000 A 
ATOM     17  C   UNL     1     111.098 132.502 137.154  0.00  0.00    +0.000 A 
ATOM     18  C   UNL     1     109.894 132.260 136.424  0.00  0.00    +0.000 A 
ATOM     19  C   UNL     1     110.483 132.779 136.679  0.00  0.00    +0.000 A 
ENDBRANCH  10  14
BRANCH   4  20
ATOM     20  O   UNL     1     112.218 127.216 136.634  0.00  0.00    +0.000 OA
BRANCH  20  29
ATOM     21  O   UNL     1     111.315 126.333 135.968  0.00  0.00    +0.000 OA
ATOM     22  O   UNL     1     112.595 124.389 136.810  0.00  0.00    +0.000 OA
ATOM     23  O   UNL     1     111.265 124.152 135.863  0.00  0.00    +0.000 OA
ATOM     24  O   UNL     1     113.072 125.921 137.195  0.00  0.00    +0.000 OA
ATOM     25  C   UNL     1     112.169 125.037 136.529  0.00  0.00    +0.000 C 
ATOM     26  C   UNL     1     111.503 124.919 136.056  0.00  0.00    +0.000 C 
ATOM     27  C   UNL     1     112.407 125.803 136.722  0.00  0.00    +0.000 C 
ATOM     28  C   UNL     1     111.077 125.566 135.775  0.00  0.00    +0.000 C 
ATOM     29  C   UNL     1     111.980 126.451 136.441  0.00  0.00    +0.000 C 
BRANCH  28  31
ATOM     30  O   UNL     1     110.312 125.889 134.612  0.00  0.00    +0.000 OA
ATOM     31  C   UNL     1     110.411 125.448 135.302  0.00  0.00    +0.000 C 
ENDBRANCH  28  31
ENDBRANCH  20  29
ENDBRANCH   4  20
BRANCH   5  32
ATOM     32  O   UNL     1     109.539 130.630 138.309  0.00  0.00    +0.000 OA
BRANCH  32  41
ATOM     33  O   UNL     1     110.297 130.665 139.520  0.00  0.00    +0.000 OA
ATOM     34  O   UNL     1     108.236 131.167 140.795  0.00  0.00    +0.000 OA
ATOM     35  O   UNL     1     109.680 131.035 141.581  0.00  0.00    +0.000 OA
ATOM     36  O   UNL     1     108.165 130.965 139.159  0.00  0.00    +0.000 OA
ATOM     37  C   UNL     1     108.923 131.000 140.370  0.00  0.00    +0.000 C 
ATOM     38  C   UNL     1     109.645 130.933 140.763  0.00  0.00    +0.000 C 
ATOM     39  C   UNL     1     108.887 130.898 139.552  0.00  0.00    +0.000 C 
ATOM     40  C   UNL     1     110.332 130.766 140.338  0.00  0.00    +0.000 C 
ATOM     41  C   UNL     1     109.574 130.731 139.127  0.00  0.00    +0.000 C 
BRANCH  40  43
ATOM     42  O   UNL     1     111.691 131.173 140.508  0.00  0.00    +0.000 OA
ATOM     43  C   UNL     1     111.054 130.700 140.731  0.00  0.00    +0.000 C 
ENDBRANCH  40  43
ENDBRANCH  32  41
ENDBRANCH   5  32
BRANCH   6  44
ATOM     44  C   UNL     1     112.157 128.846 136.192  0.00  0.00    +0.000 C 
BRANCH  44  45
ATOM     45  C   UNL     1     112.929 129.074 136.373  0.00  0.00    +0.000 C 
ATOM     46  C   UNL     1     113.424 129.362 135.779  0.00  0.00    +0.000 C 
ATOM     47  C   UNL     1     114.196 129.590 135.959  0.00  0.00    +0.000 C 
ATOM     48  C   UNL     1     113.146 129.421 135.004  0.00  0.00    +0.000 C 
ENDBRANCH  44  45
ENDBRANCH   6  44
TORSDOF 9
ENDMDL
MODEL 2
REMARK VINA RESULT:      -9.7      1.912      5.159
REMARK  Name = 44258787
REMARK  9 active torsions:
REMARK  status: ('A' for Active; 'I' for Inactive)
REMARK    1  A    between atoms: O_3  and  C_25
REMARK    2  A    between atoms: O_3  and  C_29
REMARK    3  A    between atoms: O_4  and  C_26
REMARK    4  A    between atoms: O_4  and  C_30
REMARK    5  A    between atoms: C_23  and  C_27
REMARK    6  A    between atoms: C_24  and  C_28
REMARK    7  A    between atoms: C_31  and  C_38
REMARK    8  A    between atoms: C_35  and  C_39
REMARK    9  A    between atoms: C_38  and  C_40
REMARK                            x       y       z     vdW  Elec       q    Type
REMARK                         _______ _______ _______ _____ _____    ______ ____
ROOT
ATOM      1  O   UNL     1     112.608 128.062 137.670  0.00  0.00    +0.000 OA
ATOM      2  O   UNL     1     111.176 129.730 139.546  0.00  0.00    +0.000 OA
ATOM      3  O   UNL     1     111.508 128.363 139.867  0.00  0.00    +0.000 OA
ATOM      4  C   UNL     1     111.944 130.189 137.492  0.00  0.00    +0.000 A 
ATOM      5  C   UNL     1     112.216 127.538 138.941  0.00  0.00    +0.000 A 
ATOM      6  C   UNL     1     112.298 129.431 137.296  0.00  0.00    +0.000 A 
ATOM      7  C   UNL     1     112.266 128.788 137.865  0.00  0.00    +0.000 A 
ATOM      8  C   UNL     1     111.900 128.888 138.597  0.00  0.00    +0.000 A 
ATOM      9  C   UNL     1     111.875 128.263 139.134  0.00  0.00    +0.000 A 
ATOM     10  C   UNL     1     112.583 127.437 138.207  0.00  0.00    +0.000 A 
ATOM     11  C   UNL     1     111.562 130.294 138.256  0.00  0.00    +0.000 A 
ATOM     12  C   UNL     1     111.540 129.639 138.811  0.00  0.00    +0.000 A 
ENDROOT
BRANCH  10  14
ATOM     13  O   UNL     1     113.950 124.536 137.433  0.00  0.00    +0.000 OA
ATOM     14  C   UNL     1     112.924 126.712 138.014  0.00  0.00    +0.000 A 
ATOM     15  C   UNL     1     112.557 126.216 137.466  0.00  0.00    +0.000 A 
ATOM     16  C   UNL     1     113.633 126.482 138.368  0.00  0.00    +0.000 A 
ATOM     17  C   UNL     1     112.900 125.491 137.273  0.00  0.00    +0.000 A 
ATOM     18  C   UNL     1     113.975 125.757 138.175  0.00  0.00    +0.000 A 
ATOM     19  C   UNL     1     113.608 125.261 137.627  0.00  0.00    +0.000 A 
ENDBRANCH  10  14
BRANCH   4  20
ATOM     20  O   UNL     1     111.971 130.812 136.952  0.00  0.00    +0.000 OA
BRANCH  20  29
ATOM     21  O   UNL     1     110.602 130.893 136.550  0.00  0.00    +0.000 OA
ATOM     22  O   UNL     1     110.648 133.345 136.887  0.00  0.00    +0.000 OA
ATOM     23  O   UNL     1     109.264 132.609 136.373  0.00  0.00    +0.000 OA
ATOM     24  O   UNL     1     112.001 132.447 137.177  0.00  0.00    +0.000 OA
ATOM     25  C   UNL     1     110.632 132.527 136.775  0.00  0.00    +0.000 C 
ATOM     26  C   UNL     1     109.940 132.159 136.518  0.00  0.00    +0.000 C 
ATOM     27  C   UNL     1     111.309 132.078 136.920  0.00  0.00    +0.000 C 
ATOM     28  C   UNL     1     109.925 131.343 136.406  0.00  0.00    +0.000 C 
ATOM     29  C   UNL     1     111.294 131.261 136.807  0.00  0.00    +0.000 C 
BRANCH  28  31
ATOM     30  O   UNL     1     109.272 130.362 135.598  0.00  0.00    +0.000 OA
ATOM     31  C   UNL     1     109.233 130.975 136.148  0.00  0.00    +0.000 C 
ENDBRANCH  28  31
ENDBRANCH  20  29
ENDBRANCH   4  20
BRANCH   5  32
ATOM     32  O   UNL     1     112.191 126.913 139.478  0.00  0.00    +0.000 OA
BRANCH  32  41
ATOM     33  O   UNL     1     110.804 126.632 139.281  0.00  0.00    +0.000 OA
ATOM     34  O   UNL     1     110.617 125.898 141.637  0.00  0.00    +0.000 OA
ATOM     35  O   UNL     1     109.292 125.862 140.654  0.00  0.00    +0.000 OA
ATOM     36  O   UNL     1     112.066 126.424 141.049  0.00  0.00    +0.000 OA
ATOM     37  C   UNL     1     110.679 126.143 140.852  0.00  0.00    +0.000 C 
ATOM     38  C   UNL     1     110.018 126.125 140.360  0.00  0.00    +0.000 C 
ATOM     39  C   UNL     1     111.405 126.406 140.557  0.00  0.00    +0.000 C 
ATOM     40  C   UNL     1     110.080 126.369 139.574  0.00  0.00    +0.000 C 
ATOM     41  C   UNL     1     111.467 126.650 139.772  0.00  0.00    +0.000 C 
BRANCH  40  43
ATOM     42  O   UNL     1     109.467 126.009 138.334  0.00  0.00    +0.000 OA
ATOM     43  C   UNL     1     109.417 126.351 139.083  0.00  0.00    +0.000 C 
ENDBRANCH  40  43
ENDBRANCH  32  41
ENDBRANCH   5  32
BRANCH   6  44
ATOM     44  C   UNL     1     112.667 129.322 136.565  0.00  0.00    +0.000 C 
BRANCH  44  45
ATOM     45  C   UNL     1     113.455 129.543 136.464  0.00  0.00    +0.000 C 
ATOM     46  C   UNL     1     113.828 129.419 135.739  0.00  0.00    +0.000 C 
ATOM     47  C   UNL     1     114.616 129.640 135.637  0.00  0.00    +0.000 C 
ATOM     48  C   UNL     1     113.412 129.075 135.114  0.00  0.00    +0.000 C 
ENDBRANCH  44  45
ENDBRANCH   6  44
TORSDOF 9
ENDMDL
MODEL 3
REMARK VINA RESULT:      -9.6      1.252      1.639
REMARK  Name = 44258787
REMARK  9 active torsions:
REMARK  status: ('A' for Active; 'I' for Inactive)
REMARK    1  A    between atoms: O_3  and  C_25
REMARK    2  A    between atoms: O_3  and  C_29
REMARK    3  A    between atoms: O_4  and  C_26
REMARK    4  A    between atoms: O_4  and  C_30
REMARK    5  A    between atoms: C_23  and  C_27
REMARK    6  A    between atoms: C_24  and  C_28
REMARK    7  A    between atoms: C_31  and  C_38
REMARK    8  A    between atoms: C_35  and  C_39
REMARK    9  A    between atoms: C_38  and  C_40
REMARK                            x       y       z     vdW  Elec       q    Type
REMARK                         _______ _______ _______ _____ _____    ______ ____
ROOT
ATOM      1  O   UNL     1     112.078 129.251 137.326  0.00  0.00    +0.000 OA
ATOM      2  O   UNL     1     111.969 127.158 139.316  0.00  0.00    +0.000 OA
ATOM      3  O   UNL     1     111.439 128.472 139.587  0.00  0.00    +0.000 OA
ATOM      4  C   UNL     1     112.794 127.136 137.233  0.00  0.00    +0.000 A 
ATOM      5  C   UNL     1     111.492 129.508 138.604  0.00  0.00    +0.000 A 
ATOM      6  C   UNL     1     112.625 127.946 137.001  0.00  0.00    +0.000 A 
ATOM      7  C   UNL     1     112.237 128.474 137.556  0.00  0.00    +0.000 A 
ATOM      8  C   UNL     1     112.024 128.215 138.309  0.00  0.00    +0.000 A 
ATOM      9  C   UNL     1     111.652 128.732 138.833  0.00  0.00    +0.000 A 
ATOM     10  C   UNL     1     111.705 129.767 137.850  0.00  0.00    +0.000 A 
ATOM     11  C   UNL     1     112.573 126.865 138.018  0.00  0.00    +0.000 A 
ATOM     12  C   UNL     1     112.185 127.409 138.560  0.00  0.00    +0.000 A 
ENDROOT
BRANCH  10  14
ATOM     13  O   UNL     1     111.064 132.872 136.935  0.00  0.00    +0.000 OA
ATOM     14  C   UNL     1     111.546 130.544 137.621  0.00  0.00    +0.000 A 
ATOM     15  C   UNL     1     112.155 131.098 137.589  0.00  0.00    +0.000 A 
ATOM     16  C   UNL     1     110.775 130.765 137.425  0.00  0.00    +0.000 A 
ATOM     17  C   UNL     1     111.994 131.875 137.360  0.00  0.00    +0.000 A 
ATOM     18  C   UNL     1     110.615 131.541 137.196  0.00  0.00    +0.000 A 
ATOM     19  C   UNL     1     111.225 132.096 137.164  0.00  0.00    +0.000 A 
ENDBRANCH  10  14
BRANCH   4  20
ATOM     20  O   UNL     1     113.167 126.621 136.706  0.00  0.00    +0.000 OA
BRANCH  20  29
ATOM     21  O   UNL     1     112.092 125.743 136.366  0.00  0.00    +0.000 OA
ATOM     22  O   UNL     1     113.565 123.792 136.753  0.00  0.00    +0.000 OA
ATOM     23  O   UNL     1     112.000 123.563 136.284  0.00  0.00    +0.000 OA
ATOM     24  O   UNL     1     114.149 125.321 136.964  0.00  0.00    +0.000 OA
ATOM     25  C   UNL     1     113.074 124.442 136.624  0.00  0.00    +0.000 C 
ATOM     26  C   UNL     1     112.291 124.328 136.390  0.00  0.00    +0.000 C 
ATOM     27  C   UNL     1     113.366 125.207 136.730  0.00  0.00    +0.000 C 
ATOM     28  C   UNL     1     111.801 124.978 136.261  0.00  0.00    +0.000 C 
ATOM     29  C   UNL     1     112.875 125.857 136.601  0.00  0.00    +0.000 C 
BRANCH  28  31
ATOM     30  O   UNL     1     110.684 125.353 135.451  0.00  0.00    +0.000 OA
ATOM     31  C   UNL     1     111.018 124.864 136.026  0.00  0.00    +0.000 C 
ENDBRANCH  28  31
ENDBRANCH  20  29
ENDBRANCH   4  20
BRANCH   5  32
ATOM     32  O   UNL     1     111.120 130.025 139.129  0.00  0.00    +0.000 OA
BRANCH  32  41
ATOM     33  O   UNL     1     112.269 130.176 139.965  0.00  0.00    +0.000 OA
ATOM     34  O   UNL     1     110.797 130.570 141.915  0.00  0.00    +0.000 OA
ATOM     35  O   UNL     1     112.436 130.589 142.102  0.00  0.00    +0.000 OA
ATOM     36  O   UNL     1     110.139 130.288 140.429  0.00  0.00    +0.000 OA
ATOM     37  C   UNL     1     111.287 130.438 141.265  0.00  0.00    +0.000 C 
ATOM     38  C   UNL     1     112.107 130.448 141.358  0.00  0.00    +0.000 C 
ATOM     39  C   UNL     1     110.958 130.297 140.521  0.00  0.00    +0.000 C 
ATOM     40  C   UNL     1     112.598 130.317 140.708  0.00  0.00    +0.000 C 
ATOM     41  C   UNL     1     111.449 130.166 139.871  0.00  0.00    +0.000 C 
BRANCH  40  43
ATOM     42  O   UNL     1     113.872 130.884 140.400  0.00  0.00    +0.000 OA
ATOM     43  C   UNL     1     113.417 130.326 140.802  0.00  0.00    +0.000 C 
ENDBRANCH  40  43
ENDBRANCH  32  41
ENDBRANCH   5  32
BRANCH   6  44
ATOM     44  C   UNL     1     112.835 128.214 136.248  0.00  0.00    +0.000 C 
BRANCH  44  45
ATOM     45  C   UNL     1     113.604 128.474 136.102  0.00  0.00    +0.000 C 
ATOM     46  C   UNL     1     113.796 128.802 135.370  0.00  0.00    +0.000 C 
ATOM     47  C   UNL     1     114.565 129.062 135.224  0.00  0.00    +0.000 C 
ATOM     48  C   UNL     1     113.219 128.870 134.784  0.00  0.00    +0.000 C 
ENDBRANCH  44  45
ENDBRANCH   6  44
TORSDOF 9
ENDMDL
MODEL 4
REMARK VINA RESULT:      -9.6      2.152      5.839
REMARK  Name = 44258787
REMARK  9 active torsions:
REMARK  status: ('A' for Active; 'I' for Inactive)
REMARK    1  A    between atoms: O_3  and  C_25
REMARK    2  A    between atoms: O_3  and  C_29
REMARK    3  A    between atoms: O_4  and  C_26
REMARK    4  A    between atoms: O_4  and  C_30
REMARK    5  A    between atoms: C_23  and  C_27
REMARK    6  A    between atoms: C_24  and  C_28
REMARK    7  A    between atoms: C_31  and  C_38
REMARK    8  A    between atoms: C_35  and  C_39
REMARK    9  A    between atoms: C_38  and  C_40
REMARK                            x       y       z     vdW  Elec       q    Type
REMARK                         _______ _______ _______ _____ _____    ______ ____
ROOT
ATOM      1  O   UNL     1     112.717 128.133 138.697  0.00  0.00    +0.000 OA
ATOM      2  O   UNL     1     112.196 130.972 138.563  0.00  0.00    +0.000 OA
ATOM      3  O   UNL     1     112.067 130.135 137.395  0.00  0.00    +0.000 OA
ATOM      4  C   UNL     1     112.821 129.693 140.293  0.00  0.00    +0.000 A 
ATOM      5  C   UNL     1     112.324 128.731 137.460  0.00  0.00    +0.000 A 
ATOM      6  C   UNL     1     112.862 128.929 139.902  0.00  0.00    +0.000 A 
ATOM      7  C   UNL     1     112.676 128.870 139.066  0.00  0.00    +0.000 A 
ATOM      8  C   UNL     1     112.460 129.537 138.632  0.00  0.00    +0.000 A 
ATOM      9  C   UNL     1     112.284 129.467 137.829  0.00  0.00    +0.000 A 
ATOM     10  C   UNL     1     112.541 128.063 137.894  0.00  0.00    +0.000 A 
ATOM     11  C   UNL     1     112.595 130.389 139.841  0.00  0.00    +0.000 A 
ATOM     12  C   UNL     1     112.413 130.310 139.005  0.00  0.00    +0.000 A 
ENDROOT
BRANCH  10  14
ATOM     13  O   UNL     1     112.701 125.118 136.417  0.00  0.00    +0.000 OA
ATOM     14  C   UNL     1     112.581 127.327 137.524  0.00  0.00    +0.000 A 
ATOM     15  C   UNL     1     113.208 127.154 137.016  0.00  0.00    +0.000 A 
ATOM     16  C   UNL     1     111.995 126.763 137.664  0.00  0.00    +0.000 A 
ATOM     17  C   UNL     1     113.247 126.417 136.647  0.00  0.00    +0.000 A 
ATOM     18  C   UNL     1     112.035 126.027 137.294  0.00  0.00    +0.000 A 
ATOM     19  C   UNL     1     112.661 125.854 136.786  0.00  0.00    +0.000 A 
ENDBRANCH  10  14
BRANCH   4  20
ATOM     20  O   UNL     1     112.998 129.759 141.096  0.00  0.00    +0.000 OA
BRANCH  20  29
ATOM     21  O   UNL     1     111.728 130.081 141.668  0.00  0.00    +0.000 OA
ATOM     22  O   UNL     1     112.753 131.987 142.869  0.00  0.00    +0.000 OA
ATOM     23  O   UNL     1     111.142 131.675 143.041  0.00  0.00    +0.000 OA
ATOM     24  O   UNL     1     113.681 131.030 141.897  0.00  0.00    +0.000 OA
ATOM     25  C   UNL     1     112.411 131.352 142.469  0.00  0.00    +0.000 C 
ATOM     26  C   UNL     1     111.606 131.195 142.554  0.00  0.00    +0.000 C 
ATOM     27  C   UNL     1     112.875 130.873 141.983  0.00  0.00    +0.000 C 
ATOM     28  C   UNL     1     111.265 130.561 142.154  0.00  0.00    +0.000 C 
ATOM     29  C   UNL     1     112.534 130.238 141.582  0.00  0.00    +0.000 C 
BRANCH  28  31
ATOM     30  O   UNL     1     110.193 129.624 142.287  0.00  0.00    +0.000 OA
ATOM     31  C   UNL     1     110.459 130.404 142.240  0.00  0.00    +0.000 C 
ENDBRANCH  28  31
ENDBRANCH  20  29
ENDBRANCH   4  20
BRANCH   5  32
ATOM     32  O   UNL     1     112.148 128.662 136.656  0.00  0.00    +0.000 OA
BRANCH  32  41
ATOM     33  O   UNL     1     110.735 128.784 136.829  0.00  0.00    +0.000 OA
ATOM     34  O   UNL     1     110.559 129.871 134.612  0.00  0.00    +0.000 OA
ATOM     35  O   UNL     1     109.204 129.631 135.523  0.00  0.00    +0.000 OA
ATOM     36  O   UNL     1     112.031 129.386 135.179  0.00  0.00    +0.000 OA
ATOM     37  C   UNL     1     110.617 129.509 135.351  0.00  0.00    +0.000 C 
ATOM     38  C   UNL     1     109.941 129.388 135.807  0.00  0.00    +0.000 C 
ATOM     39  C   UNL     1     111.354 129.266 135.635  0.00  0.00    +0.000 C 
ATOM     40  C   UNL     1     109.999 129.026 136.546  0.00  0.00    +0.000 C 
ATOM     41  C   UNL     1     111.413 128.904 136.374  0.00  0.00    +0.000 C 
BRANCH  40  43
ATOM     42  O   UNL     1     109.068 128.140 137.170  0.00  0.00    +0.000 OA
ATOM     43  C   UNL     1     109.321 128.906 137.001  0.00  0.00    +0.000 C 
ENDBRANCH  40  43
ENDBRANCH  32  41
ENDBRANCH   5  32
BRANCH   6  44
ATOM     44  C   UNL     1     113.078 128.256 140.329  0.00  0.00    +0.000 C 
BRANCH  44  45
ATOM     45  C   UNL     1     113.875 128.062 140.418  0.00  0.00    +0.000 C 
ATOM     46  C   UNL     1     114.089 127.370 140.813  0.00  0.00    +0.000 C 
ATOM     47  C   UNL     1     114.886 127.176 140.902  0.00  0.00    +0.000 C 
ATOM     48  C   UNL     1     113.506 126.872 141.119  0.00  0.00    +0.000 C 
ENDBRANCH  44  45
ENDBRANCH   6  44
TORSDOF 9
ENDMDL
MODEL 5
REMARK VINA RESULT:      -9.6      1.740      3.571
REMARK  Name = 44258787
REMARK  9 active torsions:
REMARK  status: ('A' for Active; 'I' for Inactive)
REMARK    1  A    between atoms: O_3  and  C_25
REMARK    2  A    between atoms: O_3  and  C_29
REMARK    3  A    between atoms: O_4  and  C_26
REMARK    4  A    between atoms: O_4  and  C_30
REMARK    5  A    between atoms: C_23  and  C_27
REMARK    6  A    between atoms: C_24  and  C_28
REMARK    7  A    between atoms: C_31  and  C_38
REMARK    8  A    between atoms: C_35  and  C_39
REMARK    9  A    between atoms: C_38  and  C_40
REMARK                            x       y       z     vdW  Elec       q    Type
REMARK                         _______ _______ _______ _____ _____    ______ ____
ROOT
ATOM      1  O   UNL     1     111.286 128.729 138.855  0.00  0.00    +0.000 OA
ATOM      2  O   UNL     1     112.680 128.450 136.339  0.00  0.00    +0.000 OA
ATOM      3  O   UNL     1     111.749 129.531 136.559  0.00  0.00    +0.000 OA
ATOM      4  C   UNL     1     112.771 127.196 138.193  0.00  0.00    +0.000 A 
ATOM      5  C   UNL     1     111.059 129.670 137.802  0.00  0.00    +0.000 A 
ATOM      6  C   UNL     1     112.213 127.624 138.686  0.00  0.00    +0.000 A 
ATOM      7  C   UNL     1     111.822 128.324 138.376  0.00  0.00    +0.000 A 
ATOM      8  C   UNL     1     111.976 128.590 137.611  0.00  0.00    +0.000 A 
ATOM      9  C   UNL     1     111.595 129.263 137.325  0.00  0.00    +0.000 A 
ATOM     10  C   UNL     1     110.905 129.402 138.568  0.00  0.00    +0.000 A 
ATOM     11  C   UNL     1     112.932 127.475 137.395  0.00  0.00    +0.000 A 
ATOM     12  C   UNL     1     112.532 128.176 137.103  0.00  0.00    +0.000 A 
ENDROOT
BRANCH  10  14
ATOM     13  O   UNL     1     108.762 131.027 140.479  0.00  0.00    +0.000 OA
ATOM     14  C   UNL     1     110.369 129.809 139.046  0.00  0.00    +0.000 A 
ATOM     15  C   UNL     1     110.583 130.530 139.385  0.00  0.00    +0.000 A 
ATOM     16  C   UNL     1     109.619 129.493 139.185  0.00  0.00    +0.000 A 
ATOM     17  C   UNL     1     110.046 130.936 139.863  0.00  0.00    +0.000 A 
ATOM     18  C   UNL     1     109.084 129.900 139.663  0.00  0.00    +0.000 A 
ATOM     19  C   UNL     1     109.297 130.621 140.002  0.00  0.00    +0.000 A 
ENDBRANCH  10  14
BRANCH   4  20
ATOM     20  O   UNL     1     113.151 126.524 138.483  0.00  0.00    +0.000 OA
BRANCH  20  29
ATOM     21  O   UNL     1     112.556 125.529 137.648  0.00  0.00    +0.000 OA
ATOM     22  O   UNL     1     114.777 124.495 137.296  0.00  0.00    +0.000 OA
ATOM     23  O   UNL     1     113.442 123.844 136.577  0.00  0.00    +0.000 OA
ATOM     24  O   UNL     1     114.632 125.835 138.248  0.00  0.00    +0.000 OA
ATOM     25  C   UNL     1     114.037 124.840 137.413  0.00  0.00    +0.000 C 
ATOM     26  C   UNL     1     113.369 124.515 137.054  0.00  0.00    +0.000 C 
ATOM     27  C   UNL     1     113.964 125.509 137.889  0.00  0.00    +0.000 C 
ATOM     28  C   UNL     1     112.629 124.859 137.171  0.00  0.00    +0.000 C 
ATOM     29  C   UNL     1     113.224 125.854 138.006  0.00  0.00    +0.000 C 
BRANCH  28  31
ATOM     30  O   UNL     1     111.244 124.510 137.220  0.00  0.00    +0.000 OA
ATOM     31  C   UNL     1     111.961 124.533 136.812  0.00  0.00    +0.000 C 
ENDBRANCH  28  31
ENDBRANCH  20  29
ENDBRANCH   4  20
BRANCH   5  32
ATOM     32  O   UNL     1     110.678 130.343 137.516  0.00  0.00    +0.000 OA
BRANCH  32  41
ATOM     33  O   UNL     1     109.807 129.600 136.661  0.00  0.00    +0.000 OA
ATOM     34  O   UNL     1     109.637 131.546 135.141  0.00  0.00    +0.000 OA
ATOM     35  O   UNL     1     108.823 130.154 134.793  0.00  0.00    +0.000 OA
ATOM     36  O   UNL     1     110.565 131.640 136.503  0.00  0.00    +0.000 OA
ATOM     37  C   UNL     1     109.694 130.897 135.648  0.00  0.00    +0.000 C 
ATOM     38  C   UNL     1     109.287 130.201 135.474  0.00  0.00    +0.000 C 
ATOM     39  C   UNL     1     110.158 130.944 136.329  0.00  0.00    +0.000 C 
ATOM     40  C   UNL     1     109.343 129.552 135.981  0.00  0.00    +0.000 C 
ATOM     41  C   UNL     1     110.214 130.295 136.836  0.00  0.00    +0.000 C 
BRANCH  40  43
ATOM     42  O   UNL     1     108.292 128.628 136.267  0.00  0.00    +0.000 OA
ATOM     43  C   UNL     1     108.936 128.856 135.806  0.00  0.00    +0.000 C 
ENDBRANCH  40  43
ENDBRANCH  32  41
ENDBRANCH   5  32
BRANCH   6  44
ATOM     44  C   UNL     1     112.052 127.364 139.453  0.00  0.00    +0.000 C 
BRANCH  44  45
ATOM     45  C   UNL     1     112.546 127.586 140.076  0.00  0.00    +0.000 C 
ATOM     46  C   UNL     1     112.381 127.334 140.843  0.00  0.00    +0.000 C 
ATOM     47  C   UNL     1     112.874 127.555 141.466  0.00  0.00    +0.000 C 
ATOM     48  C   UNL     1     111.721 126.859 140.988  0.00  0.00    +0.000 C 
ENDBRANCH  44  45
ENDBRANCH   6  44
TORSDOF 9
ENDMDL
MODEL 6
REMARK VINA RESULT:      -9.6      2.315      6.089
REMARK  Name = 44258787
REMARK  9 active torsions:
REMARK  status: ('A' for Active; 'I' for Inactive)
REMARK    1  A    between atoms: O_3  and  C_25
REMARK    2  A    between atoms: O_3  and  C_29
REMARK    3  A    between atoms: O_4  and  C_26
REMARK    4  A    between atoms: O_4  and  C_30
REMARK    5  A    between atoms: C_23  and  C_27
REMARK    6  A    between atoms: C_24  and  C_28
REMARK    7  A    between atoms: C_31  and  C_38
REMARK    8  A    between atoms: C_35  and  C_39
REMARK    9  A    between atoms: C_38  and  C_40
REMARK                            x       y       z     vdW  Elec       q    Type
REMARK                         _______ _______ _______ _____ _____    ______ ____
ROOT
ATOM      1  O   UNL     1     112.783 126.598 138.636  0.00  0.00    +0.000 OA
ATOM      2  O   UNL     1     109.932 126.527 139.105  0.00  0.00    +0.000 OA
ATOM      3  O   UNL     1     110.508 125.933 137.923  0.00  0.00    +0.000 OA
ATOM      4  C   UNL     1     111.583 127.410 140.337  0.00  0.00    +0.000 A 
ATOM      5  C   UNL     1     111.917 125.967 137.689  0.00  0.00    +0.000 A 
ATOM      6  C   UNL     1     112.256 127.211 139.842  0.00  0.00    +0.000 A 
ATOM      7  C   UNL     1     112.132 126.785 139.106  0.00  0.00    +0.000 A 
ATOM      8  C   UNL     1     111.374 126.564 138.869  0.00  0.00    +0.000 A 
ATOM      9  C   UNL     1     111.267 126.155 138.161  0.00  0.00    +0.000 A 
ATOM     10  C   UNL     1     112.676 126.189 137.927  0.00  0.00    +0.000 A 
ATOM     11  C   UNL     1     110.792 127.179 140.089  0.00  0.00    +0.000 A 
ATOM     12  C   UNL     1     110.687 126.753 139.350  0.00  0.00    +0.000 A 
ENDROOT
BRANCH  10  14
ATOM     13  O   UNL     1     115.278 125.436 136.044  0.00  0.00    +0.000 OA
ATOM     14  C   UNL     1     113.327 126.001 137.456  0.00  0.00    +0.000 A 
ATOM     15  C   UNL     1     113.680 126.582 136.990  0.00  0.00    +0.000 A 
ATOM     16  C   UNL     1     113.624 125.231 137.452  0.00  0.00    +0.000 A 
ATOM     17  C   UNL     1     114.331 126.393 136.519  0.00  0.00    +0.000 A 
ATOM     18  C   UNL     1     114.274 125.043 136.981  0.00  0.00    +0.000 A 
ATOM     19  C   UNL     1     114.628 125.624 136.514  0.00  0.00    +0.000 A 
ENDBRANCH  10  14
BRANCH   4  20
ATOM     20  O   UNL     1     111.693 127.819 141.045  0.00  0.00    +0.000 OA
BRANCH  20  29
ATOM     21  O   UNL     1     111.090 129.082 140.756  0.00  0.00    +0.000 OA
ATOM     22  O   UNL     1     109.812 128.955 142.871  0.00  0.00    +0.000 OA
ATOM     23  O   UNL     1     109.634 130.260 141.878  0.00  0.00    +0.000 OA
ATOM     24  O   UNL     1     110.841 127.734 142.455  0.00  0.00    +0.000 OA
ATOM     25  C   UNL     1     110.238 128.997 142.166  0.00  0.00    +0.000 C 
ATOM     26  C   UNL     1     110.149 129.650 141.669  0.00  0.00    +0.000 C 
ATOM     27  C   UNL     1     110.752 128.387 141.958  0.00  0.00    +0.000 C 
ATOM     28  C   UNL     1     110.575 129.692 140.965  0.00  0.00    +0.000 C 
ATOM     29  C   UNL     1     111.178 128.429 141.253  0.00  0.00    +0.000 C 
BRANCH  28  31
ATOM     30  O   UNL     1     111.152 130.741 140.185  0.00  0.00    +0.000 OA
ATOM     31  C   UNL     1     110.486 130.344 140.467  0.00  0.00    +0.000 C 
ENDBRANCH  28  31
ENDBRANCH  20  29
ENDBRANCH   4  20
BRANCH   5  32
ATOM     32  O   UNL     1     111.810 125.558 136.981  0.00  0.00    +0.000 OA
BRANCH  32  41
ATOM     33  O   UNL     1     111.290 126.694 136.287  0.00  0.00    +0.000 OA
ATOM     34  O   UNL     1     109.976 125.195 134.819  0.00  0.00    +0.000 OA
ATOM     35  O   UNL     1     109.894 126.830 134.615  0.00  0.00    +0.000 OA
ATOM     36  O   UNL     1     110.934 124.559 136.002  0.00  0.00    +0.000 OA
ATOM     37  C   UNL     1     110.414 125.695 135.309  0.00  0.00    +0.000 C 
ATOM     38  C   UNL     1     110.373 126.512 135.207  0.00  0.00    +0.000 C 
ATOM     39  C   UNL     1     110.893 125.376 135.901  0.00  0.00    +0.000 C 
ATOM     40  C   UNL     1     110.811 127.012 135.696  0.00  0.00    +0.000 C 
ATOM     41  C   UNL     1     111.331 125.876 136.390  0.00  0.00    +0.000 C 
BRANCH  40  43
ATOM     42  O   UNL     1     111.435 128.249 135.349  0.00  0.00    +0.000 OA
ATOM     43  C   UNL     1     110.769 127.829 135.594  0.00  0.00    +0.000 C 
ENDBRANCH  40  43
ENDBRANCH  32  41
ENDBRANCH   5  32
BRANCH   6  44
ATOM     44  C   UNL     1     113.019 127.429 140.072  0.00  0.00    +0.000 C 
BRANCH  44  45
ATOM     45  C   UNL     1     113.442 126.955 140.598  0.00  0.00    +0.000 C 
ATOM     46  C   UNL     1     114.197 127.181 140.841  0.00  0.00    +0.000 C 
ATOM     47  C   UNL     1     114.621 126.708 141.366  0.00  0.00    +0.000 C 
ATOM     48  C   UNL     1     114.528 127.883 140.558  0.00  0.00    +0.000 C 
ENDBRANCH  44  45
ENDBRANCH   6  44
TORSDOF 9
ENDMDL
MODEL 7
REMARK VINA RESULT:      -9.6      2.239      3.777
REMARK  Name = 44258787
REMARK  9 active torsions:
REMARK  status: ('A' for Active; 'I' for Inactive)
REMARK    1  A    between atoms: O_3  and  C_25
REMARK    2  A    between atoms: O_3  and  C_29
REMARK    3  A    between atoms: O_4  and  C_26
REMARK    4  A    between atoms: O_4  and  C_30
REMARK    5  A    between atoms: C_23  and  C_27
REMARK    6  A    between atoms: C_24  and  C_28
REMARK    7  A    between atoms: C_31  and  C_38
REMARK    8  A    between atoms: C_35  and  C_39
REMARK    9  A    between atoms: C_38  and  C_40
REMARK                            x       y       z     vdW  Elec       q    Type
REMARK                         _______ _______ _______ _____ _____    ______ ____
ROOT
ATOM      1  O   UNL     1     113.311 128.680 139.189  0.00  0.00    +0.000 OA
ATOM      2  O   UNL     1     111.799 128.212 136.771  0.00  0.00    +0.000 OA
ATOM      3  O   UNL     1     112.261 129.535 137.116  0.00  0.00    +0.000 OA
ATOM      4  C   UNL     1     112.457 126.785 138.368  0.00  0.00    +0.000 A 
ATOM      5  C   UNL     1     113.009 129.767 138.311  0.00  0.00    +0.000 A 
ATOM      6  C   UNL     1     112.869 127.330 138.889  0.00  0.00    +0.000 A 
ATOM      7  C   UNL     1     112.913 128.163 138.684  0.00  0.00    +0.000 A 
ATOM      8  C   UNL     1     112.563 128.447 137.993  0.00  0.00    +0.000 A 
ATOM      9  C   UNL     1     112.611 129.250 137.807  0.00  0.00    +0.000 A 
ATOM     10  C   UNL     1     113.359 129.482 139.003  0.00  0.00    +0.000 A 
ATOM     11  C   UNL     1     112.092 127.082 137.648  0.00  0.00    +0.000 A 
ATOM     12  C   UNL     1     112.146 127.918 137.460  0.00  0.00    +0.000 A 
ENDROOT
BRANCH  10  14
ATOM     13  O   UNL     1     114.951 131.554 141.017  0.00  0.00    +0.000 OA
ATOM     14  C   UNL     1     113.756 130.000 139.507  0.00  0.00    +0.000 A 
ATOM     15  C   UNL     1     113.414 130.224 140.223  0.00  0.00    +0.000 A 
ATOM     16  C   UNL     1     114.498 130.295 139.293  0.00  0.00    +0.000 A 
ATOM     17  C   UNL     1     113.813 130.742 140.726  0.00  0.00    +0.000 A 
ATOM     18  C   UNL     1     114.895 130.813 139.797  0.00  0.00    +0.000 A 
ATOM     19  C   UNL     1     114.553 131.036 140.514  0.00  0.00    +0.000 A 
ENDBRANCH  10  14
BRANCH   4  20
ATOM     20  O   UNL     1     112.410 125.983 138.557  0.00  0.00    +0.000 OA
BRANCH  20  29
ATOM     21  O   UNL     1     113.292 125.421 137.584  0.00  0.00    +0.000 OA
ATOM     22  O   UNL     1     111.602 123.694 137.050  0.00  0.00    +0.000 OA
ATOM     23  O   UNL     1     113.047 123.706 136.255  0.00  0.00    +0.000 OA
ATOM     24  O   UNL     1     111.283 124.832 138.201  0.00  0.00    +0.000 OA
ATOM     25  C   UNL     1     112.165 124.269 137.228  0.00  0.00    +0.000 C 
ATOM     26  C   UNL     1     112.888 124.276 136.830  0.00  0.00    +0.000 C 
ATOM     27  C   UNL     1     112.006 124.839 137.804  0.00  0.00    +0.000 C 
ATOM     28  C   UNL     1     113.451 124.851 137.008  0.00  0.00    +0.000 C 
ATOM     29  C   UNL     1     112.570 125.414 137.981  0.00  0.00    +0.000 C 
BRANCH  28  31
ATOM     30  O   UNL     1     114.872 124.998 137.026  0.00  0.00    +0.000 OA
ATOM     31  C   UNL     1     114.174 124.858 136.610  0.00  0.00    +0.000 C 
ENDBRANCH  28  31
ENDBRANCH  20  29
ENDBRANCH   4  20
BRANCH   5  32
ATOM     32  O   UNL     1     113.057 130.570 138.125  0.00  0.00    +0.000 OA
BRANCH  32  41
ATOM     33  O   UNL     1     111.717 130.906 138.489  0.00  0.00    +0.000 OA
ATOM     34  O   UNL     1     111.606 132.507 136.605  0.00  0.00    +0.000 OA
ATOM     35  O   UNL     1     110.303 132.309 137.597  0.00  0.00    +0.000 OA
ATOM     36  O   UNL     1     112.983 131.637 136.869  0.00  0.00    +0.000 OA
ATOM     37  C   UNL     1     111.643 131.973 137.233  0.00  0.00    +0.000 C 
ATOM     38  C   UNL     1     110.992 131.874 137.729  0.00  0.00    +0.000 C 
ATOM     39  C   UNL     1     112.332 131.538 137.365  0.00  0.00    +0.000 C 
ATOM     40  C   UNL     1     111.028 131.340 138.357  0.00  0.00    +0.000 C 
ATOM     41  C   UNL     1     112.369 131.004 137.993  0.00  0.00    +0.000 C 
BRANCH  40  43
ATOM     42  O   UNL     1     110.422 131.464 139.645  0.00  0.00    +0.000 OA
ATOM     43  C   UNL     1     110.376 131.241 138.853  0.00  0.00    +0.000 C 
ENDBRANCH  40  43
ENDBRANCH  32  41
ENDBRANCH   5  32
BRANCH   6  44
ATOM     44  C   UNL     1     113.222 127.053 139.582  0.00  0.00    +0.000 C 
BRANCH  44  45
ATOM     45  C   UNL     1     112.777 126.988 140.274  0.00  0.00    +0.000 C 
ATOM     46  C   UNL     1     113.146 126.790 140.984  0.00  0.00    +0.000 C 
ATOM     47  C   UNL     1     112.702 126.725 141.676  0.00  0.00    +0.000 C 
ATOM     48  C   UNL     1     113.961 126.656 141.003  0.00  0.00    +0.000 C 
ENDBRANCH  44  45
ENDBRANCH   6  44
TORSDOF 9
ENDMDL
MODEL 8
REMARK VINA RESULT:      -9.5      1.607      2.482
REMARK  Name = 44258787
REMARK  9 active torsions:
REMARK  status: ('A' for Active; 'I' for Inactive)
REMARK    1  A    between atoms: O_3  and  C_25
REMARK    2  A    between atoms: O_3  and  C_29
REMARK    3  A    between atoms: O_4  and  C_26
REMARK    4  A    between atoms: O_4  and  C_30
REMARK    5  A    between atoms: C_23  and  C_27
REMARK    6  A    between atoms: C_24  and  C_28
REMARK    7  A    between atoms: C_31  and  C_38
REMARK    8  A    between atoms: C_35  and  C_39
REMARK    9  A    between atoms: C_38  and  C_40
REMARK                            x       y       z     vdW  Elec       q    Type
REMARK                         _______ _______ _______ _____ _____    ______ ____
ROOT
ATOM      1  O   UNL     1     111.458 129.070 137.364  0.00  0.00    +0.000 OA
ATOM      2  O   UNL     1     111.684 127.073 139.441  0.00  0.00    +0.000 OA
ATOM      3  O   UNL     1     111.579 128.476 139.764  0.00  0.00    +0.000 OA
ATOM      4  C   UNL     1     111.635 126.848 137.212  0.00  0.00    +0.000 A 
ATOM      5  C   UNL     1     111.467 129.464 138.738  0.00  0.00    +0.000 A 
ATOM      6  C   UNL     1     111.561 127.673 136.984  0.00  0.00    +0.000 A 
ATOM      7  C   UNL     1     111.530 128.280 137.590  0.00  0.00    +0.000 A 
ATOM      8  C   UNL     1     111.570 128.082 138.390  0.00  0.00    +0.000 A 
ATOM      9  C   UNL     1     111.538 128.674 138.963  0.00  0.00    +0.000 A 
ATOM     10  C   UNL     1     111.427 129.662 137.937  0.00  0.00    +0.000 A 
ATOM     11  C   UNL     1     111.677 126.641 138.046  0.00  0.00    +0.000 A 
ATOM     12  C   UNL     1     111.644 127.262 138.638  0.00  0.00    +0.000 A 
ENDROOT
BRANCH  10  14
ATOM     13  O   UNL     1     111.143 132.823 137.035  0.00  0.00    +0.000 OA
ATOM     14  C   UNL     1     111.355 130.453 137.712  0.00  0.00    +0.000 A 
ATOM     15  C   UNL     1     110.638 130.848 137.814  0.00  0.00    +0.000 A 
ATOM     16  C   UNL     1     112.002 130.848 137.385  0.00  0.00    +0.000 A 
ATOM     17  C   UNL     1     110.568 131.638 137.588  0.00  0.00    +0.000 A 
ATOM     18  C   UNL     1     111.931 131.638 137.159  0.00  0.00    +0.000 A 
ATOM     19  C   UNL     1     111.214 132.033 137.261  0.00  0.00    +0.000 A 
ENDBRANCH  10  14
BRANCH   4  20
ATOM     20  O   UNL     1     111.666 126.258 136.636  0.00  0.00    +0.000 OA
BRANCH  20  29
ATOM     21  O   UNL     1     112.991 125.752 136.811  0.00  0.00    +0.000 OA
ATOM     22  O   UNL     1     112.106 123.441 136.830  0.00  0.00    +0.000 OA
ATOM     23  O   UNL     1     113.725 123.704 136.999  0.00  0.00    +0.000 OA
ATOM     24  O   UNL     1     111.076 124.717 136.649  0.00  0.00    +0.000 OA
ATOM     25  C   UNL     1     112.401 124.211 136.824  0.00  0.00    +0.000 C 
ATOM     26  C   UNL     1     113.211 124.343 136.908  0.00  0.00    +0.000 C 
ATOM     27  C   UNL     1     111.886 124.850 136.733  0.00  0.00    +0.000 C 
ATOM     28  C   UNL     1     113.506 125.113 136.901  0.00  0.00    +0.000 C 
ATOM     29  C   UNL     1     112.181 125.620 136.727  0.00  0.00    +0.000 C 
BRANCH  28  31
ATOM     30  O   UNL     1     114.701 125.777 136.486  0.00  0.00    +0.000 OA
ATOM     31  C   UNL     1     114.316 125.245 136.985  0.00  0.00    +0.000 C 
ENDBRANCH  28  31
ENDBRANCH  20  29
ENDBRANCH   4  20
BRANCH   5  32
ATOM     32  O   UNL     1     111.436 130.056 139.312  0.00  0.00    +0.000 OA
BRANCH  32  41
ATOM     33  O   UNL     1     112.830 130.023 139.625  0.00  0.00    +0.000 OA
ATOM     34  O   UNL     1     112.313 130.569 141.983  0.00  0.00    +0.000 OA
ATOM     35  O   UNL     1     113.879 130.354 141.510  0.00  0.00    +0.000 OA
ATOM     36  O   UNL     1     111.091 130.420 140.884  0.00  0.00    +0.000 OA
ATOM     37  C   UNL     1     112.485 130.387 141.197  0.00  0.00    +0.000 C 
ATOM     38  C   UNL     1     113.268 130.279 140.960  0.00  0.00    +0.000 C 
ATOM     39  C   UNL     1     111.874 130.312 140.647  0.00  0.00    +0.000 C 
ATOM     40  C   UNL     1     113.440 130.097 140.174  0.00  0.00    +0.000 C 
ATOM     41  C   UNL     1     112.046 130.130 139.861  0.00  0.00    +0.000 C 
BRANCH  40  43
ATOM     42  O   UNL     1     114.554 130.484 139.367  0.00  0.00    +0.000 OA
ATOM     43  C   UNL     1     114.223 129.990 139.938  0.00  0.00    +0.000 C 
ENDBRANCH  40  43
ENDBRANCH  32  41
ENDBRANCH   5  32
BRANCH   6  44
ATOM     44  C   UNL     1     111.520 127.880 136.185  0.00  0.00    +0.000 C 
BRANCH  44  45
ATOM     45  C   UNL     1     110.795 127.866 135.792  0.00  0.00    +0.000 C 
ATOM     46  C   UNL     1     110.748 128.110 135.006  0.00  0.00    +0.000 C 
ATOM     47  C   UNL     1     110.023 128.097 134.612  0.00  0.00    +0.000 C 
ATOM     48  C   UNL     1     111.426 128.368 134.612  0.00  0.00    +0.000 C 
ENDBRANCH  44  45
ENDBRANCH   6  44
TORSDOF 9
ENDMDL
MODEL 9
REMARK VINA RESULT:      -9.4      2.376      4.840
REMARK  Name = 44258787
REMARK  9 active torsions:
REMARK  status: ('A' for Active; 'I' for Inactive)
REMARK    1  A    between atoms: O_3  and  C_25
REMARK    2  A    between atoms: O_3  and  C_29
REMARK    3  A    between atoms: O_4  and  C_26
REMARK    4  A    between atoms: O_4  and  C_30
REMARK    5  A    between atoms: C_23  and  C_27
REMARK    6  A    between atoms: C_24  and  C_28
REMARK    7  A    between atoms: C_31  and  C_38
REMARK    8  A    between atoms: C_35  and  C_39
REMARK    9  A    between atoms: C_38  and  C_40
REMARK                            x       y       z     vdW  Elec       q    Type
REMARK                         _______ _______ _______ _____ _____    ______ ____
ROOT
ATOM      1  O   UNL     1     111.820 128.513 138.404  0.00  0.00    +0.000 OA
ATOM      2  O   UNL     1     109.106 127.889 137.630  0.00  0.00    +0.000 OA
ATOM      3  O   UNL     1     109.799 127.099 138.618  0.00  0.00    +0.000 OA
ATOM      4  C   UNL     1     110.476 129.517 136.928  0.00  0.00    +0.000 A 
ATOM      5  C   UNL     1     111.141 127.406 139.002  0.00  0.00    +0.000 A 
ATOM      6  C   UNL     1     111.168 129.341 137.405  0.00  0.00    +0.000 A 
ATOM      7  C   UNL     1     111.151 128.676 137.949  0.00  0.00    +0.000 A 
ATOM      8  C   UNL     1     110.478 128.206 138.020  0.00  0.00    +0.000 A 
ATOM      9  C   UNL     1     110.473 127.570 138.547  0.00  0.00    +0.000 A 
ATOM     10  C   UNL     1     111.815 127.877 138.930  0.00  0.00    +0.000 A 
ATOM     11  C   UNL     1     109.773 129.026 137.002  0.00  0.00    +0.000 A 
ATOM     12  C   UNL     1     109.775 128.366 137.552  0.00  0.00    +0.000 A 
ENDROOT
BRANCH  10  14
ATOM     13  O   UNL     1     114.486 127.220 140.751  0.00  0.00    +0.000 OA
ATOM     14  C   UNL     1     112.483 127.713 139.385  0.00  0.00    +0.000 A 
ATOM     15  C   UNL     1     112.953 127.059 139.206  0.00  0.00    +0.000 A 
ATOM     16  C   UNL     1     112.680 128.202 140.020  0.00  0.00    +0.000 A 
ATOM     17  C   UNL     1     113.621 126.895 139.662  0.00  0.00    +0.000 A 
ATOM     18  C   UNL     1     113.348 128.038 140.475  0.00  0.00    +0.000 A 
ATOM     19  C   UNL     1     113.819 127.384 140.296  0.00  0.00    +0.000 A 
ENDBRANCH  10  14
BRANCH   4  20
ATOM     20  O   UNL     1     110.483 130.153 136.403  0.00  0.00    +0.000 OA
BRANCH  20  29
ATOM     21  O   UNL     1     109.477 131.006 136.953  0.00  0.00    +0.000 OA
ATOM     22  O   UNL     1     108.440 131.224 134.716  0.00  0.00    +0.000 OA
ATOM     23  O   UNL     1     107.779 132.004 136.011  0.00  0.00    +0.000 OA
ATOM     24  O   UNL     1     109.792 130.299 134.911  0.00  0.00    +0.000 OA
ATOM     25  C   UNL     1     108.786 131.151 135.462  0.00  0.00    +0.000 C 
ATOM     26  C   UNL     1     108.455 131.541 136.109  0.00  0.00    +0.000 C 
ATOM     27  C   UNL     1     109.462 130.689 135.559  0.00  0.00    +0.000 C 
ATOM     28  C   UNL     1     108.800 131.468 136.854  0.00  0.00    +0.000 C 
ATOM     29  C   UNL     1     109.807 130.616 136.305  0.00  0.00    +0.000 C 
BRANCH  28  31
ATOM     30  O   UNL     1     108.953 132.288 138.015  0.00  0.00    +0.000 OA
ATOM     31  C   UNL     1     108.470 131.858 137.502  0.00  0.00    +0.000 C 
ENDBRANCH  28  31
ENDBRANCH  20  29
ENDBRANCH   4  20
BRANCH   5  32
ATOM     32  O   UNL     1     111.136 126.770 139.528  0.00  0.00    +0.000 OA
BRANCH  32  41
ATOM     33  O   UNL     1     110.325 127.413 140.513  0.00  0.00    +0.000 OA
ATOM     34  O   UNL     1     109.312 125.233 141.103  0.00  0.00    +0.000 OA
ATOM     35  O   UNL     1     108.838 126.603 141.891  0.00  0.00    +0.000 OA
ATOM     36  O   UNL     1     110.460 125.317 139.921  0.00  0.00    +0.000 OA
ATOM     37  C   UNL     1     109.649 125.960 140.906  0.00  0.00    +0.000 C 
ATOM     38  C   UNL     1     109.413 126.645 141.300  0.00  0.00    +0.000 C 
ATOM     39  C   UNL     1     110.224 126.002 140.315  0.00  0.00    +0.000 C 
ATOM     40  C   UNL     1     109.751 127.372 141.103  0.00  0.00    +0.000 C 
ATOM     41  C   UNL     1     110.562 126.729 140.118  0.00  0.00    +0.000 C 
BRANCH  40  43
ATOM     42  O   UNL     1     110.058 128.485 141.946  0.00  0.00    +0.000 OA
ATOM     43  C   UNL     1     109.514 128.057 141.498  0.00  0.00    +0.000 C 
ENDBRANCH  40  43
ENDBRANCH  32  41
ENDBRANCH   5  32
BRANCH   6  44
ATOM     44  C   UNL     1     111.847 129.807 137.339  0.00  0.00    +0.000 C 
BRANCH  44  45
ATOM     45  C   UNL     1     112.407 129.640 136.758  0.00  0.00    +0.000 C 
ATOM     46  C   UNL     1     113.094 130.094 136.705  0.00  0.00    +0.000 C 
ATOM     47  C   UNL     1     113.655 129.928 136.124  0.00  0.00    +0.000 C 
ATOM     48  C   UNL     1     113.220 130.715 137.234  0.00  0.00    +0.000 C 
ENDBRANCH  44  45
ENDBRANCH   6  44
TORSDOF 9
ENDMDL
MODEL 10
REMARK VINA RESULT:      -9.4      2.144      4.132
REMARK  Name = 44258787
REMARK  9 active torsions:
REMARK  status: ('A' for Active; 'I' for Inactive)
REMARK    1  A    between atoms: O_3  and  C_25
REMARK    2  A    between atoms: O_3  and  C_29
REMARK    3  A    between atoms: O_4  and  C_26
REMARK    4  A    between atoms: O_4  and  C_30
REMARK    5  A    between atoms: C_23  and  C_27
REMARK    6  A    between atoms: C_24  and  C_28
REMARK    7  A    between atoms: C_31  and  C_38
REMARK    8  A    between atoms: C_35  and  C_39
REMARK    9  A    between atoms: C_38  and  C_40
REMARK                            x       y       z     vdW  Elec       q    Type
REMARK                         _______ _______ _______ _____ _____    ______ ____
ROOT
ATOM      1  O   UNL     1     112.092 128.178 137.292  0.00  0.00    +0.000 OA
ATOM      2  O   UNL     1     109.222 128.025 137.592  0.00  0.00    +0.000 OA
ATOM      3  O   UNL     1     109.823 128.892 136.608  0.00  0.00    +0.000 OA
ATOM      4  C   UNL     1     110.854 126.958 138.696  0.00  0.00    +0.000 A 
ATOM      5  C   UNL     1     111.242 128.969 136.458  0.00  0.00    +0.000 A 
ATOM      6  C   UNL     1     111.539 127.289 138.298  0.00  0.00    +0.000 A 
ATOM      7  C   UNL     1     111.429 127.864 137.669  0.00  0.00    +0.000 A 
ATOM      8  C   UNL     1     110.673 128.101 137.442  0.00  0.00    +0.000 A 
ATOM      9  C   UNL     1     110.580 128.654 136.836  0.00  0.00    +0.000 A 
ATOM     10  C   UNL     1     111.999 128.731 136.687  0.00  0.00    +0.000 A 
ATOM     11  C   UNL     1     110.065 127.206 138.458  0.00  0.00    +0.000 A 
ATOM     12  C   UNL     1     109.975 127.781 137.827  0.00  0.00    +0.000 A 
ENDROOT
BRANCH  10  14
ATOM     13  O   UNL     1     114.648 129.991 135.177  0.00  0.00    +0.000 OA
ATOM     14  C   UNL     1     112.661 129.045 136.309  0.00  0.00    +0.000 A 
ATOM     15  C   UNL     1     112.853 128.806 135.543  0.00  0.00    +0.000 A 
ATOM     16  C   UNL     1     113.132 129.601 136.698  0.00  0.00    +0.000 A 
ATOM     17  C   UNL     1     113.515 129.121 135.166  0.00  0.00    +0.000 A 
ATOM     18  C   UNL     1     113.794 129.916 136.320  0.00  0.00    +0.000 A 
ATOM     19  C   UNL     1     113.986 129.676 135.554  0.00  0.00    +0.000 A 
ENDBRANCH  10  14
BRANCH   4  20
ATOM     20  O   UNL     1     110.951 126.405 139.301  0.00  0.00    +0.000 OA
BRANCH  20  29
ATOM     21  O   UNL     1     110.448 127.139 140.419  0.00  0.00    +0.000 OA
ATOM     22  O   UNL     1     109.111 125.174 141.108  0.00  0.00    +0.000 OA
ATOM     23  O   UNL     1     109.053 126.562 141.997  0.00  0.00    +0.000 OA
ATOM     24  O   UNL     1     110.060 125.095 139.760  0.00  0.00    +0.000 OA
ATOM     25  C   UNL     1     109.556 125.829 140.878  0.00  0.00    +0.000 C 
ATOM     26  C   UNL     1     109.528 126.524 141.323  0.00  0.00    +0.000 C 
ATOM     27  C   UNL     1     110.031 125.789 140.205  0.00  0.00    +0.000 C 
ATOM     28  C   UNL     1     109.973 127.178 141.093  0.00  0.00    +0.000 C 
ATOM     29  C   UNL     1     110.476 126.445 139.975  0.00  0.00    +0.000 C 
BRANCH  28  31
ATOM     30  O   UNL     1     110.638 128.291 141.695  0.00  0.00    +0.000 OA
ATOM     31  C   UNL     1     109.944 127.873 141.537  0.00  0.00    +0.000 C 
ENDBRANCH  28  31
ENDBRANCH  20  29
ENDBRANCH   4  20
BRANCH   5  32
ATOM     32  O   UNL     1     111.148 129.521 135.853  0.00  0.00    +0.000 OA
BRANCH  32  41
ATOM     33  O   UNL     1     110.810 130.616 136.707  0.00  0.00    +0.000 OA
ATOM     34  O   UNL     1     109.286 131.501 134.969  0.00  0.00    +0.000 OA
ATOM     35  O   UNL     1     109.456 132.301 136.403  0.00  0.00    +0.000 OA
ATOM     36  O   UNL     1     110.132 130.111 134.695  0.00  0.00    +0.000 OA
ATOM     37  C   UNL     1     109.794 131.206 135.549  0.00  0.00    +0.000 C 
ATOM     38  C   UNL     1     109.880 131.605 136.265  0.00  0.00    +0.000 C 
ATOM     39  C   UNL     1     110.217 130.511 135.411  0.00  0.00    +0.000 C 
ATOM     40  C   UNL     1     110.388 131.310 136.844  0.00  0.00    +0.000 C 
ATOM     41  C   UNL     1     110.726 130.216 135.990  0.00  0.00    +0.000 C 
BRANCH  40  43
ATOM     42  O   UNL     1     111.214 131.984 137.796  0.00  0.00    +0.000 OA
ATOM     43  C   UNL     1     110.473 131.711 137.561  0.00  0.00    +0.000 C 
ENDBRANCH  40  43
ENDBRANCH  32  41
ENDBRANCH   5  32
BRANCH   6  44
ATOM     44  C   UNL     1     112.300 127.057 138.520  0.00  0.00    +0.000 C 
BRANCH  44  45
ATOM     45  C   UNL     1     112.652 126.402 138.162  0.00  0.00    +0.000 C 
ATOM     46  C   UNL     1     113.408 126.164 138.391  0.00  0.00    +0.000 C 
ATOM     47  C   UNL     1     113.761 125.510 138.033  0.00  0.00    +0.000 C 
ATOM     48  C   UNL     1     113.812 126.581 138.978  0.00  0.00    +0.000 C 
ENDBRANCH  44  45
ENDBRANCH   6  44
TORSDOF 9
ENDMDL
