MODEL 1
REMARK VINA RESULT:      -8.5      0.000      0.000
REMARK  Name = 11756418
REMARK  8 active torsions:
REMARK  status: ('A' for Active; 'I' for Inactive)
REMARK    1  A    between atoms: O_2  and  C_17
REMARK    2  A    between atoms: O_2  and  C_19
REMARK    3  A    between atoms: O_8  and  C_23
REMARK    4  A    between atoms: O_10  and  C_31
REMARK    5  A    between atoms: O_11  and  C_32
REMARK    6  A    between atoms: O_12  and  C_33
REMARK    7  A    between atoms: C_16  and  C_18
REMARK    8  A    between atoms: C_26  and  C_28
REMARK                            x       y       z     vdW  Elec       q    Type
REMARK                         _______ _______ _______ _____ _____    ______ ____
ROOT
ATOM      1  O   UNL     1     113.003 127.542 136.288  0.00  0.00    +0.000 OA
ATOM      2  O   UNL     1     111.498 128.636 137.919  0.00  0.00    +0.000 OA
ATOM      3  C   UNL     1     112.465 129.585 136.966  0.00  0.00    +0.000 A 
ATOM      4  C   UNL     1     112.488 128.729 136.893  0.00  0.00    +0.000 A 
ATOM      5  C   UNL     1     112.970 130.067 136.467  0.00  0.00    +0.000 A 
ATOM      6  C   UNL     1     112.990 128.365 136.349  0.00  0.00    +0.000 A 
ATOM      7  C   UNL     1     113.493 129.687 135.900  0.00  0.00    +0.000 A 
ATOM      8  C   UNL     1     112.000 128.272 137.375  0.00  0.00    +0.000 A 
ATOM      9  C   UNL     1     113.503 128.830 135.841  0.00  0.00    +0.000 A 
ATOM     10  C   UNL     1     112.516 127.084 136.770  0.00  0.00    +0.000 A 
ATOM     11  C   UNL     1     112.014 127.448 137.314  0.00  0.00    +0.000 A 
ENDROOT
BRANCH  10  12
ATOM     12  C   UNL     1     112.529 126.262 136.709  0.00  0.00    +0.000 A 
ATOM     13  C   UNL     1     113.163 125.835 137.023  0.00  0.00    +0.000 A 
ATOM     14  C   UNL     1     111.910 125.865 136.335  0.00  0.00    +0.000 A 
ATOM     15  C   UNL     1     111.924 125.043 136.274  0.00  0.00    +0.000 A 
ATOM     16  C   UNL     1     113.175 125.012 136.961  0.00  0.00    +0.000 A 
ATOM     17  C   UNL     1     112.557 124.616 136.587  0.00  0.00    +0.000 A 
BRANCH  15  18
ATOM     18  O   UNL     1     111.305 124.646 135.899  0.00  0.00    +0.000 OA
ATOM     19  C   UNL     1     110.760 125.068 135.445  0.00  0.00    +0.000 C 
ENDBRANCH  15  18
BRANCH  16  20
ATOM     20  O   UNL     1     113.809 124.585 137.275  0.00  0.00    +0.000 OA
ATOM     21  C   UNL     1     114.532 124.959 137.407  0.00  0.00    +0.000 C 
ENDBRANCH  16  20
BRANCH  17  22
ATOM     22  O   UNL     1     112.570 123.793 136.526  0.00  0.00    +0.000 OA
ATOM     23  C   UNL     1     112.182 123.333 137.089  0.00  0.00    +0.000 C 
ENDBRANCH  17  22
ENDBRANCH  10  12
BRANCH   7  24
ATOM     24  O   UNL     1     113.982 130.142 135.416  0.00  0.00    +0.000 OA
ATOM     25  C   UNL     1     114.761 130.293 135.642  0.00  0.00    +0.000 C 
ENDBRANCH   7  24
BRANCH   3  26
ATOM     26  O   UNL     1     111.960 129.942 137.513  0.00  0.00    +0.000 OA
BRANCH  26  35
ATOM     27  O   UNL     1     110.965 130.464 136.630  0.00  0.00    +0.000 OA
ATOM     28  O   UNL     1     110.995 132.608 137.866  0.00  0.00    +0.000 OA
ATOM     29  O   UNL     1     109.990 132.416 136.572  0.00  0.00    +0.000 OA
ATOM     30  O   UNL     1     111.980 131.371 138.336  0.00  0.00    +0.000 OA
ATOM     31  C   UNL     1     110.985 131.894 137.454  0.00  0.00    +0.000 C 
ATOM     32  C   UNL     1     110.483 131.798 136.807  0.00  0.00    +0.000 C 
ATOM     33  C   UNL     1     111.478 131.275 137.690  0.00  0.00    +0.000 C 
ATOM     34  C   UNL     1     110.472 131.083 136.395  0.00  0.00    +0.000 C 
ATOM     35  C   UNL     1     111.468 130.560 137.278  0.00  0.00    +0.000 C 
BRANCH  34  37
ATOM     36  O   UNL     1     109.570 130.274 135.639  0.00  0.00    +0.000 OA
ATOM     37  C   UNL     1     109.970 130.987 135.748  0.00  0.00    +0.000 C 
ENDBRANCH  34  37
ENDBRANCH  26  35
ENDBRANCH   3  26
TORSDOF 8
ENDMDL
MODEL 2
REMARK VINA RESULT:      -8.5      0.023      1.280
REMARK  Name = 11756418
REMARK  8 active torsions:
REMARK  status: ('A' for Active; 'I' for Inactive)
REMARK    1  A    between atoms: O_2  and  C_17
REMARK    2  A    between atoms: O_2  and  C_19
REMARK    3  A    between atoms: O_8  and  C_23
REMARK    4  A    between atoms: O_10  and  C_31
REMARK    5  A    between atoms: O_11  and  C_32
REMARK    6  A    between atoms: O_12  and  C_33
REMARK    7  A    between atoms: C_16  and  C_18
REMARK    8  A    between atoms: C_26  and  C_28
REMARK                            x       y       z     vdW  Elec       q    Type
REMARK                         _______ _______ _______ _____ _____    ______ ____
ROOT
ATOM      1  O   UNL     1     112.986 127.553 136.277  0.00  0.00    +0.000 OA
ATOM      2  O   UNL     1     111.489 128.644 137.917  0.00  0.00    +0.000 OA
ATOM      3  C   UNL     1     112.447 129.595 136.957  0.00  0.00    +0.000 A 
ATOM      4  C   UNL     1     112.471 128.739 136.885  0.00  0.00    +0.000 A 
ATOM      5  C   UNL     1     112.948 130.078 136.455  0.00  0.00    +0.000 A 
ATOM      6  C   UNL     1     112.971 128.375 136.338  0.00  0.00    +0.000 A 
ATOM      7  C   UNL     1     113.468 129.698 135.884  0.00  0.00    +0.000 A 
ATOM      8  C   UNL     1     111.988 128.280 137.370  0.00  0.00    +0.000 A 
ATOM      9  C   UNL     1     113.480 128.841 135.826  0.00  0.00    +0.000 A 
ATOM     10  C   UNL     1     112.502 127.093 136.762  0.00  0.00    +0.000 A 
ATOM     11  C   UNL     1     112.003 127.457 137.309  0.00  0.00    +0.000 A 
ENDROOT
BRANCH  10  12
ATOM     12  C   UNL     1     112.518 126.271 136.701  0.00  0.00    +0.000 A 
ATOM     13  C   UNL     1     111.901 125.874 136.323  0.00  0.00    +0.000 A 
ATOM     14  C   UNL     1     113.149 125.845 137.018  0.00  0.00    +0.000 A 
ATOM     15  C   UNL     1     113.165 125.023 136.957  0.00  0.00    +0.000 A 
ATOM     16  C   UNL     1     111.916 125.051 136.263  0.00  0.00    +0.000 A 
ATOM     17  C   UNL     1     112.548 124.626 136.579  0.00  0.00    +0.000 A 
BRANCH  15  18
ATOM     18  O   UNL     1     113.797 124.597 137.273  0.00  0.00    +0.000 OA
ATOM     19  C   UNL     1     114.528 124.964 137.380  0.00  0.00    +0.000 C 
ENDBRANCH  15  18
BRANCH  16  20
ATOM     20  O   UNL     1     111.299 124.654 135.885  0.00  0.00    +0.000 OA
ATOM     21  C   UNL     1     110.759 125.074 135.425  0.00  0.00    +0.000 C 
ENDBRANCH  16  20
BRANCH  17  22
ATOM     22  O   UNL     1     112.564 123.803 136.518  0.00  0.00    +0.000 OA
ATOM     23  C   UNL     1     112.176 123.342 137.081  0.00  0.00    +0.000 C 
ENDBRANCH  17  22
ENDBRANCH  10  12
BRANCH   7  24
ATOM     24  O   UNL     1     113.953 130.155 135.398  0.00  0.00    +0.000 OA
ATOM     25  C   UNL     1     114.722 130.337 135.635  0.00  0.00    +0.000 C 
ENDBRANCH   7  24
BRANCH   3  26
ATOM     26  O   UNL     1     111.945 129.950 137.507  0.00  0.00    +0.000 OA
BRANCH  26  35
ATOM     27  O   UNL     1     110.945 130.476 136.632  0.00  0.00    +0.000 OA
ATOM     28  O   UNL     1     110.990 132.619 137.870  0.00  0.00    +0.000 OA
ATOM     29  O   UNL     1     109.975 132.431 136.582  0.00  0.00    +0.000 OA
ATOM     30  O   UNL     1     111.975 131.379 138.332  0.00  0.00    +0.000 OA
ATOM     31  C   UNL     1     110.975 131.905 137.457  0.00  0.00    +0.000 C 
ATOM     32  C   UNL     1     110.468 131.811 136.814  0.00  0.00    +0.000 C 
ATOM     33  C   UNL     1     111.468 131.285 137.689  0.00  0.00    +0.000 C 
ATOM     34  C   UNL     1     110.453 131.097 136.401  0.00  0.00    +0.000 C 
ATOM     35  C   UNL     1     111.453 130.570 137.276  0.00  0.00    +0.000 C 
BRANCH  34  37
ATOM     36  O   UNL     1     109.538 130.292 135.654  0.00  0.00    +0.000 OA
ATOM     37  C   UNL     1     109.945 131.002 135.757  0.00  0.00    +0.000 C 
ENDBRANCH  34  37
ENDBRANCH  26  35
ENDBRANCH   3  26
TORSDOF 8
ENDMDL
MODEL 3
REMARK VINA RESULT:      -8.4      1.225      1.339
REMARK  Name = 11756418
REMARK  8 active torsions:
REMARK  status: ('A' for Active; 'I' for Inactive)
REMARK    1  A    between atoms: O_2  and  C_17
REMARK    2  A    between atoms: O_2  and  C_19
REMARK    3  A    between atoms: O_8  and  C_23
REMARK    4  A    between atoms: O_10  and  C_31
REMARK    5  A    between atoms: O_11  and  C_32
REMARK    6  A    between atoms: O_12  and  C_33
REMARK    7  A    between atoms: C_16  and  C_18
REMARK    8  A    between atoms: C_26  and  C_28
REMARK                            x       y       z     vdW  Elec       q    Type
REMARK                         _______ _______ _______ _____ _____    ______ ____
ROOT
ATOM      1  O   UNL     1     112.464 127.759 136.929  0.00  0.00    +0.000 OA
ATOM      2  O   UNL     1     111.165 128.272 138.971  0.00  0.00    +0.000 OA
ATOM      3  C   UNL     1     111.803 129.526 138.096  0.00  0.00    +0.000 A 
ATOM      4  C   UNL     1     111.923 128.713 137.843  0.00  0.00    +0.000 A 
ATOM      5  C   UNL     1     112.139 130.168 137.635  0.00  0.00    +0.000 A 
ATOM      6  C   UNL     1     112.356 128.542 137.162  0.00  0.00    +0.000 A 
ATOM      7  C   UNL     1     112.590 129.989 136.925  0.00  0.00    +0.000 A 
ATOM      8  C   UNL     1     111.599 128.101 138.290  0.00  0.00    +0.000 A 
ATOM      9  C   UNL     1     112.699 129.171 136.687  0.00  0.00    +0.000 A 
ATOM     10  C   UNL     1     112.140 127.146 137.376  0.00  0.00    +0.000 A 
ATOM     11  C   UNL     1     111.707 127.317 138.057  0.00  0.00    +0.000 A 
ENDROOT
BRANCH  10  12
ATOM     12  C   UNL     1     112.248 126.362 137.143  0.00  0.00    +0.000 A 
ATOM     13  C   UNL     1     112.918 125.947 137.388  0.00  0.00    +0.000 A 
ATOM     14  C   UNL     1     111.687 125.993 136.664  0.00  0.00    +0.000 A 
ATOM     15  C   UNL     1     111.795 125.209 136.431  0.00  0.00    +0.000 A 
ATOM     16  C   UNL     1     113.026 125.163 137.154  0.00  0.00    +0.000 A 
ATOM     17  C   UNL     1     112.465 124.794 136.676  0.00  0.00    +0.000 A 
BRANCH  15  18
ATOM     18  O   UNL     1     111.234 124.839 135.952  0.00  0.00    +0.000 OA
ATOM     19  C   UNL     1     110.715 125.294 135.499  0.00  0.00    +0.000 C 
ENDBRANCH  15  18
BRANCH  16  20
ATOM     20  O   UNL     1     113.696 124.748 137.400  0.00  0.00    +0.000 OA
ATOM     21  C   UNL     1     114.402 125.152 137.541  0.00  0.00    +0.000 C 
ENDBRANCH  16  20
BRANCH  17  22
ATOM     22  O   UNL     1     112.573 124.010 136.442  0.00  0.00    +0.000 OA
ATOM     23  C   UNL     1     112.254 123.399 136.895  0.00  0.00    +0.000 C 
ENDBRANCH  17  22
ENDBRANCH  10  12
BRANCH   7  24
ATOM     24  O   UNL     1     112.916 130.599 136.476  0.00  0.00    +0.000 OA
ATOM     25  C   UNL     1     113.688 130.850 136.619  0.00  0.00    +0.000 C 
ENDBRANCH   7  24
BRANCH   3  26
ATOM     26  O   UNL     1     111.369 129.688 138.778  0.00  0.00    +0.000 OA
BRANCH  26  35
ATOM     27  O   UNL     1     110.174 130.226 138.209  0.00  0.00    +0.000 OA
ATOM     28  O   UNL     1     110.233 132.086 139.841  0.00  0.00    +0.000 OA
ATOM     29  O   UNL     1     109.018 132.004 138.727  0.00  0.00    +0.000 OA
ATOM     30  O   UNL     1     111.408 130.928 139.867  0.00  0.00    +0.000 OA
ATOM     31  C   UNL     1     110.213 131.466 139.297  0.00  0.00    +0.000 C 
ATOM     32  C   UNL     1     109.606 131.425 138.741  0.00  0.00    +0.000 C 
ATOM     33  C   UNL     1     110.801 130.887 139.310  0.00  0.00    +0.000 C 
ATOM     34  C   UNL     1     109.587 130.806 138.196  0.00  0.00    +0.000 C 
ATOM     35  C   UNL     1     110.782 130.267 138.766  0.00  0.00    +0.000 C 
BRANCH  34  37
ATOM     36  O   UNL     1     108.614 130.042 137.481  0.00  0.00    +0.000 OA
ATOM     37  C   UNL     1     108.979 130.765 137.639  0.00  0.00    +0.000 C 
ENDBRANCH  34  37
ENDBRANCH  26  35
ENDBRANCH   3  26
TORSDOF 8
ENDMDL
MODEL 4
REMARK VINA RESULT:      -8.1      2.499      3.575
REMARK  Name = 11756418
REMARK  8 active torsions:
REMARK  status: ('A' for Active; 'I' for Inactive)
REMARK    1  A    between atoms: O_2  and  C_17
REMARK    2  A    between atoms: O_2  and  C_19
REMARK    3  A    between atoms: O_8  and  C_23
REMARK    4  A    between atoms: O_10  and  C_31
REMARK    5  A    between atoms: O_11  and  C_32
REMARK    6  A    between atoms: O_12  and  C_33
REMARK    7  A    between atoms: C_16  and  C_18
REMARK    8  A    between atoms: C_26  and  C_28
REMARK                            x       y       z     vdW  Elec       q    Type
REMARK                         _______ _______ _______ _____ _____    ______ ____
ROOT
ATOM      1  O   UNL     1     112.635 127.675 137.731  0.00  0.00    +0.000 OA
ATOM      2  O   UNL     1     112.734 127.753 140.202  0.00  0.00    +0.000 OA
ATOM      3  C   UNL     1     112.689 129.179 139.360  0.00  0.00    +0.000 A 
ATOM      4  C   UNL     1     112.678 128.428 138.944  0.00  0.00    +0.000 A 
ATOM      5  C   UNL     1     112.664 129.912 138.914  0.00  0.00    +0.000 A 
ATOM      6  C   UNL     1     112.644 128.402 138.120  0.00  0.00    +0.000 A 
ATOM      7  C   UNL     1     112.630 129.885 138.055  0.00  0.00    +0.000 A 
ATOM      8  C   UNL     1     112.701 127.727 139.378  0.00  0.00    +0.000 A 
ATOM      9  C   UNL     1     112.620 129.125 137.656  0.00  0.00    +0.000 A 
ATOM     10  C   UNL     1     112.658 126.974 138.165  0.00  0.00    +0.000 A 
ATOM     11  C   UNL     1     112.691 126.999 138.989  0.00  0.00    +0.000 A 
ENDROOT
BRANCH  10  12
ATOM     12  C   UNL     1     112.648 126.247 137.775  0.00  0.00    +0.000 A 
ATOM     13  C   UNL     1     111.952 125.977 137.422  0.00  0.00    +0.000 A 
ATOM     14  C   UNL     1     113.333 125.788 137.739  0.00  0.00    +0.000 A 
ATOM     15  C   UNL     1     113.323 125.061 137.350  0.00  0.00    +0.000 A 
ATOM     16  C   UNL     1     111.943 125.249 137.033  0.00  0.00    +0.000 A 
ATOM     17  C   UNL     1     112.628 124.792 136.997  0.00  0.00    +0.000 A 
BRANCH  15  18
ATOM     18  O   UNL     1     114.009 124.603 137.313  0.00  0.00    +0.000 OA
ATOM     19  C   UNL     1     114.749 124.968 137.311  0.00  0.00    +0.000 C 
ENDBRANCH  15  18
BRANCH  16  20
ATOM     20  O   UNL     1     111.248 124.979 136.680  0.00  0.00    +0.000 OA
ATOM     21  C   UNL     1     110.711 125.519 136.362  0.00  0.00    +0.000 C 
ENDBRANCH  16  20
BRANCH  17  22
ATOM     22  O   UNL     1     112.619 124.064 136.607  0.00  0.00    +0.000 OA
ATOM     23  C   UNL     1     112.375 123.386 137.009  0.00  0.00    +0.000 C 
ENDBRANCH  17  22
ENDBRANCH  10  12
BRANCH   7  24
ATOM     24  O   UNL     1     112.606 130.584 137.618  0.00  0.00    +0.000 OA
ATOM     25  C   UNL     1     113.252 130.802 137.153  0.00  0.00    +0.000 C 
ENDBRANCH   7  24
BRANCH   3  26
ATOM     26  O   UNL     1     112.722 129.196 140.185  0.00  0.00    +0.000 OA
BRANCH  26  35
ATOM     27  O   UNL     1     113.980 129.846 140.379  0.00  0.00    +0.000 OA
ATOM     28  O   UNL     1     112.960 131.309 142.094  0.00  0.00    +0.000 OA
ATOM     29  O   UNL     1     114.558 131.471 141.716  0.00  0.00    +0.000 OA
ATOM     30  O   UNL     1     112.042 130.172 141.328  0.00  0.00    +0.000 OA
ATOM     31  C   UNL     1     113.300 130.821 141.522  0.00  0.00    +0.000 C 
ATOM     32  C   UNL     1     114.098 130.902 141.334  0.00  0.00    +0.000 C 
ATOM     33  C   UNL     1     112.840 130.253 141.140  0.00  0.00    +0.000 C 
ATOM     34  C   UNL     1     114.438 130.414 140.762  0.00  0.00    +0.000 C 
ATOM     35  C   UNL     1     113.180 129.765 140.568  0.00  0.00    +0.000 C 
BRANCH  34  37
ATOM     36  O   UNL     1     115.708 129.824 140.474  0.00  0.00    +0.000 OA
ATOM     37  C   UNL     1     115.238 130.495 140.573  0.00  0.00    +0.000 C 
ENDBRANCH  34  37
ENDBRANCH  26  35
ENDBRANCH   3  26
TORSDOF 8
ENDMDL
MODEL 5
REMARK VINA RESULT:      -8.1      2.829      6.029
REMARK  Name = 11756418
REMARK  8 active torsions:
REMARK  status: ('A' for Active; 'I' for Inactive)
REMARK    1  A    between atoms: O_2  and  C_17
REMARK    2  A    between atoms: O_2  and  C_19
REMARK    3  A    between atoms: O_8  and  C_23
REMARK    4  A    between atoms: O_10  and  C_31
REMARK    5  A    between atoms: O_11  and  C_32
REMARK    6  A    between atoms: O_12  and  C_33
REMARK    7  A    between atoms: C_16  and  C_18
REMARK    8  A    between atoms: C_26  and  C_28
REMARK                            x       y       z     vdW  Elec       q    Type
REMARK                         _______ _______ _______ _____ _____    ______ ____
ROOT
ATOM      1  O   UNL     1     112.756 128.911 139.214  0.00  0.00    +0.000 OA
ATOM      2  O   UNL     1     113.826 126.692 139.438  0.00  0.00    +0.000 OA
ATOM      3  C   UNL     1     113.250 127.153 137.955  0.00  0.00    +0.000 A 
ATOM      4  C   UNL     1     113.177 127.677 138.632  0.00  0.00    +0.000 A 
ATOM      5  C   UNL     1     112.948 127.402 137.191  0.00  0.00    +0.000 A 
ATOM      6  C   UNL     1     112.820 128.417 138.557  0.00  0.00    +0.000 A 
ATOM      7  C   UNL     1     112.576 128.174 137.113  0.00  0.00    +0.000 A 
ATOM      8  C   UNL     1     113.469 127.432 139.363  0.00  0.00    +0.000 A 
ATOM      9  C   UNL     1     112.512 128.684 137.801  0.00  0.00    +0.000 A 
ATOM     10  C   UNL     1     113.048 128.667 139.946  0.00  0.00    +0.000 A 
ATOM     11  C   UNL     1     113.405 127.927 140.021  0.00  0.00    +0.000 A 
ENDROOT
BRANCH  10  12
ATOM     12  C   UNL     1     112.983 129.161 140.603  0.00  0.00    +0.000 A 
ATOM     13  C   UNL     1     112.419 129.004 141.184  0.00  0.00    +0.000 A 
ATOM     14  C   UNL     1     113.482 129.814 140.679  0.00  0.00    +0.000 A 
ATOM     15  C   UNL     1     113.418 130.308 141.336  0.00  0.00    +0.000 A 
ATOM     16  C   UNL     1     112.355 129.499 141.841  0.00  0.00    +0.000 A 
ATOM     17  C   UNL     1     112.853 130.150 141.917  0.00  0.00    +0.000 A 
BRANCH  15  18
ATOM     18  O   UNL     1     113.917 130.960 141.412  0.00  0.00    +0.000 OA
ATOM     19  C   UNL     1     114.662 130.953 141.058  0.00  0.00    +0.000 C 
ENDBRANCH  15  18
BRANCH  16  20
ATOM     20  O   UNL     1     111.790 129.341 142.422  0.00  0.00    +0.000 OA
ATOM     21  C   UNL     1     111.535 128.567 142.550  0.00  0.00    +0.000 C 
ENDBRANCH  16  20
BRANCH  17  22
ATOM     22  O   UNL     1     112.789 130.646 142.574  0.00  0.00    +0.000 OA
ATOM     23  C   UNL     1     112.255 131.273 142.566  0.00  0.00    +0.000 C 
ENDBRANCH  17  22
ENDBRANCH  10  12
BRANCH   7  24
ATOM     24  O   UNL     1     112.283 128.422 136.383  0.00  0.00    +0.000 OA
ATOM     25  C   UNL     1     112.782 128.796 135.843  0.00  0.00    +0.000 C 
ENDBRANCH   7  24
BRANCH   3  26
ATOM     26  O   UNL     1     113.609 126.415 138.038  0.00  0.00    +0.000 OA
BRANCH  26  35
ATOM     27  O   UNL     1     112.485 125.548 137.867  0.00  0.00    +0.000 OA
ATOM     28  O   UNL     1     113.802 124.149 136.307  0.00  0.00    +0.000 OA
ATOM     29  O   UNL     1     112.240 123.749 136.656  0.00  0.00    +0.000 OA
ATOM     30  O   UNL     1     114.487 125.482 136.998  0.00  0.00    +0.000 OA
ATOM     31  C   UNL     1     113.363 124.615 136.827  0.00  0.00    +0.000 C 
ATOM     32  C   UNL     1     112.583 124.415 137.001  0.00  0.00    +0.000 C 
ATOM     33  C   UNL     1     113.706 125.282 137.173  0.00  0.00    +0.000 C 
ATOM     34  C   UNL     1     112.144 124.882 137.521  0.00  0.00    +0.000 C 
ATOM     35  C   UNL     1     113.267 125.748 137.693  0.00  0.00    +0.000 C 
BRANCH  34  37
ATOM     36  O   UNL     1     111.064 124.809 138.454  0.00  0.00    +0.000 OA
ATOM     37  C   UNL     1     111.362 124.682 137.696  0.00  0.00    +0.000 C 
ENDBRANCH  34  37
ENDBRANCH  26  35
ENDBRANCH   3  26
TORSDOF 8
ENDMDL
MODEL 6
REMARK VINA RESULT:      -7.8      1.250      2.209
REMARK  Name = 11756418
REMARK  8 active torsions:
REMARK  status: ('A' for Active; 'I' for Inactive)
REMARK    1  A    between atoms: O_2  and  C_17
REMARK    2  A    between atoms: O_2  and  C_19
REMARK    3  A    between atoms: O_8  and  C_23
REMARK    4  A    between atoms: O_10  and  C_31
REMARK    5  A    between atoms: O_11  and  C_32
REMARK    6  A    between atoms: O_12  and  C_33
REMARK    7  A    between atoms: C_16  and  C_18
REMARK    8  A    between atoms: C_26  and  C_28
REMARK                            x       y       z     vdW  Elec       q    Type
REMARK                         _______ _______ _______ _____ _____    ______ ____
ROOT
ATOM      1  O   UNL     1     110.825 127.558 137.652  0.00  0.00    +0.000 OA
ATOM      2  O   UNL     1     112.023 129.433 136.570  0.00  0.00    +0.000 OA
ATOM      3  C   UNL     1     110.791 129.776 137.623  0.00  0.00    +0.000 A 
ATOM      4  C   UNL     1     111.008 128.961 137.457  0.00  0.00    +0.000 A 
ATOM      5  C   UNL     1     110.151 129.942 138.170  0.00  0.00    +0.000 A 
ATOM      6  C   UNL     1     110.609 128.336 137.818  0.00  0.00    +0.000 A 
ATOM      7  C   UNL     1     109.735 129.290 138.546  0.00  0.00    +0.000 A 
ATOM      8  C   UNL     1     111.624 128.808 136.931  0.00  0.00    +0.000 A 
ATOM      9  C   UNL     1     109.965 128.482 138.369  0.00  0.00    +0.000 A 
ATOM     10  C   UNL     1     111.441 127.404 137.125  0.00  0.00    +0.000 A 
ATOM     11  C   UNL     1     111.841 128.030 136.764  0.00  0.00    +0.000 A 
ENDROOT
BRANCH  10  12
ATOM     12  C   UNL     1     111.658 126.626 136.958  0.00  0.00    +0.000 A 
ATOM     13  C   UNL     1     112.303 126.286 137.345  0.00  0.00    +0.000 A 
ATOM     14  C   UNL     1     111.230 126.188 136.406  0.00  0.00    +0.000 A 
ATOM     15  C   UNL     1     111.447 125.410 136.239  0.00  0.00    +0.000 A 
ATOM     16  C   UNL     1     112.519 125.507 137.178  0.00  0.00    +0.000 A 
ATOM     17  C   UNL     1     112.092 125.069 136.626  0.00  0.00    +0.000 A 
BRANCH  15  18
ATOM     18  O   UNL     1     111.019 124.971 135.687  0.00  0.00    +0.000 OA
ATOM     19  C   UNL     1     110.481 125.349 135.188  0.00  0.00    +0.000 C 
ENDBRANCH  15  18
BRANCH  16  20
ATOM     20  O   UNL     1     113.164 125.167 137.564  0.00  0.00    +0.000 OA
ATOM     21  C   UNL     1     113.737 125.648 137.912  0.00  0.00    +0.000 C 
ENDBRANCH  16  20
BRANCH  17  22
ATOM     22  O   UNL     1     112.308 124.291 136.459  0.00  0.00    +0.000 OA
ATOM     23  C   UNL     1     112.005 123.673 136.913  0.00  0.00    +0.000 C 
ENDBRANCH  17  22
ENDBRANCH  10  12
BRANCH   7  24
ATOM     24  O   UNL     1     109.118 129.441 139.073  0.00  0.00    +0.000 OA
ATOM     25  C   UNL     1     109.278 129.545 139.876  0.00  0.00    +0.000 C 
ENDBRANCH   7  24
BRANCH   3  26
ATOM     26  O   UNL     1     111.196 130.396 137.258  0.00  0.00    +0.000 OA
BRANCH  26  35
ATOM     27  O   UNL     1     110.204 130.887 136.354  0.00  0.00    +0.000 OA
ATOM     28  O   UNL     1     110.667 133.200 137.103  0.00  0.00    +0.000 OA
ATOM     29  O   UNL     1     109.521 132.920 135.950  0.00  0.00    +0.000 OA
ATOM     30  O   UNL     1     111.505 131.938 137.757  0.00  0.00    +0.000 OA
ATOM     31  C   UNL     1     110.513 132.429 136.853  0.00  0.00    +0.000 C 
ATOM     32  C   UNL     1     109.940 132.289 136.277  0.00  0.00    +0.000 C 
ATOM     33  C   UNL     1     110.932 131.798 137.181  0.00  0.00    +0.000 C 
ATOM     34  C   UNL     1     109.786 131.518 136.028  0.00  0.00    +0.000 C 
ATOM     35  C   UNL     1     110.778 131.027 136.931  0.00  0.00    +0.000 C 
BRANCH  34  37
ATOM     36  O   UNL     1     109.344 130.809 134.868  0.00  0.00    +0.000 OA
ATOM     37  C   UNL     1     109.212 131.378 135.450  0.00  0.00    +0.000 C 
ENDBRANCH  34  37
ENDBRANCH  26  35
ENDBRANCH   3  26
TORSDOF 8
ENDMDL
