MODEL 1
REMARK VINA RESULT:     -10.4      0.000      0.000
REMARK  Name = 14238625
REMARK  6 active torsions:
REMARK  status: ('A' for Active; 'I' for Inactive)
REMARK    1  A    between atoms: O_1  and  C_17
REMARK    2  A    between atoms: O_1  and  C_19
REMARK    3  A    between atoms: O_4  and  C_23
REMARK    4  A    between atoms: O_4  and  C_29
REMARK    5  A    between atoms: C_26  and  C_27
REMARK    6  A    between atoms: C_30  and  C_33
REMARK                            x       y       z     vdW  Elec       q    Type
REMARK                         _______ _______ _______ _____ _____    ______ ____
ROOT
ATOM      1  O   UNL     1     112.045 127.066 137.548  0.00  0.00    +0.000 OA
ENDROOT
BRANCH   1   6
ATOM      2  O   UNL     1     113.337 126.108 139.023  0.00  0.00    +0.000 OA
ATOM      3  O   UNL     1     112.484 128.363 138.468  0.00  0.00    +0.000 OA
ATOM      4  O   UNL     1     113.205 128.940 139.577  0.00  0.00    +0.000 OA
ATOM      5  O   UNL     1     114.818 127.201 141.279  0.00  0.00    +0.000 OA
ATOM      6  C   UNL     1     112.549 126.962 138.193  0.00  0.00    +0.000 A 
ATOM      7  C   UNL     1     112.833 126.211 138.378  0.00  0.00    +0.000 A 
ATOM      8  C   UNL     1     112.768 127.612 138.653  0.00  0.00    +0.000 A 
ATOM      9  C   UNL     1     113.272 127.508 139.298  0.00  0.00    +0.000 A 
ATOM     10  C   UNL     1     113.557 126.756 139.483  0.00  0.00    +0.000 A 
ATOM     11  C   UNL     1     113.494 128.191 139.769  0.00  0.00    +0.000 A 
ATOM     12  C   UNL     1     114.082 126.636 140.152  0.00  0.00    +0.000 A 
ATOM     13  C   UNL     1     114.018 128.090 140.442  0.00  0.00    +0.000 A 
ATOM     14  C   UNL     1     114.314 127.307 140.634  0.00  0.00    +0.000 A 
BRANCH   7  17
ATOM     15  O   UNL     1     113.415 124.340 136.297  0.00  0.00    +0.000 OA
ATOM     16  O   UNL     1     111.953 123.614 136.541  0.00  0.00    +0.000 OA
ATOM     17  C   UNL     1     112.613 125.562 137.918  0.00  0.00    +0.000 A 
ATOM     18  C   UNL     1     113.124 125.275 137.338  0.00  0.00    +0.000 A 
ATOM     19  C   UNL     1     111.882 125.199 138.040  0.00  0.00    +0.000 A 
ATOM     20  C   UNL     1     112.904 124.626 136.878  0.00  0.00    +0.000 A 
ATOM     21  C   UNL     1     111.662 124.550 137.581  0.00  0.00    +0.000 A 
ATOM     22  C   UNL     1     112.174 124.263 137.000  0.00  0.00    +0.000 A 
ENDBRANCH   7  17
ENDBRANCH   1   6
BRANCH   1  29
ATOM     23  O   UNL     1     113.018 127.651 136.681  0.00  0.00    +0.000 OA
ATOM     24  O   UNL     1     111.274 129.115 135.711  0.00  0.00    +0.000 OA
ATOM     25  O   UNL     1     112.829 129.212 135.167  0.00  0.00    +0.000 OA
ATOM     26  C   UNL     1     111.659 128.091 136.629  0.00  0.00    +0.000 C 
ATOM     27  C   UNL     1     111.856 128.627 136.034  0.00  0.00    +0.000 C 
ATOM     28  C   UNL     1     112.632 128.676 135.763  0.00  0.00    +0.000 C 
ATOM     29  C   UNL     1     112.241 127.603 136.952  0.00  0.00    +0.000 C 
ATOM     30  C   UNL     1     113.214 128.188 136.086  0.00  0.00    +0.000 C 
ATOM     31  C   UNL     1     113.992 128.237 135.815  0.00  0.00    +0.000 C 
BRANCH  26  32
ATOM     32  O   UNL     1     110.882 128.041 136.901  0.00  0.00    +0.000 OA
BRANCH  32  37
ATOM     33  O   UNL     1     110.532 127.260 135.756  0.00  0.00    +0.000 OA
ATOM     34  O   UNL     1     109.313 128.001 137.409  0.00  0.00    +0.000 OA
ATOM     35  O   UNL     1     108.178 127.199 136.519  0.00  0.00    +0.000 OA
ATOM     36  O   UNL     1     108.612 126.438 135.121  0.00  0.00    +0.000 OA
ATOM     37  C   UNL     1     110.314 127.640 136.456  0.00  0.00    +0.000 C 
ATOM     38  C   UNL     1     109.530 127.620 136.709  0.00  0.00    +0.000 C 
ATOM     39  C   UNL     1     108.962 127.219 136.265  0.00  0.00    +0.000 C 
ATOM     40  C   UNL     1     109.180 126.839 135.566  0.00  0.00    +0.000 C 
ATOM     41  C   UNL     1     109.964 126.859 135.311  0.00  0.00    +0.000 C 
BRANCH  41  43
ATOM     42  O   UNL     1     110.579 125.757 134.642  0.00  0.00    +0.000 OA
ATOM     43  C   UNL     1     110.182 126.479 134.613  0.00  0.00    +0.000 C 
ENDBRANCH  41  43
ENDBRANCH  32  37
ENDBRANCH  26  32
ENDBRANCH   1  29
TORSDOF 6
ENDMDL
MODEL 2
REMARK VINA RESULT:     -10.1      1.571      4.947
REMARK  Name = 14238625
REMARK  6 active torsions:
REMARK  status: ('A' for Active; 'I' for Inactive)
REMARK    1  A    between atoms: O_1  and  C_17
REMARK    2  A    between atoms: O_1  and  C_19
REMARK    3  A    between atoms: O_4  and  C_23
REMARK    4  A    between atoms: O_4  and  C_29
REMARK    5  A    between atoms: C_26  and  C_27
REMARK    6  A    between atoms: C_30  and  C_33
REMARK                            x       y       z     vdW  Elec       q    Type
REMARK                         _______ _______ _______ _____ _____    ______ ____
ROOT
ATOM      1  O   UNL     1     111.296 128.066 136.584  0.00  0.00    +0.000 OA
ENDROOT
BRANCH   1   6
ATOM      2  O   UNL     1     110.893 129.928 135.521  0.00  0.00    +0.000 OA
ATOM      3  O   UNL     1     109.652 128.142 136.700  0.00  0.00    +0.000 OA
ATOM      4  O   UNL     1     108.395 128.799 136.434  0.00  0.00    +0.000 OA
ATOM      5  O   UNL     1     108.395 131.311 134.947  0.00  0.00    +0.000 OA
ATOM      6  C   UNL     1     110.888 128.699 136.249  0.00  0.00    +0.000 A 
ATOM      7  C   UNL     1     111.301 129.294 135.856  0.00  0.00    +0.000 A 
ATOM      8  C   UNL     1     110.066 128.737 136.307  0.00  0.00    +0.000 A 
ATOM      9  C   UNL     1     109.657 129.370 135.972  0.00  0.00    +0.000 A 
ATOM     10  C   UNL     1     110.071 129.967 135.578  0.00  0.00    +0.000 A 
ATOM     11  C   UNL     1     108.801 129.399 136.039  0.00  0.00    +0.000 A 
ATOM     12  C   UNL     1     109.657 130.631 135.225  0.00  0.00    +0.000 A 
ATOM     13  C   UNL     1     108.370 130.056 135.692  0.00  0.00    +0.000 A 
ATOM     14  C   UNL     1     108.801 130.676 135.283  0.00  0.00    +0.000 A 
BRANCH   7  17
ATOM     15  O   UNL     1     113.887 129.717 136.998  0.00  0.00    +0.000 OA
ATOM     16  O   UNL     1     114.589 129.144 135.619  0.00  0.00    +0.000 OA
ATOM     17  C   UNL     1     112.124 129.257 135.797  0.00  0.00    +0.000 A 
ATOM     18  C   UNL     1     112.594 129.506 136.427  0.00  0.00    +0.000 A 
ATOM     19  C   UNL     1     112.475 128.971 135.108  0.00  0.00    +0.000 A 
ATOM     20  C   UNL     1     113.416 129.469 136.368  0.00  0.00    +0.000 A 
ATOM     21  C   UNL     1     113.297 128.933 135.048  0.00  0.00    +0.000 A 
ATOM     22  C   UNL     1     113.768 129.182 135.679  0.00  0.00    +0.000 A 
ENDBRANCH   7  17
ENDBRANCH   1   6
BRANCH   1  29
ATOM     23  O   UNL     1     110.905 127.108 135.598  0.00  0.00    +0.000 OA
ATOM     24  O   UNL     1     110.883 125.337 137.327  0.00  0.00    +0.000 OA
ATOM     25  O   UNL     1     110.499 124.970 135.764  0.00  0.00    +0.000 OA
ATOM     26  C   UNL     1     111.090 126.701 136.955  0.00  0.00    +0.000 C 
ATOM     27  C   UNL     1     110.890 125.927 136.750  0.00  0.00    +0.000 C 
ATOM     28  C   UNL     1     110.698 125.744 135.970  0.00  0.00    +0.000 C 
ATOM     29  C   UNL     1     111.097 127.291 136.379  0.00  0.00    +0.000 C 
ATOM     30  C   UNL     1     110.705 126.334 135.394  0.00  0.00    +0.000 C 
ATOM     31  C   UNL     1     110.513 126.151 134.612  0.00  0.00    +0.000 C 
BRANCH  26  32
ATOM     32  O   UNL     1     111.282 126.885 137.736  0.00  0.00    +0.000 OA
BRANCH  32  37
ATOM     33  O   UNL     1     112.572 126.296 137.556  0.00  0.00    +0.000 OA
ATOM     34  O   UNL     1     111.678 127.279 139.289  0.00  0.00    +0.000 OA
ATOM     35  O   UNL     1     113.166 126.887 139.885  0.00  0.00    +0.000 OA
ATOM     36  O   UNL     1     114.257 126.101 138.929  0.00  0.00    +0.000 OA
ATOM     37  C   UNL     1     112.026 126.689 138.034  0.00  0.00    +0.000 C 
ATOM     38  C   UNL     1     112.225 126.886 138.810  0.00  0.00    +0.000 C 
ATOM     39  C   UNL     1     112.968 126.690 139.109  0.00  0.00    +0.000 C 
ATOM     40  C   UNL     1     113.513 126.297 138.631  0.00  0.00    +0.000 C 
ATOM     41  C   UNL     1     113.316 126.100 137.854  0.00  0.00    +0.000 C 
BRANCH  41  43
ATOM     42  O   UNL     1     114.217 126.102 136.747  0.00  0.00    +0.000 OA
ATOM     43  C   UNL     1     113.861 125.707 137.377  0.00  0.00    +0.000 C 
ENDBRANCH  41  43
ENDBRANCH  32  37
ENDBRANCH  26  32
ENDBRANCH   1  29
TORSDOF 6
ENDMDL
MODEL 3
REMARK VINA RESULT:     -10.1      2.550      4.712
REMARK  Name = 14238625
REMARK  6 active torsions:
REMARK  status: ('A' for Active; 'I' for Inactive)
REMARK    1  A    between atoms: O_1  and  C_17
REMARK    2  A    between atoms: O_1  and  C_19
REMARK    3  A    between atoms: O_4  and  C_23
REMARK    4  A    between atoms: O_4  and  C_29
REMARK    5  A    between atoms: C_26  and  C_27
REMARK    6  A    between atoms: C_30  and  C_33
REMARK                            x       y       z     vdW  Elec       q    Type
REMARK                         _______ _______ _______ _____ _____    ______ ____
ROOT
ATOM      1  O   UNL     1     111.235 129.212 136.933  0.00  0.00    +0.000 OA
ENDROOT
BRANCH   1   6
ATOM      2  O   UNL     1     110.683 127.485 135.719  0.00  0.00    +0.000 OA
ATOM      3  O   UNL     1     112.157 128.034 137.629  0.00  0.00    +0.000 OA
ATOM      4  O   UNL     1     112.609 126.666 137.710  0.00  0.00    +0.000 OA
ATOM      5  O   UNL     1     111.550 124.707 135.823  0.00  0.00    +0.000 OA
ATOM      6  C   UNL     1     111.204 128.440 136.644  0.00  0.00    +0.000 A 
ATOM      7  C   UNL     1     110.713 128.257 136.008  0.00  0.00    +0.000 A 
ATOM      8  C   UNL     1     111.666 127.851 136.993  0.00  0.00    +0.000 A 
ATOM      9  C   UNL     1     111.636 127.079 136.703  0.00  0.00    +0.000 A 
ATOM     10  C   UNL     1     111.144 126.896 136.066  0.00  0.00    +0.000 A 
ATOM     11  C   UNL     1     112.120 126.474 137.073  0.00  0.00    +0.000 A 
ATOM     12  C   UNL     1     111.104 126.095 135.756  0.00  0.00    +0.000 A 
ATOM     13  C   UNL     1     112.093 125.668 136.777  0.00  0.00    +0.000 A 
ATOM     14  C   UNL     1     111.582 125.478 136.114  0.00  0.00    +0.000 A 
BRANCH   7  17
ATOM     15  O   UNL     1     108.328 129.830 135.961  0.00  0.00    +0.000 OA
ATOM     16  O   UNL     1     108.870 130.612 134.613  0.00  0.00    +0.000 OA
ATOM     17  C   UNL     1     110.252 128.846 135.660  0.00  0.00    +0.000 A 
ATOM     18  C   UNL     1     109.520 129.044 135.984  0.00  0.00    +0.000 A 
ATOM     19  C   UNL     1     110.523 129.237 134.986  0.00  0.00    +0.000 A 
ATOM     20  C   UNL     1     109.059 129.632 135.636  0.00  0.00    +0.000 A 
ATOM     21  C   UNL     1     110.062 129.826 134.636  0.00  0.00    +0.000 A 
ATOM     22  C   UNL     1     109.330 130.023 134.962  0.00  0.00    +0.000 A 
ENDBRANCH   7  17
ENDBRANCH   1   6
BRANCH   1  29
ATOM     23  O   UNL     1     112.515 129.517 136.378  0.00  0.00    +0.000 OA
ATOM     24  O   UNL     1     113.009 130.975 138.316  0.00  0.00    +0.000 OA
ATOM     25  O   UNL     1     114.125 130.794 137.114  0.00  0.00    +0.000 OA
ATOM     26  C   UNL     1     112.122 130.094 137.625  0.00  0.00    +0.000 C 
ATOM     27  C   UNL     1     112.844 130.489 137.670  0.00  0.00    +0.000 C 
ATOM     28  C   UNL     1     113.402 130.399 137.070  0.00  0.00    +0.000 C 
ATOM     29  C   UNL     1     111.958 129.608 136.979  0.00  0.00    +0.000 C 
ATOM     30  C   UNL     1     113.238 129.913 136.424  0.00  0.00    +0.000 C 
ATOM     31  C   UNL     1     113.796 129.822 135.822  0.00  0.00    +0.000 C 
BRANCH  26  32
ATOM     32  O   UNL     1     111.564 130.184 138.226  0.00  0.00    +0.000 OA
BRANCH  32  37
ATOM     33  O   UNL     1     111.203 131.462 137.697  0.00  0.00    +0.000 OA
ATOM     34  O   UNL     1     110.424 130.350 139.407  0.00  0.00    +0.000 OA
ATOM     35  O   UNL     1     109.493 131.712 139.469  0.00  0.00    +0.000 OA
ATOM     36  O   UNL     1     109.702 132.906 138.350  0.00  0.00    +0.000 OA
ATOM     37  C   UNL     1     111.098 130.864 138.257  0.00  0.00    +0.000 C 
ATOM     38  C   UNL     1     110.528 130.948 138.847  0.00  0.00    +0.000 C 
ATOM     39  C   UNL     1     110.063 131.629 138.878  0.00  0.00    +0.000 C 
ATOM     40  C   UNL     1     110.168 132.225 138.319  0.00  0.00    +0.000 C 
ATOM     41  C   UNL     1     110.738 132.143 137.728  0.00  0.00    +0.000 C 
BRANCH  41  43
ATOM     42  O   UNL     1     110.472 132.686 136.434  0.00  0.00    +0.000 OA
ATOM     43  C   UNL     1     110.842 132.739 137.169  0.00  0.00    +0.000 C 
ENDBRANCH  41  43
ENDBRANCH  32  37
ENDBRANCH  26  32
ENDBRANCH   1  29
TORSDOF 6
ENDMDL
MODEL 4
REMARK VINA RESULT:     -10.0      2.314      4.260
REMARK  Name = 14238625
REMARK  6 active torsions:
REMARK  status: ('A' for Active; 'I' for Inactive)
REMARK    1  A    between atoms: O_1  and  C_17
REMARK    2  A    between atoms: O_1  and  C_19
REMARK    3  A    between atoms: O_4  and  C_23
REMARK    4  A    between atoms: O_4  and  C_29
REMARK    5  A    between atoms: C_26  and  C_27
REMARK    6  A    between atoms: C_30  and  C_33
REMARK                            x       y       z     vdW  Elec       q    Type
REMARK                         _______ _______ _______ _____ _____    ______ ____
ROOT
ATOM      1  O   UNL     1     111.535 126.366 138.968  0.00  0.00    +0.000 OA
ENDROOT
BRANCH   1   6
ATOM      2  O   UNL     1     113.686 126.199 138.639  0.00  0.00    +0.000 OA
ATOM      3  O   UNL     1     111.582 125.214 137.787  0.00  0.00    +0.000 OA
ATOM      4  O   UNL     1     112.313 124.372 136.872  0.00  0.00    +0.000 OA
ATOM      5  O   UNL     1     115.228 124.529 136.818  0.00  0.00    +0.000 OA
ATOM      6  C   UNL     1     112.260 126.119 138.661  0.00  0.00    +0.000 A 
ATOM      7  C   UNL     1     112.961 126.447 138.945  0.00  0.00    +0.000 A 
ATOM      8  C   UNL     1     112.283 125.543 138.071  0.00  0.00    +0.000 A 
ATOM      9  C   UNL     1     113.008 125.295 137.764  0.00  0.00    +0.000 A 
ATOM     10  C   UNL     1     113.710 125.624 138.048  0.00  0.00    +0.000 A 
ATOM     11  C   UNL     1     113.020 124.695 137.150  0.00  0.00    +0.000 A 
ATOM     12  C   UNL     1     114.471 125.374 137.737  0.00  0.00    +0.000 A 
ATOM     13  C   UNL     1     113.771 124.433 136.826  0.00  0.00    +0.000 A 
ATOM     14  C   UNL     1     114.502 124.775 137.122  0.00  0.00    +0.000 A 
BRANCH   7  17
ATOM     15  O   UNL     1     112.975 129.197 139.724  0.00  0.00    +0.000 OA
ATOM     16  O   UNL     1     112.871 128.748 141.308  0.00  0.00    +0.000 OA
ATOM     17  C   UNL     1     112.939 127.023 139.535  0.00  0.00    +0.000 A 
ATOM     18  C   UNL     1     112.968 127.822 139.334  0.00  0.00    +0.000 A 
ATOM     19  C   UNL     1     112.887 126.799 140.328  0.00  0.00    +0.000 A 
ATOM     20  C   UNL     1     112.946 128.398 139.925  0.00  0.00    +0.000 A 
ATOM     21  C   UNL     1     112.864 127.373 140.919  0.00  0.00    +0.000 A 
ATOM     22  C   UNL     1     112.893 128.174 140.717  0.00  0.00    +0.000 A 
ENDBRANCH   7  17
ENDBRANCH   1   6
BRANCH   1  29
ATOM     23  O   UNL     1     111.146 127.128 137.823  0.00  0.00    +0.000 OA
ATOM     24  O   UNL     1     108.782 126.511 138.216  0.00  0.00    +0.000 OA
ATOM     25  O   UNL     1     109.181 127.478 136.941  0.00  0.00    +0.000 OA
ATOM     26  C   UNL     1     110.158 126.439 138.592  0.00  0.00    +0.000 C 
ATOM     27  C   UNL     1     109.570 126.716 138.085  0.00  0.00    +0.000 C 
ATOM     28  C   UNL     1     109.769 127.200 137.448  0.00  0.00    +0.000 C 
ATOM     29  C   UNL     1     110.946 126.644 138.461  0.00  0.00    +0.000 C 
ATOM     30  C   UNL     1     110.557 127.406 137.317  0.00  0.00    +0.000 C 
ATOM     31  C   UNL     1     110.757 127.890 136.679  0.00  0.00    +0.000 C 
BRANCH  26  32
ATOM     32  O   UNL     1     109.959 125.955 139.230  0.00  0.00    +0.000 OA
BRANCH  32  37
ATOM     33  O   UNL     1     109.611 127.106 140.002  0.00  0.00    +0.000 OA
ATOM     34  O   UNL     1     109.372 124.977 140.423  0.00  0.00    +0.000 OA
ATOM     35  O   UNL     1     108.731 125.640 141.791  0.00  0.00    +0.000 OA
ATOM     36  O   UNL     1     108.677 127.280 141.966  0.00  0.00    +0.000 OA
ATOM     37  C   UNL     1     109.639 126.286 139.914  0.00  0.00    +0.000 C 
ATOM     38  C   UNL     1     109.345 125.798 140.511  0.00  0.00    +0.000 C 
ATOM     39  C   UNL     1     109.024 126.129 141.195  0.00  0.00    +0.000 C 
ATOM     40  C   UNL     1     108.997 126.949 141.282  0.00  0.00    +0.000 C 
ATOM     41  C   UNL     1     109.291 127.438 140.686  0.00  0.00    +0.000 C 
BRANCH  41  43
ATOM     42  O   UNL     1     108.677 128.694 140.392  0.00  0.00    +0.000 OA
ATOM     43  C   UNL     1     109.264 128.257 140.773  0.00  0.00    +0.000 C 
ENDBRANCH  41  43
ENDBRANCH  32  37
ENDBRANCH  26  32
ENDBRANCH   1  29
TORSDOF 6
ENDMDL
MODEL 5
REMARK VINA RESULT:      -9.9      1.922      3.107
REMARK  Name = 14238625
REMARK  6 active torsions:
REMARK  status: ('A' for Active; 'I' for Inactive)
REMARK    1  A    between atoms: O_1  and  C_17
REMARK    2  A    between atoms: O_1  and  C_19
REMARK    3  A    between atoms: O_4  and  C_23
REMARK    4  A    between atoms: O_4  and  C_29
REMARK    5  A    between atoms: C_26  and  C_27
REMARK    6  A    between atoms: C_30  and  C_33
REMARK                            x       y       z     vdW  Elec       q    Type
REMARK                         _______ _______ _______ _____ _____    ______ ____
ROOT
ATOM      1  O   UNL     1     111.609 127.825 137.314  0.00  0.00    +0.000 OA
ENDROOT
BRANCH   1   6
ATOM      2  O   UNL     1     112.324 125.885 138.012  0.00  0.00    +0.000 OA
ATOM      3  O   UNL     1     113.027 127.696 136.479  0.00  0.00    +0.000 OA
ATOM      4  O   UNL     1     114.229 126.976 136.135  0.00  0.00    +0.000 OA
ATOM      5  O   UNL     1     114.729 124.376 137.364  0.00  0.00    +0.000 OA
ATOM      6  C   UNL     1     112.084 127.156 137.408  0.00  0.00    +0.000 A 
ATOM      7  C   UNL     1     111.849 126.553 137.918  0.00  0.00    +0.000 A 
ATOM      8  C   UNL     1     112.792 127.092 136.990  0.00  0.00    +0.000 A 
ATOM      9  C   UNL     1     113.267 126.424 137.083  0.00  0.00    +0.000 A 
ATOM     10  C   UNL     1     113.032 125.819 137.595  0.00  0.00    +0.000 A 
ATOM     11  C   UNL     1     114.002 126.367 136.644  0.00  0.00    +0.000 A 
ATOM     12  C   UNL     1     113.517 125.118 137.701  0.00  0.00    +0.000 A 
ATOM     13  C   UNL     1     114.501 125.674 136.736  0.00  0.00    +0.000 A 
ATOM     14  C   UNL     1     114.257 125.046 137.268  0.00  0.00    +0.000 A 
BRANCH   7  17
ATOM     15  O   UNL     1     109.003 126.319 138.016  0.00  0.00    +0.000 OA
ATOM     16  O   UNL     1     109.016 126.810 139.591  0.00  0.00    +0.000 OA
ATOM     17  C   UNL     1     111.141 126.617 138.336  0.00  0.00    +0.000 A 
ATOM     18  C   UNL     1     110.426 126.436 137.967  0.00  0.00    +0.000 A 
ATOM     19  C   UNL     1     111.147 126.863 139.124  0.00  0.00    +0.000 A 
ATOM     20  C   UNL     1     109.717 126.500 138.385  0.00  0.00    +0.000 A 
ATOM     21  C   UNL     1     110.440 126.927 139.542  0.00  0.00    +0.000 A 
ATOM     22  C   UNL     1     109.724 126.746 139.173  0.00  0.00    +0.000 A 
ENDBRANCH   7  17
ENDBRANCH   1   6
BRANCH   1  29
ATOM     23  O   UNL     1     112.438 128.694 138.089  0.00  0.00    +0.000 OA
ATOM     24  O   UNL     1     111.823 130.589 136.621  0.00  0.00    +0.000 OA
ATOM     25  O   UNL     1     112.857 130.826 137.885  0.00  0.00    +0.000 OA
ATOM     26  C   UNL     1     111.716 129.208 136.967  0.00  0.00    +0.000 C 
ATOM     27  C   UNL     1     112.028 129.957 137.110  0.00  0.00    +0.000 C 
ATOM     28  C   UNL     1     112.544 130.076 137.741  0.00  0.00    +0.000 C 
ATOM     29  C   UNL     1     111.921 128.576 137.457  0.00  0.00    +0.000 C 
ATOM     30  C   UNL     1     112.750 129.444 138.231  0.00  0.00    +0.000 C 
ATOM     31  C   UNL     1     113.267 129.563 138.863  0.00  0.00    +0.000 C 
BRANCH  26  32
ATOM     32  O   UNL     1     111.199 129.088 136.336  0.00  0.00    +0.000 OA
BRANCH  32  37
ATOM     33  O   UNL     1     110.143 129.691 137.087  0.00  0.00    +0.000 OA
ATOM     34  O   UNL     1     110.150 128.795 135.096  0.00  0.00    +0.000 OA
ATOM     35  O   UNL     1     108.569 129.250 135.228  0.00  0.00    +0.000 OA
ATOM     36  O   UNL     1     108.038 130.000 136.599  0.00  0.00    +0.000 OA
ATOM     37  C   UNL     1     110.409 129.316 136.401  0.00  0.00    +0.000 C 
ATOM     38  C   UNL     1     109.884 129.170 135.782  0.00  0.00    +0.000 C 
ATOM     39  C   UNL     1     109.094 129.398 135.848  0.00  0.00    +0.000 C 
ATOM     40  C   UNL     1     108.828 129.772 136.533  0.00  0.00    +0.000 C 
ATOM     41  C   UNL     1     109.353 129.919 137.153  0.00  0.00    +0.000 C 
BRANCH  41  43
ATOM     42  O   UNL     1     108.888 129.847 138.501  0.00  0.00    +0.000 OA
ATOM     43  C   UNL     1     109.088 130.293 137.838  0.00  0.00    +0.000 C 
ENDBRANCH  41  43
ENDBRANCH  32  37
ENDBRANCH  26  32
ENDBRANCH   1  29
TORSDOF 6
ENDMDL
MODEL 6
REMARK VINA RESULT:      -9.9      1.526      3.737
REMARK  Name = 14238625
REMARK  6 active torsions:
REMARK  status: ('A' for Active; 'I' for Inactive)
REMARK    1  A    between atoms: O_1  and  C_17
REMARK    2  A    between atoms: O_1  and  C_19
REMARK    3  A    between atoms: O_4  and  C_23
REMARK    4  A    between atoms: O_4  and  C_29
REMARK    5  A    between atoms: C_26  and  C_27
REMARK    6  A    between atoms: C_30  and  C_33
REMARK                            x       y       z     vdW  Elec       q    Type
REMARK                         _______ _______ _______ _____ _____    ______ ____
ROOT
ATOM      1  O   UNL     1     112.636 127.758 138.340  0.00  0.00    +0.000 OA
ENDROOT
BRANCH   1   6
ATOM      2  O   UNL     1     113.524 129.751 138.308  0.00  0.00    +0.000 OA
ATOM      3  O   UNL     1     113.194 127.876 139.888  0.00  0.00    +0.000 OA
ATOM      4  O   UNL     1     113.864 128.605 140.938  0.00  0.00    +0.000 OA
ATOM      5  O   UNL     1     114.887 131.281 140.377  0.00  0.00    +0.000 OA
ATOM      6  C   UNL     1     113.025 128.442 138.587  0.00  0.00    +0.000 A 
ATOM      7  C   UNL     1     113.135 129.067 138.060  0.00  0.00    +0.000 A 
ATOM      8  C   UNL     1     113.303 128.501 139.362  0.00  0.00    +0.000 A 
ATOM      9  C   UNL     1     113.692 129.185 139.609  0.00  0.00    +0.000 A 
ATOM     10  C   UNL     1     113.802 129.811 139.082  0.00  0.00    +0.000 A 
ATOM     11  C   UNL     1     113.978 129.235 140.417  0.00  0.00    +0.000 A 
ATOM     12  C   UNL     1     114.206 130.528 139.327  0.00  0.00    +0.000 A 
ATOM     13  C   UNL     1     114.384 129.945 140.681  0.00  0.00    +0.000 A 
ATOM     14  C   UNL     1     114.498 130.596 140.132  0.00  0.00    +0.000 A 
BRANCH   7  17
ATOM     15  O   UNL     1     111.133 129.628 136.099  0.00  0.00    +0.000 OA
ATOM     16  O   UNL     1     112.023 128.831 134.962  0.00  0.00    +0.000 OA
ATOM     17  C   UNL     1     112.856 129.008 137.286  0.00  0.00    +0.000 A 
ATOM     18  C   UNL     1     112.134 129.347 137.080  0.00  0.00    +0.000 A 
ATOM     19  C   UNL     1     113.302 128.609 136.717  0.00  0.00    +0.000 A 
ATOM     20  C   UNL     1     111.855 129.289 136.305  0.00  0.00    +0.000 A 
ATOM     21  C   UNL     1     113.024 128.550 135.942  0.00  0.00    +0.000 A 
ATOM     22  C   UNL     1     112.301 128.890 135.737  0.00  0.00    +0.000 A 
ENDBRANCH   7  17
ENDBRANCH   1   6
BRANCH   1  29
ATOM     23  O   UNL     1     111.423 128.025 139.045  0.00  0.00    +0.000 OA
ATOM     24  O   UNL     1     111.096 125.598 139.404  0.00  0.00    +0.000 OA
ATOM     25  O   UNL     1     109.991 126.675 139.990  0.00  0.00    +0.000 OA
ATOM     26  C   UNL     1     111.866 126.678 138.872  0.00  0.00    +0.000 C 
ATOM     27  C   UNL     1     111.205 126.407 139.284  0.00  0.00    +0.000 C 
ATOM     28  C   UNL     1     110.653 126.945 139.577  0.00  0.00    +0.000 C 
ATOM     29  C   UNL     1     111.975 127.487 138.752  0.00  0.00    +0.000 C 
ATOM     30  C   UNL     1     110.762 127.754 139.457  0.00  0.00    +0.000 C 
ATOM     31  C   UNL     1     110.209 128.293 139.750  0.00  0.00    +0.000 C 
BRANCH  26  32
ATOM     32  O   UNL     1     112.419 126.140 138.579  0.00  0.00    +0.000 OA
BRANCH  32  37
ATOM     33  O   UNL     1     111.527 125.805 137.513  0.00  0.00    +0.000 OA
ATOM     34  O   UNL     1     113.539 125.092 137.971  0.00  0.00    +0.000 OA
ATOM     35  O   UNL     1     113.208 124.234 136.601  0.00  0.00    +0.000 OA
ATOM     36  O   UNL     1     111.757 124.424 135.839  0.00  0.00    +0.000 OA
ATOM     37  C   UNL     1     112.253 125.711 137.894  0.00  0.00    +0.000 C 
ATOM     38  C   UNL     1     112.813 125.187 137.590  0.00  0.00    +0.000 C 
ATOM     39  C   UNL     1     112.647 124.758 136.905  0.00  0.00    +0.000 C 
ATOM     40  C   UNL     1     111.922 124.853 136.524  0.00  0.00    +0.000 C 
ATOM     41  C   UNL     1     111.361 125.376 136.828  0.00  0.00    +0.000 C 
BRANCH  41  43
ATOM     42  O   UNL     1     110.468 126.173 136.049  0.00  0.00    +0.000 OA
ATOM     43  C   UNL     1     110.636 125.471 136.448  0.00  0.00    +0.000 C 
ENDBRANCH  41  43
ENDBRANCH  32  37
ENDBRANCH  26  32
ENDBRANCH   1  29
TORSDOF 6
ENDMDL
MODEL 7
REMARK VINA RESULT:      -9.9      1.753      3.690
REMARK  Name = 14238625
REMARK  6 active torsions:
REMARK  status: ('A' for Active; 'I' for Inactive)
REMARK    1  A    between atoms: O_1  and  C_17
REMARK    2  A    between atoms: O_1  and  C_19
REMARK    3  A    between atoms: O_4  and  C_23
REMARK    4  A    between atoms: O_4  and  C_29
REMARK    5  A    between atoms: C_26  and  C_27
REMARK    6  A    between atoms: C_30  and  C_33
REMARK                            x       y       z     vdW  Elec       q    Type
REMARK                         _______ _______ _______ _____ _____    ______ ____
ROOT
ATOM      1  O   UNL     1     111.537 127.374 136.954  0.00  0.00    +0.000 OA
ENDROOT
BRANCH   1   6
ATOM      2  O   UNL     1     113.640 126.824 136.768  0.00  0.00    +0.000 OA
ATOM      3  O   UNL     1     111.481 125.779 137.375  0.00  0.00    +0.000 OA
ATOM      4  O   UNL     1     112.126 124.509 137.602  0.00  0.00    +0.000 OA
ATOM      5  O   UNL     1     115.011 124.292 137.208  0.00  0.00    +0.000 OA
ATOM      6  C   UNL     1     112.229 126.925 136.962  0.00  0.00    +0.000 A 
ATOM      7  C   UNL     1     112.948 127.273 136.760  0.00  0.00    +0.000 A 
ATOM      8  C   UNL     1     112.200 126.127 137.173  0.00  0.00    +0.000 A 
ATOM      9  C   UNL     1     112.892 125.678 137.181  0.00  0.00    +0.000 A 
ATOM     10  C   UNL     1     113.613 126.026 136.978  0.00  0.00    +0.000 A 
ATOM     11  C   UNL     1     112.851 124.849 137.401  0.00  0.00    +0.000 A 
ATOM     12  C   UNL     1     114.340 125.569 136.983  0.00  0.00    +0.000 A 
ATOM     13  C   UNL     1     113.568 124.376 137.412  0.00  0.00    +0.000 A 
ATOM     14  C   UNL     1     114.317 124.738 137.201  0.00  0.00    +0.000 A 
BRANCH   7  17
ATOM     15  O   UNL     1     113.083 130.028 137.508  0.00  0.00    +0.000 OA
ATOM     16  O   UNL     1     113.063 130.461 135.916  0.00  0.00    +0.000 OA
ATOM     17  C   UNL     1     112.977 128.070 136.550  0.00  0.00    +0.000 A 
ATOM     18  C   UNL     1     113.016 128.650 137.134  0.00  0.00    +0.000 A 
ATOM     19  C   UNL     1     112.967 128.287 135.754  0.00  0.00    +0.000 A 
ATOM     20  C   UNL     1     113.044 129.448 136.923  0.00  0.00    +0.000 A 
ATOM     21  C   UNL     1     112.996 129.083 135.542  0.00  0.00    +0.000 A 
ATOM     22  C   UNL     1     113.034 129.664 136.127  0.00  0.00    +0.000 A 
ENDBRANCH   7  17
ENDBRANCH   1   6
BRANCH   1  29
ATOM     23  O   UNL     1     110.990 126.764 135.783  0.00  0.00    +0.000 OA
ATOM     24  O   UNL     1     108.709 127.052 136.699  0.00  0.00    +0.000 OA
ATOM     25  O   UNL     1     108.922 126.346 135.222  0.00  0.00    +0.000 OA
ATOM     26  C   UNL     1     110.122 127.213 136.826  0.00  0.00    +0.000 C 
ATOM     27  C   UNL     1     109.469 126.956 136.393  0.00  0.00    +0.000 C 
ATOM     28  C   UNL     1     109.576 126.603 135.656  0.00  0.00    +0.000 C 
ATOM     29  C   UNL     1     110.882 127.117 136.521  0.00  0.00    +0.000 C 
ATOM     30  C   UNL     1     110.336 126.507 135.351  0.00  0.00    +0.000 C 
ATOM     31  C   UNL     1     110.443 126.154 134.612  0.00  0.00    +0.000 C 
BRANCH  26  32
ATOM     32  O   UNL     1     110.016 127.566 137.564  0.00  0.00    +0.000 OA
BRANCH  32  37
ATOM     33  O   UNL     1     109.603 128.776 136.926  0.00  0.00    +0.000 OA
ATOM     34  O   UNL     1     109.881 128.297 139.038  0.00  0.00    +0.000 OA
ATOM     35  O   UNL     1     109.401 129.872 139.136  0.00  0.00    +0.000 OA
ATOM     36  O   UNL     1     109.056 130.717 137.761  0.00  0.00    +0.000 OA
ATOM     37  C   UNL     1     109.776 128.353 137.614  0.00  0.00    +0.000 C 
ATOM     38  C   UNL     1     109.708 128.719 138.350  0.00  0.00    +0.000 C 
ATOM     39  C   UNL     1     109.468 129.507 138.399  0.00  0.00    +0.000 C 
ATOM     40  C   UNL     1     109.296 129.929 137.712  0.00  0.00    +0.000 C 
ATOM     41  C   UNL     1     109.363 129.564 136.975  0.00  0.00    +0.000 C 
BRANCH  41  43
ATOM     42  O   UNL     1     109.795 130.189 135.766  0.00  0.00    +0.000 OA
ATOM     43  C   UNL     1     109.190 129.986 136.288  0.00  0.00    +0.000 C 
ENDBRANCH  41  43
ENDBRANCH  32  37
ENDBRANCH  26  32
ENDBRANCH   1  29
TORSDOF 6
ENDMDL
MODEL 8
REMARK VINA RESULT:      -9.8      1.749      3.872
REMARK  Name = 14238625
REMARK  6 active torsions:
REMARK  status: ('A' for Active; 'I' for Inactive)
REMARK    1  A    between atoms: O_1  and  C_17
REMARK    2  A    between atoms: O_1  and  C_19
REMARK    3  A    between atoms: O_4  and  C_23
REMARK    4  A    between atoms: O_4  and  C_29
REMARK    5  A    between atoms: C_26  and  C_27
REMARK    6  A    between atoms: C_30  and  C_33
REMARK                            x       y       z     vdW  Elec       q    Type
REMARK                         _______ _______ _______ _____ _____    ______ ____
ROOT
ATOM      1  O   UNL     1     111.194 127.784 136.930  0.00  0.00    +0.000 OA
ENDROOT
BRANCH   1   6
ATOM      2  O   UNL     1     112.761 126.415 136.272  0.00  0.00    +0.000 OA
ATOM      3  O   UNL     1     110.673 126.369 137.600  0.00  0.00    +0.000 OA
ATOM      4  O   UNL     1     110.826 124.955 137.844  0.00  0.00    +0.000 OA
ATOM      5  O   UNL     1     113.135 123.562 136.724  0.00  0.00    +0.000 OA
ATOM      6  C   UNL     1     111.630 127.092 136.822  0.00  0.00    +0.000 A 
ATOM      7  C   UNL     1     112.325 127.107 136.380  0.00  0.00    +0.000 A 
ATOM      8  C   UNL     1     111.369 126.384 137.157  0.00  0.00    +0.000 A 
ATOM      9  C   UNL     1     111.804 125.692 137.050  0.00  0.00    +0.000 A 
ATOM     10  C   UNL     1     112.501 125.707 136.607  0.00  0.00    +0.000 A 
ATOM     11  C   UNL     1     111.524 124.961 137.403  0.00  0.00    +0.000 A 
ATOM     12  C   UNL     1     112.963 124.993 136.487  0.00  0.00    +0.000 A 
ATOM     13  C   UNL     1     111.973 124.237 137.295  0.00  0.00    +0.000 A 
ATOM     14  C   UNL     1     112.697 124.253 136.834  0.00  0.00    +0.000 A 
BRANCH   7  17
ATOM     15  O   UNL     1     114.030 129.400 136.450  0.00  0.00    +0.000 OA
ATOM     16  O   UNL     1     113.367 129.936 135.037  0.00  0.00    +0.000 OA
ATOM     17  C   UNL     1     112.586 127.814 136.044  0.00  0.00    +0.000 A 
ATOM     18  C   UNL     1     113.178 128.254 136.415  0.00  0.00    +0.000 A 
ATOM     19  C   UNL     1     112.255 128.082 135.338  0.00  0.00    +0.000 A 
ATOM     20  C   UNL     1     113.439 128.961 136.079  0.00  0.00    +0.000 A 
ATOM     21  C   UNL     1     112.515 128.789 135.001  0.00  0.00    +0.000 A 
ATOM     22  C   UNL     1     113.107 129.229 135.373  0.00  0.00    +0.000 A 
ENDBRANCH   7  17
ENDBRANCH   1   6
BRANCH   1  29
ATOM     23  O   UNL     1     111.581 127.998 138.289  0.00  0.00    +0.000 OA
ATOM     24  O   UNL     1     109.336 128.913 138.784  0.00  0.00    +0.000 OA
ATOM     25  O   UNL     1     110.471 128.821 139.978  0.00  0.00    +0.000 OA
ATOM     26  C   UNL     1     110.265 128.348 137.858  0.00  0.00    +0.000 C 
ATOM     27  C   UNL     1     110.084 128.608 138.619  0.00  0.00    +0.000 C 
ATOM     28  C   UNL     1     110.651 128.562 139.215  0.00  0.00    +0.000 C 
ATOM     29  C   UNL     1     111.013 128.044 137.692  0.00  0.00    +0.000 C 
ATOM     30  C   UNL     1     111.400 128.257 139.050  0.00  0.00    +0.000 C 
ATOM     31  C   UNL     1     111.968 128.211 139.647  0.00  0.00    +0.000 C 
BRANCH  26  32
ATOM     32  O   UNL     1     109.697 128.394 137.260  0.00  0.00    +0.000 OA
BRANCH  32  37
ATOM     33  O   UNL     1     109.952 129.794 137.126  0.00  0.00    +0.000 OA
ATOM     34  O   UNL     1     108.544 128.491 136.084  0.00  0.00    +0.000 OA
ATOM     35  O   UNL     1     108.222 129.940 135.362  0.00  0.00    +0.000 OA
ATOM     36  O   UNL     1     109.054 131.290 135.816  0.00  0.00    +0.000 OA
ATOM     37  C   UNL     1     109.536 129.118 136.899  0.00  0.00    +0.000 C 
ATOM     38  C   UNL     1     108.960 129.167 136.311  0.00  0.00    +0.000 C 
ATOM     39  C   UNL     1     108.799 129.891 135.950  0.00  0.00    +0.000 C 
ATOM     40  C   UNL     1     109.215 130.566 136.177  0.00  0.00    +0.000 C 
ATOM     41  C   UNL     1     109.792 130.518 136.765  0.00  0.00    +0.000 C 
BRANCH  41  43
ATOM     42  O   UNL     1     111.013 131.255 136.830  0.00  0.00    +0.000 OA
ATOM     43  C   UNL     1     110.207 131.193 136.992  0.00  0.00    +0.000 C 
ENDBRANCH  41  43
ENDBRANCH  32  37
ENDBRANCH  26  32
ENDBRANCH   1  29
TORSDOF 6
ENDMDL
MODEL 9
REMARK VINA RESULT:      -9.8      1.838      4.491
REMARK  Name = 14238625
REMARK  6 active torsions:
REMARK  status: ('A' for Active; 'I' for Inactive)
REMARK    1  A    between atoms: O_1  and  C_17
REMARK    2  A    between atoms: O_1  and  C_19
REMARK    3  A    between atoms: O_4  and  C_23
REMARK    4  A    between atoms: O_4  and  C_29
REMARK    5  A    between atoms: C_26  and  C_27
REMARK    6  A    between atoms: C_30  and  C_33
REMARK                            x       y       z     vdW  Elec       q    Type
REMARK                         _______ _______ _______ _____ _____    ______ ____
ROOT
ATOM      1  O   UNL     1     111.732 127.576 137.683  0.00  0.00    +0.000 OA
ENDROOT
BRANCH   1   6
ATOM      2  O   UNL     1     112.119 129.335 136.452  0.00  0.00    +0.000 OA
ATOM      3  O   UNL     1     113.176 127.166 136.999  0.00  0.00    +0.000 OA
ATOM      4  O   UNL     1     114.290 127.458 136.130  0.00  0.00    +0.000 OA
ATOM      5  O   UNL     1     114.335 129.992 134.681  0.00  0.00    +0.000 OA
ATOM      6  C   UNL     1     112.101 128.094 137.159  0.00  0.00    +0.000 A 
ATOM      7  C   UNL     1     111.749 128.817 136.977  0.00  0.00    +0.000 A 
ATOM      8  C   UNL     1     112.824 127.889 136.817  0.00  0.00    +0.000 A 
ATOM      9  C   UNL     1     113.193 128.407 136.292  0.00  0.00    +0.000 A 
ATOM     10  C   UNL     1     112.841 129.131 136.110  0.00  0.00    +0.000 A 
ATOM     11  C   UNL     1     113.945 128.183 135.942  0.00  0.00    +0.000 A 
ATOM     12  C   UNL     1     113.216 129.680 135.565  0.00  0.00    +0.000 A 
ATOM     13  C   UNL     1     114.335 128.719 135.395  0.00  0.00    +0.000 A 
ATOM     14  C   UNL     1     113.968 129.472 135.205  0.00  0.00    +0.000 A 
BRANCH   7  17
ATOM     15  O   UNL     1     108.900 128.985 136.833  0.00  0.00    +0.000 OA
ATOM     16  O   UNL     1     108.862 129.640 138.347  0.00  0.00    +0.000 OA
ATOM     17  C   UNL     1     111.027 129.023 137.319  0.00  0.00    +0.000 A 
ATOM     18  C   UNL     1     110.324 128.901 136.905  0.00  0.00    +0.000 A 
ATOM     19  C   UNL     1     111.008 129.350 138.076  0.00  0.00    +0.000 A 
ATOM     20  C   UNL     1     109.602 129.107 137.247  0.00  0.00    +0.000 A 
ATOM     21  C   UNL     1     110.287 129.556 138.419  0.00  0.00    +0.000 A 
ATOM     22  C   UNL     1     109.583 129.434 138.004  0.00  0.00    +0.000 A 
ENDBRANCH   7  17
ENDBRANCH   1   6
BRANCH   1  29
ATOM     23  O   UNL     1     111.310 126.644 136.685  0.00  0.00    +0.000 OA
ATOM     24  O   UNL     1     111.607 124.786 138.293  0.00  0.00    +0.000 OA
ATOM     25  O   UNL     1     111.086 124.474 136.758  0.00  0.00    +0.000 OA
ATOM     26  C   UNL     1     111.669 126.180 137.988  0.00  0.00    +0.000 C 
ATOM     27  C   UNL     1     111.508 125.406 137.757  0.00  0.00    +0.000 C 
ATOM     28  C   UNL     1     111.248 125.250 136.990  0.00  0.00    +0.000 C 
ATOM     29  C   UNL     1     111.570 126.800 137.452  0.00  0.00    +0.000 C 
ATOM     30  C   UNL     1     111.149 125.869 136.454  0.00  0.00    +0.000 C 
ATOM     31  C   UNL     1     110.889 125.713 135.686  0.00  0.00    +0.000 C 
BRANCH  26  32
ATOM     32  O   UNL     1     111.929 126.337 138.755  0.00  0.00    +0.000 OA
BRANCH  32  37
ATOM     33  O   UNL     1     110.595 126.171 139.240  0.00  0.00    +0.000 OA
ATOM     34  O   UNL     1     112.443 126.678 140.286  0.00  0.00    +0.000 OA
ATOM     35  O   UNL     1     111.367 126.682 141.536  0.00  0.00    +0.000 OA
ATOM     36  O   UNL     1     109.776 126.346 141.256  0.00  0.00    +0.000 OA
ATOM     37  C   UNL     1     111.391 126.339 139.380  0.00  0.00    +0.000 C 
ATOM     38  C   UNL     1     111.647 126.510 140.146  0.00  0.00    +0.000 C 
ATOM     39  C   UNL     1     111.109 126.512 140.771  0.00  0.00    +0.000 C 
ATOM     40  C   UNL     1     110.314 126.344 140.631  0.00  0.00    +0.000 C 
ATOM     41  C   UNL     1     110.056 126.173 139.866  0.00  0.00    +0.000 C 
BRANCH  41  43
ATOM     42  O   UNL     1     108.799 126.531 139.292  0.00  0.00    +0.000 OA
ATOM     43  C   UNL     1     109.262 126.005 139.725  0.00  0.00    +0.000 C 
ENDBRANCH  41  43
ENDBRANCH  32  37
ENDBRANCH  26  32
ENDBRANCH   1  29
TORSDOF 6
ENDMDL
MODEL 10
REMARK VINA RESULT:      -9.8      1.740      3.788
REMARK  Name = 14238625
REMARK  6 active torsions:
REMARK  status: ('A' for Active; 'I' for Inactive)
REMARK    1  A    between atoms: O_1  and  C_17
REMARK    2  A    between atoms: O_1  and  C_19
REMARK    3  A    between atoms: O_4  and  C_23
REMARK    4  A    between atoms: O_4  and  C_29
REMARK    5  A    between atoms: C_26  and  C_27
REMARK    6  A    between atoms: C_30  and  C_33
REMARK                            x       y       z     vdW  Elec       q    Type
REMARK                         _______ _______ _______ _____ _____    ______ ____
ROOT
ATOM      1  O   UNL     1     112.293 127.869 137.770  0.00  0.00    +0.000 OA
ENDROOT
BRANCH   1   6
ATOM      2  O   UNL     1     113.722 127.722 136.127  0.00  0.00    +0.000 OA
ATOM      3  O   UNL     1     112.606 129.464 137.484  0.00  0.00    +0.000 OA
ATOM      4  O   UNL     1     113.284 130.507 136.755  0.00  0.00    +0.000 OA
ATOM      5  O   UNL     1     115.127 129.774 134.612  0.00  0.00    +0.000 OA
ATOM      6  C   UNL     1     112.822 128.086 137.175  0.00  0.00    +0.000 A 
ATOM      7  C   UNL     1     113.194 127.505 136.723  0.00  0.00    +0.000 A 
ATOM      8  C   UNL     1     112.978 128.883 137.032  0.00  0.00    +0.000 A 
ATOM      9  C   UNL     1     113.506 129.100 136.437  0.00  0.00    +0.000 A 
ATOM     10  C   UNL     1     113.879 128.519 135.984  0.00  0.00    +0.000 A 
ATOM     11  C   UNL     1     113.661 129.933 136.297  0.00  0.00    +0.000 A 
ATOM     12  C   UNL     1     114.431 128.732 135.361  0.00  0.00    +0.000 A 
ATOM     13  C   UNL     1     114.210 130.165 135.679  0.00  0.00    +0.000 A 
ATOM     14  C   UNL     1     114.598 129.561 135.208  0.00  0.00    +0.000 A 
BRANCH   7  17
ATOM     15  O   UNL     1     111.790 125.102 136.074  0.00  0.00    +0.000 OA
ATOM     16  O   UNL     1     112.572 124.315 137.294  0.00  0.00    +0.000 OA
ATOM     17  C   UNL     1     113.038 126.707 136.865  0.00  0.00    +0.000 A 
ATOM     18  C   UNL     1     112.492 126.303 136.398  0.00  0.00    +0.000 A 
ATOM     19  C   UNL     1     113.429 126.314 137.476  0.00  0.00    +0.000 A 
ATOM     20  C   UNL     1     112.336 125.506 136.541  0.00  0.00    +0.000 A 
ATOM     21  C   UNL     1     113.274 125.516 137.619  0.00  0.00    +0.000 A 
ATOM     22  C   UNL     1     112.727 125.112 137.151  0.00  0.00    +0.000 A 
ENDBRANCH   7  17
ENDBRANCH   1   6
BRANCH   1  29
ATOM     23  O   UNL     1     111.103 128.227 137.065  0.00  0.00    +0.000 OA
ATOM     24  O   UNL     1     110.070 128.972 139.186  0.00  0.00    +0.000 OA
ATOM     25  O   UNL     1     109.224 129.082 137.774  0.00  0.00    +0.000 OA
ATOM     26  C   UNL     1     111.181 128.421 138.479  0.00  0.00    +0.000 C 
ATOM     27  C   UNL     1     110.414 128.724 138.479  0.00  0.00    +0.000 C 
ATOM     28  C   UNL     1     109.992 128.778 137.773  0.00  0.00    +0.000 C 
ATOM     29  C   UNL     1     111.526 128.172 137.771  0.00  0.00    +0.000 C 
ATOM     30  C   UNL     1     110.336 128.530 137.066  0.00  0.00    +0.000 C 
ATOM     31  C   UNL     1     109.913 128.585 136.359  0.00  0.00    +0.000 C 
BRANCH  26  32
ATOM     32  O   UNL     1     111.604 128.366 139.185  0.00  0.00    +0.000 OA
BRANCH  32  37
ATOM     33  O   UNL     1     110.879 127.183 139.529  0.00  0.00    +0.000 OA
ATOM     34  O   UNL     1     112.355 128.333 140.654  0.00  0.00    +0.000 OA
ATOM     35  O   UNL     1     112.005 127.135 141.733  0.00  0.00    +0.000 OA
ATOM     36  O   UNL     1     110.905 125.969 141.342  0.00  0.00    +0.000 OA
ATOM     37  C   UNL     1     111.430 127.766 139.724  0.00  0.00    +0.000 C 
ATOM     38  C   UNL     1     111.804 127.750 140.459  0.00  0.00    +0.000 C 
ATOM     39  C   UNL     1     111.630 127.150 140.998  0.00  0.00    +0.000 C 
ATOM     40  C   UNL     1     111.080 126.568 140.803  0.00  0.00    +0.000 C 
ATOM     41  C   UNL     1     110.704 126.583 140.068  0.00  0.00    +0.000 C 
BRANCH  41  43
ATOM     42  O   UNL     1     110.378 125.366 139.397  0.00  0.00    +0.000 OA
ATOM     43  C   UNL     1     110.155 126.001 139.873  0.00  0.00    +0.000 C 
ENDBRANCH  41  43
ENDBRANCH  32  37
ENDBRANCH  26  32
ENDBRANCH   1  29
TORSDOF 6
ENDMDL
