MODEL 1
REMARK VINA RESULT:     -10.6      0.000      0.000
REMARK  Name = 44259999
REMARK  7 active torsions:
REMARK  status: ('A' for Active; 'I' for Inactive)
REMARK    1  A    between atoms: O_3  and  C_24
REMARK    2  A    between atoms: O_3  and  C_31
REMARK    3  A    between atoms: O_7  and  C_28
REMARK    4  A    between atoms: O_7  and  C_33
REMARK    5  A    between atoms: C_23  and  C_30
REMARK    6  A    between atoms: C_29  and  C_32
REMARK    7  A    between atoms: C_36  and  C_41
REMARK                            x       y       z     vdW  Elec       q    Type
REMARK                         _______ _______ _______ _____ _____    ______ ____
ROOT
ATOM      1  O   UNL     1     111.477 127.409 137.255  0.00  0.00    +0.000 OA
ATOM      2  O   UNL     1     111.022 125.359 139.272  0.00  0.00    +0.000 OA
ATOM      3  O   UNL     1     109.037 127.672 136.945  0.00  0.00    +0.000 OA
ATOM      4  O   UNL     1     108.772 126.661 137.940  0.00  0.00    +0.000 OA
ATOM      5  C   UNL     1     111.269 126.385 138.263  0.00  0.00    +0.000 A 
ATOM      6  C   UNL     1     110.374 128.043 136.606  0.00  0.00    +0.000 A 
ATOM      7  C   UNL     1     110.955 126.951 137.697  0.00  0.00    +0.000 A 
ATOM      8  C   UNL     1     110.141 127.038 137.595  0.00  0.00    +0.000 A 
ATOM      9  C   UNL     1     111.188 127.956 136.709  0.00  0.00    +0.000 A 
ATOM     10  C   UNL     1     109.851 127.584 137.049  0.00  0.00    +0.000 A 
ATOM     11  C   UNL     1     110.729 125.905 138.727  0.00  0.00    +0.000 A 
ATOM     12  C   UNL     1     109.585 126.567 138.049  0.00  0.00    +0.000 A 
ATOM     13  C   UNL     1     109.881 125.996 138.619  0.00  0.00    +0.000 A 
ENDROOT
BRANCH   9  16
ATOM     14  O   UNL     1     113.022 130.141 136.528  0.00  0.00    +0.000 OA
ATOM     15  O   UNL     1     113.283 129.789 134.937  0.00  0.00    +0.000 OA
ATOM     16  C   UNL     1     111.711 128.414 136.266  0.00  0.00    +0.000 A 
ATOM     17  C   UNL     1     112.105 129.049 136.618  0.00  0.00    +0.000 A 
ATOM     18  C   UNL     1     111.842 128.239 135.471  0.00  0.00    +0.000 A 
ATOM     19  C   UNL     1     112.629 129.507 136.176  0.00  0.00    +0.000 A 
ATOM     20  C   UNL     1     112.367 128.697 135.028  0.00  0.00    +0.000 A 
ATOM     21  C   UNL     1     112.759 129.330 135.380  0.00  0.00    +0.000 A 
ENDBRANCH   9  16
BRANCH   5  22
ATOM     22  O   UNL     1     112.084 126.304 138.359  0.00  0.00    +0.000 OA
BRANCH  22  31
ATOM     23  O   UNL     1     112.076 125.169 137.491  0.00  0.00    +0.000 OA
ATOM     24  O   UNL     1     114.540 125.019 137.664  0.00  0.00    +0.000 OA
ATOM     25  O   UNL     1     113.710 123.934 136.738  0.00  0.00    +0.000 OA
ATOM     26  O   UNL     1     113.727 126.204 138.475  0.00  0.00    +0.000 OA
ATOM     27  C   UNL     1     113.719 125.069 137.606  0.00  0.00    +0.000 C 
ATOM     28  C   UNL     1     113.304 124.527 137.144  0.00  0.00    +0.000 C 
ATOM     29  C   UNL     1     113.313 125.662 138.012  0.00  0.00    +0.000 C 
ATOM     30  C   UNL     1     112.483 124.577 137.086  0.00  0.00    +0.000 C 
ATOM     31  C   UNL     1     112.491 125.712 137.954  0.00  0.00    +0.000 C 
BRANCH  30  33
ATOM     32  O   UNL     1     111.637 124.295 135.969  0.00  0.00    +0.000 OA
ATOM     33  C   UNL     1     112.067 124.034 136.623  0.00  0.00    +0.000 C 
ENDBRANCH  30  33
ENDBRANCH  22  31
ENDBRANCH   5  22
BRANCH   6  34
ATOM     34  O   UNL     1     110.084 128.590 136.060  0.00  0.00    +0.000 OA
BRANCH  34  42
ATOM     35  O   UNL     1     109.683 129.524 137.065  0.00  0.00    +0.000 OA
ATOM     36  O   UNL     1     107.924 130.392 135.556  0.00  0.00    +0.000 OA
ATOM     37  O   UNL     1     108.911 129.168 135.054  0.00  0.00    +0.000 OA
ATOM     38  O   UNL     1     108.109 131.036 137.064  0.00  0.00    +0.000 OA
ATOM     39  C   UNL     1     108.510 130.102 136.059  0.00  0.00    +0.000 C 
ATOM     40  C   UNL     1     109.004 129.491 135.808  0.00  0.00    +0.000 C 
ATOM     41  C   UNL     1     108.603 130.425 136.813  0.00  0.00    +0.000 C 
ATOM     42  C   UNL     1     109.590 129.201 136.311  0.00  0.00    +0.000 C 
ATOM     43  C   UNL     1     109.190 130.135 137.315  0.00  0.00    +0.000 C 
BRANCH  43  46
ATOM     44  O   UNL     1     108.779 130.227 138.681  0.00  0.00    +0.000 OA
ATOM     45  O   UNL     1     109.880 131.008 138.212  0.00  0.00    +0.000 OA
ATOM     46  C   UNL     1     109.283 130.457 138.070  0.00  0.00    +0.000 C 
ENDBRANCH  43  46
ENDBRANCH  34  42
ENDBRANCH   6  34
TORSDOF 7
ENDMDL
MODEL 2
REMARK VINA RESULT:     -10.4      2.073      3.935
REMARK  Name = 44259999
REMARK  7 active torsions:
REMARK  status: ('A' for Active; 'I' for Inactive)
REMARK    1  A    between atoms: O_3  and  C_24
REMARK    2  A    between atoms: O_3  and  C_31
REMARK    3  A    between atoms: O_7  and  C_28
REMARK    4  A    between atoms: O_7  and  C_33
REMARK    5  A    between atoms: C_23  and  C_30
REMARK    6  A    between atoms: C_29  and  C_32
REMARK    7  A    between atoms: C_36  and  C_41
REMARK                            x       y       z     vdW  Elec       q    Type
REMARK                         _______ _______ _______ _____ _____    ______ ____
ROOT
ATOM      1  O   UNL     1     112.749 126.095 138.635  0.00  0.00    +0.000 OA
ATOM      2  O   UNL     1     111.637 126.977 141.178  0.00  0.00    +0.000 OA
ATOM      3  O   UNL     1     110.476 125.608 137.789  0.00  0.00    +0.000 OA
ATOM      4  O   UNL     1     109.889 126.037 139.035  0.00  0.00    +0.000 OA
ATOM      5  C   UNL     1     112.212 126.538 139.909  0.00  0.00    +0.000 A 
ATOM      6  C   UNL     1     111.890 125.636 137.589  0.00  0.00    +0.000 A 
ATOM      7  C   UNL     1     112.094 126.229 139.116  0.00  0.00    +0.000 A 
ATOM      8  C   UNL     1     111.335 126.067 138.834  0.00  0.00    +0.000 A 
ATOM      9  C   UNL     1     112.648 125.799 137.871  0.00  0.00    +0.000 A 
ATOM     10  C   UNL     1     111.234 125.771 138.071  0.00  0.00    +0.000 A 
ATOM     11  C   UNL     1     111.533 126.680 140.415  0.00  0.00    +0.000 A 
ATOM     12  C   UNL     1     110.643 126.202 139.325  0.00  0.00    +0.000 A 
ATOM     13  C   UNL     1     110.743 126.511 140.121  0.00  0.00    +0.000 A 
ENDROOT
BRANCH   9  16
ATOM     14  O   UNL     1     114.699 126.794 136.146  0.00  0.00    +0.000 OA
ATOM     15  O   UNL     1     115.275 125.261 135.948  0.00  0.00    +0.000 OA
ATOM     16  C   UNL     1     113.305 125.665 137.390  0.00  0.00    +0.000 A 
ATOM     17  C   UNL     1     113.673 126.296 137.008  0.00  0.00    +0.000 A 
ATOM     18  C   UNL     1     113.594 124.899 137.291  0.00  0.00    +0.000 A 
ATOM     19  C   UNL     1     114.330 126.163 136.528  0.00  0.00    +0.000 A 
ATOM     20  C   UNL     1     114.251 124.764 136.810  0.00  0.00    +0.000 A 
ATOM     21  C   UNL     1     114.619 125.395 136.429  0.00  0.00    +0.000 A 
ENDBRANCH   9  16
BRANCH   5  22
ATOM     22  O   UNL     1     112.974 126.698 140.182  0.00  0.00    +0.000 OA
BRANCH  22  31
ATOM     23  O   UNL     1     112.847 128.062 139.774  0.00  0.00    +0.000 OA
ATOM     24  O   UNL     1     114.951 128.611 140.956  0.00  0.00    +0.000 OA
ATOM     25  O   UNL     1     114.123 129.791 140.154  0.00  0.00    +0.000 OA
ATOM     26  O   UNL     1     114.376 127.064 140.970  0.00  0.00    +0.000 OA
ATOM     27  C   UNL     1     114.250 128.428 140.562  0.00  0.00    +0.000 C 
ATOM     28  C   UNL     1     113.836 129.018 140.161  0.00  0.00    +0.000 C 
ATOM     29  C   UNL     1     113.963 127.654 140.570  0.00  0.00    +0.000 C 
ATOM     30  C   UNL     1     113.135 128.835 139.767  0.00  0.00    +0.000 C 
ATOM     31  C   UNL     1     113.262 127.471 140.176  0.00  0.00    +0.000 C 
BRANCH  30  33
ATOM     32  O   UNL     1     112.650 129.393 138.544  0.00  0.00    +0.000 OA
ATOM     33  C   UNL     1     112.721 129.425 139.366  0.00  0.00    +0.000 C 
ENDBRANCH  30  33
ENDBRANCH  22  31
ENDBRANCH   5  22
BRANCH   6  34
ATOM     34  O   UNL     1     111.788 125.340 136.827  0.00  0.00    +0.000 OA
BRANCH  34  42
ATOM     35  O   UNL     1     111.346 126.585 136.281  0.00  0.00    +0.000 OA
ATOM     36  O   UNL     1     109.969 125.368 134.623  0.00  0.00    +0.000 OA
ATOM     37  O   UNL     1     110.870 124.529 135.721  0.00  0.00    +0.000 OA
ATOM     38  O   UNL     1     109.986 127.018 134.630  0.00  0.00    +0.000 OA
ATOM     39  C   UNL     1     110.428 125.773 135.175  0.00  0.00    +0.000 C 
ATOM     40  C   UNL     1     110.879 125.354 135.725  0.00  0.00    +0.000 C 
ATOM     41  C   UNL     1     110.437 126.599 135.179  0.00  0.00    +0.000 C 
ATOM     42  C   UNL     1     111.338 125.759 136.277  0.00  0.00    +0.000 C 
ATOM     43  C   UNL     1     110.896 127.003 135.732  0.00  0.00    +0.000 C 
BRANCH  43  46
ATOM     44  O   UNL     1     110.310 128.245 136.128  0.00  0.00    +0.000 OA
ATOM     45  O   UNL     1     111.508 128.237 135.349  0.00  0.00    +0.000 OA
ATOM     46  C   UNL     1     110.905 127.829 135.736  0.00  0.00    +0.000 C 
ENDBRANCH  43  46
ENDBRANCH  34  42
ENDBRANCH   6  34
TORSDOF 7
ENDMDL
MODEL 3
REMARK VINA RESULT:     -10.2      1.452      5.601
REMARK  Name = 44259999
REMARK  7 active torsions:
REMARK  status: ('A' for Active; 'I' for Inactive)
REMARK    1  A    between atoms: O_3  and  C_24
REMARK    2  A    between atoms: O_3  and  C_31
REMARK    3  A    between atoms: O_7  and  C_28
REMARK    4  A    between atoms: O_7  and  C_33
REMARK    5  A    between atoms: C_23  and  C_30
REMARK    6  A    between atoms: C_29  and  C_32
REMARK    7  A    between atoms: C_36  and  C_41
REMARK                            x       y       z     vdW  Elec       q    Type
REMARK                         _______ _______ _______ _____ _____    ______ ____
ROOT
ATOM      1  O   UNL     1     112.485 128.458 138.449  0.00  0.00    +0.000 OA
ATOM      2  O   UNL     1     112.188 130.749 136.677  0.00  0.00    +0.000 OA
ATOM      3  O   UNL     1     113.670 127.212 136.670  0.00  0.00    +0.000 OA
ATOM      4  O   UNL     1     113.541 128.327 135.763  0.00  0.00    +0.000 OA
ATOM      5  C   UNL     1     112.328 129.609 137.579  0.00  0.00    +0.000 A 
ATOM      6  C   UNL     1     113.148 127.275 137.998  0.00  0.00    +0.000 A 
ATOM      7  C   UNL     1     112.612 128.809 137.715  0.00  0.00    +0.000 A 
ATOM      8  C   UNL     1     113.007 128.394 137.121  0.00  0.00    +0.000 A 
ATOM      9  C   UNL     1     112.753 127.690 138.592  0.00  0.00    +0.000 A 
ATOM     10  C   UNL     1     113.275 127.627 137.263  0.00  0.00    +0.000 A 
ATOM     11  C   UNL     1     112.457 129.981 136.816  0.00  0.00    +0.000 A 
ATOM     12  C   UNL     1     113.145 128.750 136.351  0.00  0.00    +0.000 A 
ATOM     13  C   UNL     1     112.869 129.548 136.197  0.00  0.00    +0.000 A 
ENDROOT
BRANCH   9  16
ATOM     14  O   UNL     1     111.016 126.372 140.439  0.00  0.00    +0.000 OA
ATOM     15  O   UNL     1     112.247 126.284 141.534  0.00  0.00    +0.000 OA
ATOM     16  C   UNL     1     112.626 127.338 139.327  0.00  0.00    +0.000 A 
ATOM     17  C   UNL     1     111.885 127.031 139.515  0.00  0.00    +0.000 A 
ATOM     18  C   UNL     1     113.242 127.294 139.874  0.00  0.00    +0.000 A 
ATOM     19  C   UNL     1     111.757 126.679 140.250  0.00  0.00    +0.000 A 
ATOM     20  C   UNL     1     113.115 126.943 140.610  0.00  0.00    +0.000 A 
ATOM     21  C   UNL     1     112.374 126.635 140.798  0.00  0.00    +0.000 A 
ENDBRANCH   9  16
BRANCH   5  22
ATOM     22  O   UNL     1     111.934 130.017 138.178  0.00  0.00    +0.000 OA
BRANCH  22  31
ATOM     23  O   UNL     1     110.669 129.583 137.676  0.00  0.00    +0.000 OA
ATOM     24  O   UNL     1     109.531 131.271 139.084  0.00  0.00    +0.000 OA
ATOM     25  O   UNL     1     108.645 130.274 138.113  0.00  0.00    +0.000 OA
ATOM     26  O   UNL     1     111.176 131.143 139.117  0.00  0.00    +0.000 OA
ATOM     27  C   UNL     1     109.911 130.708 138.615  0.00  0.00    +0.000 C 
ATOM     28  C   UNL     1     109.468 130.210 138.130  0.00  0.00    +0.000 C 
ATOM     29  C   UNL     1     110.733 130.645 138.632  0.00  0.00    +0.000 C 
ATOM     30  C   UNL     1     109.847 129.648 137.661  0.00  0.00    +0.000 C 
ATOM     31  C   UNL     1     111.112 130.082 138.162  0.00  0.00    +0.000 C 
BRANCH  30  33
ATOM     32  O   UNL     1     109.365 128.341 137.339  0.00  0.00    +0.000 OA
ATOM     33  C   UNL     1     109.403 129.149 137.175  0.00  0.00    +0.000 C 
ENDBRANCH  30  33
ENDBRANCH  22  31
ENDBRANCH   5  22
BRANCH   6  34
ATOM     34  O   UNL     1     113.416 126.508 138.140  0.00  0.00    +0.000 OA
BRANCH  34  42
ATOM     35  O   UNL     1     112.379 125.900 137.367  0.00  0.00    +0.000 OA
ATOM     36  O   UNL     1     113.862 123.977 136.890  0.00  0.00    +0.000 OA
ATOM     37  O   UNL     1     114.405 125.226 137.821  0.00  0.00    +0.000 OA
ATOM     38  O   UNL     1     112.331 124.009 136.276  0.00  0.00    +0.000 OA
ATOM     39  C   UNL     1     113.368 124.618 137.049  0.00  0.00    +0.000 C 
ATOM     40  C   UNL     1     113.639 125.242 137.515  0.00  0.00    +0.000 C 
ATOM     41  C   UNL     1     112.602 124.634 136.742  0.00  0.00    +0.000 C 
ATOM     42  C   UNL     1     113.145 125.883 137.674  0.00  0.00    +0.000 C 
ATOM     43  C   UNL     1     112.108 125.276 136.902  0.00  0.00    +0.000 C 
BRANCH  43  46
ATOM     44  O   UNL     1     111.221 125.469 135.799  0.00  0.00    +0.000 OA
ATOM     45  O   UNL     1     110.698 125.132 137.085  0.00  0.00    +0.000 OA
ATOM     46  C   UNL     1     111.342 125.292 136.595  0.00  0.00    +0.000 C 
ENDBRANCH  43  46
ENDBRANCH  34  42
ENDBRANCH   6  34
TORSDOF 7
ENDMDL
MODEL 4
REMARK VINA RESULT:     -10.1      1.576      5.054
REMARK  Name = 44259999
REMARK  7 active torsions:
REMARK  status: ('A' for Active; 'I' for Inactive)
REMARK    1  A    between atoms: O_3  and  C_24
REMARK    2  A    between atoms: O_3  and  C_31
REMARK    3  A    between atoms: O_7  and  C_28
REMARK    4  A    between atoms: O_7  and  C_33
REMARK    5  A    between atoms: C_23  and  C_30
REMARK    6  A    between atoms: C_29  and  C_32
REMARK    7  A    between atoms: C_36  and  C_41
REMARK                            x       y       z     vdW  Elec       q    Type
REMARK                         _______ _______ _______ _____ _____    ______ ____
ROOT
ATOM      1  O   UNL     1     110.680 129.964 135.791  0.00  0.00    +0.000 OA
ATOM      2  O   UNL     1     108.218 131.428 136.316  0.00  0.00    +0.000 OA
ATOM      3  O   UNL     1     109.389 127.882 135.444  0.00  0.00    +0.000 OA
ATOM      4  O   UNL     1     108.149 128.574 135.698  0.00  0.00    +0.000 OA
ATOM      5  C   UNL     1     109.462 130.709 136.055  0.00  0.00    +0.000 A 
ATOM      6  C   UNL     1     110.641 128.568 135.489  0.00  0.00    +0.000 A 
ATOM      7  C   UNL     1     109.859 129.972 135.861  0.00  0.00    +0.000 A 
ATOM      8  C   UNL     1     109.428 129.278 135.745  0.00  0.00    +0.000 A 
ATOM      9  C   UNL     1     111.072 129.262 135.604  0.00  0.00    +0.000 A 
ATOM     10  C   UNL     1     109.819 128.577 135.559  0.00  0.00    +0.000 A 
ATOM     11  C   UNL     1     108.607 130.724 136.130  0.00  0.00    +0.000 A 
ATOM     12  C   UNL     1     108.571 129.273 135.816  0.00  0.00    +0.000 A 
ATOM     13  C   UNL     1     108.158 130.000 136.009  0.00  0.00    +0.000 A 
ENDROOT
BRANCH   9  16
ATOM     14  O   UNL     1     113.661 129.307 136.815  0.00  0.00    +0.000 OA
ATOM     15  O   UNL     1     114.359 129.233 135.321  0.00  0.00    +0.000 OA
ATOM     16  C   UNL     1     111.893 129.255 135.534  0.00  0.00    +0.000 A 
ATOM     17  C   UNL     1     112.366 129.284 136.210  0.00  0.00    +0.000 A 
ATOM     18  C   UNL     1     112.243 129.218 134.788  0.00  0.00    +0.000 A 
ATOM     19  C   UNL     1     113.188 129.277 136.139  0.00  0.00    +0.000 A 
ATOM     20  C   UNL     1     113.065 129.211 134.717  0.00  0.00    +0.000 A 
ATOM     21  C   UNL     1     113.538 129.240 135.392  0.00  0.00    +0.000 A 
ENDBRANCH   9  16
BRANCH   5  22
ATOM     22  O   UNL     1     109.900 131.399 136.169  0.00  0.00    +0.000 OA
BRANCH  22  31
ATOM     23  O   UNL     1     109.966 131.199 137.583  0.00  0.00    +0.000 OA
ATOM     24  O   UNL     1     110.379 133.618 137.905  0.00  0.00    +0.000 OA
ATOM     25  O   UNL     1     110.307 132.612 139.211  0.00  0.00    +0.000 OA
ATOM     26  O   UNL     1     110.176 133.011 136.384  0.00  0.00    +0.000 OA
ATOM     27  C   UNL     1     110.241 132.812 137.798  0.00  0.00    +0.000 C 
ATOM     28  C   UNL     1     110.205 132.309 138.450  0.00  0.00    +0.000 C 
ATOM     29  C   UNL     1     110.140 132.509 137.037  0.00  0.00    +0.000 C 
ATOM     30  C   UNL     1     110.067 131.503 138.343  0.00  0.00    +0.000 C 
ATOM     31  C   UNL     1     110.002 131.703 136.929  0.00  0.00    +0.000 C 
BRANCH  30  33
ATOM     32  O   UNL     1     110.560 130.370 139.061  0.00  0.00    +0.000 OA
ATOM     33  C   UNL     1     110.031 131.000 138.996  0.00  0.00    +0.000 C 
ENDBRANCH  30  33
ENDBRANCH  22  31
ENDBRANCH   5  22
BRANCH   6  34
ATOM     34  O   UNL     1     111.032 127.866 135.303  0.00  0.00    +0.000 OA
BRANCH  34  42
ATOM     35  O   UNL     1     110.925 127.307 136.613  0.00  0.00    +0.000 OA
ATOM     36  O   UNL     1     110.789 125.038 135.633  0.00  0.00    +0.000 OA
ATOM     37  O   UNL     1     110.941 126.354 134.649  0.00  0.00    +0.000 OA
ATOM     38  O   UNL     1     110.727 125.234 137.270  0.00  0.00    +0.000 OA
ATOM     39  C   UNL     1     110.834 125.794 135.960  0.00  0.00    +0.000 C 
ATOM     40  C   UNL     1     110.910 126.452 135.468  0.00  0.00    +0.000 C 
ATOM     41  C   UNL     1     110.803 125.892 136.779  0.00  0.00    +0.000 C 
ATOM     42  C   UNL     1     110.956 127.208 135.794  0.00  0.00    +0.000 C 
ATOM     43  C   UNL     1     110.849 126.649 137.104  0.00  0.00    +0.000 C 
BRANCH  43  46
ATOM     44  O   UNL     1     110.089 126.775 138.308  0.00  0.00    +0.000 OA
ATOM     45  O   UNL     1     111.516 126.819 138.357  0.00  0.00    +0.000 OA
ATOM     46  C   UNL     1     110.818 126.748 137.923  0.00  0.00    +0.000 C 
ENDBRANCH  43  46
ENDBRANCH  34  42
ENDBRANCH   6  34
TORSDOF 7
ENDMDL
MODEL 5
REMARK VINA RESULT:     -10.1      2.512      4.681
REMARK  Name = 44259999
REMARK  7 active torsions:
REMARK  status: ('A' for Active; 'I' for Inactive)
REMARK    1  A    between atoms: O_3  and  C_24
REMARK    2  A    between atoms: O_3  and  C_31
REMARK    3  A    between atoms: O_7  and  C_28
REMARK    4  A    between atoms: O_7  and  C_33
REMARK    5  A    between atoms: C_23  and  C_30
REMARK    6  A    between atoms: C_29  and  C_32
REMARK    7  A    between atoms: C_36  and  C_41
REMARK                            x       y       z     vdW  Elec       q    Type
REMARK                         _______ _______ _______ _____ _____    ______ ____
ROOT
ATOM      1  O   UNL     1     112.981 127.943 138.596  0.00  0.00    +0.000 OA
ATOM      2  O   UNL     1     113.359 127.364 141.425  0.00  0.00    +0.000 OA
ATOM      3  O   UNL     1     111.196 126.235 138.467  0.00  0.00    +0.000 OA
ATOM      4  O   UNL     1     111.354 125.921 139.866  0.00  0.00    +0.000 OA
ATOM      5  C   UNL     1     113.183 127.667 140.008  0.00  0.00    +0.000 A 
ATOM      6  C   UNL     1     111.999 127.234 137.838  0.00  0.00    +0.000 A 
ATOM      7  C   UNL     1     112.773 127.513 139.268  0.00  0.00    +0.000 A 
ATOM      8  C   UNL     1     112.177 126.943 139.226  0.00  0.00    +0.000 A 
ATOM      9  C   UNL     1     112.594 127.804 137.880  0.00  0.00    +0.000 A 
ATOM     10  C   UNL     1     111.791 126.804 138.510  0.00  0.00    +0.000 A 
ATOM     11  C   UNL     1     112.970 127.223 140.711  0.00  0.00    +0.000 A 
ATOM     12  C   UNL     1     111.951 126.489 139.918  0.00  0.00    +0.000 A 
ATOM     13  C   UNL     1     112.349 126.629 140.666  0.00  0.00    +0.000 A 
ENDROOT
BRANCH   9  16
ATOM     14  O   UNL     1     114.386 128.284 135.706  0.00  0.00    +0.000 OA
ATOM     15  O   UNL     1     113.429 129.527 135.193  0.00  0.00    +0.000 OA
ATOM     16  C   UNL     1     112.803 128.234 137.209  0.00  0.00    +0.000 A 
ATOM     17  C   UNL     1     113.490 128.044 136.793  0.00  0.00    +0.000 A 
ATOM     18  C   UNL     1     112.325 128.855 136.952  0.00  0.00    +0.000 A 
ATOM     19  C   UNL     1     113.699 128.474 136.121  0.00  0.00    +0.000 A 
ATOM     20  C   UNL     1     112.534 129.286 136.280  0.00  0.00    +0.000 A 
ATOM     21  C   UNL     1     113.220 129.096 135.865  0.00  0.00    +0.000 A 
ENDBRANCH   9  16
BRANCH   5  22
ATOM     22  O   UNL     1     113.777 128.239 140.042  0.00  0.00    +0.000 OA
BRANCH  22  31
ATOM     23  O   UNL     1     112.842 129.226 140.483  0.00  0.00    +0.000 OA
ATOM     24  O   UNL     1     114.715 130.684 141.185  0.00  0.00    +0.000 OA
ATOM     25  O   UNL     1     113.157 131.185 141.391  0.00  0.00    +0.000 OA
ATOM     26  O   UNL     1     115.025 129.211 140.510  0.00  0.00    +0.000 OA
ATOM     27  C   UNL     1     114.091 130.198 140.951  0.00  0.00    +0.000 C 
ATOM     28  C   UNL     1     113.312 130.449 141.054  0.00  0.00    +0.000 C 
ATOM     29  C   UNL     1     114.246 129.461 140.613  0.00  0.00    +0.000 C 
ATOM     30  C   UNL     1     112.688 129.963 140.820  0.00  0.00    +0.000 C 
ATOM     31  C   UNL     1     113.622 128.975 140.379  0.00  0.00    +0.000 C 
BRANCH  30  33
ATOM     32  O   UNL     1     111.427 130.344 140.266  0.00  0.00    +0.000 OA
ATOM     33  C   UNL     1     111.908 130.213 140.923  0.00  0.00    +0.000 C 
ENDBRANCH  30  33
ENDBRANCH  22  31
ENDBRANCH   5  22
BRANCH   6  34
ATOM     34  O   UNL     1     111.613 127.095 137.123  0.00  0.00    +0.000 OA
BRANCH  34  42
ATOM     35  O   UNL     1     112.288 125.858 136.882  0.00  0.00    +0.000 OA
ATOM     36  O   UNL     1     110.341 125.048 135.586  0.00  0.00    +0.000 OA
ATOM     37  O   UNL     1     110.315 126.555 136.258  0.00  0.00    +0.000 OA
ATOM     38  O   UNL     1     111.665 124.082 135.777  0.00  0.00    +0.000 OA
ATOM     39  C   UNL     1     110.990 125.318 136.018  0.00  0.00    +0.000 C 
ATOM     40  C   UNL     1     110.977 126.071 136.354  0.00  0.00    +0.000 C 
ATOM     41  C   UNL     1     111.652 124.835 136.114  0.00  0.00    +0.000 C 
ATOM     42  C   UNL     1     111.626 126.342 136.786  0.00  0.00    +0.000 C 
ATOM     43  C   UNL     1     112.301 125.106 136.546  0.00  0.00    +0.000 C 
BRANCH  43  46
ATOM     44  O   UNL     1     112.952 124.015 137.200  0.00  0.00    +0.000 OA
ATOM     45  O   UNL     1     113.635 124.748 136.180  0.00  0.00    +0.000 OA
ATOM     46  C   UNL     1     112.963 124.623 136.642  0.00  0.00    +0.000 C 
ENDBRANCH  43  46
ENDBRANCH  34  42
ENDBRANCH   6  34
TORSDOF 7
ENDMDL
MODEL 6
REMARK VINA RESULT:     -10.1      1.397      1.948
REMARK  Name = 44259999
REMARK  7 active torsions:
REMARK  status: ('A' for Active; 'I' for Inactive)
REMARK    1  A    between atoms: O_3  and  C_24
REMARK    2  A    between atoms: O_3  and  C_31
REMARK    3  A    between atoms: O_7  and  C_28
REMARK    4  A    between atoms: O_7  and  C_33
REMARK    5  A    between atoms: C_23  and  C_30
REMARK    6  A    between atoms: C_29  and  C_32
REMARK    7  A    between atoms: C_36  and  C_41
REMARK                            x       y       z     vdW  Elec       q    Type
REMARK                         _______ _______ _______ _____ _____    ______ ____
ROOT
ATOM      1  O   UNL     1     112.924 128.000 137.498  0.00  0.00    +0.000 OA
ATOM      2  O   UNL     1     112.353 126.087 139.618  0.00  0.00    +0.000 OA
ATOM      3  O   UNL     1     110.837 129.224 138.016  0.00  0.00    +0.000 OA
ATOM      4  O   UNL     1     110.521 128.296 139.074  0.00  0.00    +0.000 OA
ATOM      5  C   UNL     1     112.655 127.037 138.551  0.00  0.00    +0.000 A 
ATOM      6  C   UNL     1     112.024 129.079 137.236  0.00  0.00    +0.000 A 
ATOM      7  C   UNL     1     112.432 127.737 138.105  0.00  0.00    +0.000 A 
ATOM      8  C   UNL     1     111.736 128.145 138.278  0.00  0.00    +0.000 A 
ATOM      9  C   UNL     1     112.720 128.671 137.062  0.00  0.00    +0.000 A 
ATOM     10  C   UNL     1     111.533 128.815 137.843  0.00  0.00    +0.000 A 
ATOM     11  C   UNL     1     112.147 126.758 139.184  0.00  0.00    +0.000 A 
ATOM     12  C   UNL     1     111.215 127.881 138.908  0.00  0.00    +0.000 A 
ATOM     13  C   UNL     1     111.421 127.184 139.365  0.00  0.00    +0.000 A 
ENDROOT
BRANCH   9  16
ATOM     14  O   UNL     1     114.697 130.492 136.089  0.00  0.00    +0.000 OA
ATOM     15  O   UNL     1     114.689 129.720 134.631  0.00  0.00    +0.000 OA
ATOM     16  C   UNL     1     113.212 128.934 136.455  0.00  0.00    +0.000 A 
ATOM     17  C   UNL     1     113.708 129.582 136.576  0.00  0.00    +0.000 A 
ATOM     18  C   UNL     1     113.209 128.547 135.726  0.00  0.00    +0.000 A 
ATOM     19  C   UNL     1     114.201 129.844 135.968  0.00  0.00    +0.000 A 
ATOM     20  C   UNL     1     113.702 128.810 135.118  0.00  0.00    +0.000 A 
ATOM     21  C   UNL     1     114.197 129.457 135.238  0.00  0.00    +0.000 A 
ENDBRANCH   9  16
BRANCH   5  22
ATOM     22  O   UNL     1     113.353 126.635 138.371  0.00  0.00    +0.000 OA
BRANCH  22  31
ATOM     23  O   UNL     1     112.628 125.731 137.534  0.00  0.00    +0.000 OA
ATOM     24  O   UNL     1     114.649 124.321 137.307  0.00  0.00    +0.000 OA
ATOM     25  O   UNL     1     113.251 123.887 136.546  0.00  0.00    +0.000 OA
ATOM     26  O   UNL     1     114.700 125.695 138.219  0.00  0.00    +0.000 OA
ATOM     27  C   UNL     1     113.975 124.791 137.383  0.00  0.00    +0.000 C 
ATOM     28  C   UNL     1     113.277 124.574 137.003  0.00  0.00    +0.000 C 
ATOM     29  C   UNL     1     114.002 125.478 137.839  0.00  0.00    +0.000 C 
ATOM     30  C   UNL     1     112.603 125.044 137.078  0.00  0.00    +0.000 C 
ATOM     31  C   UNL     1     113.328 125.948 137.915  0.00  0.00    +0.000 C 
BRANCH  30  33
ATOM     32  O   UNL     1     111.613 125.286 136.077  0.00  0.00    +0.000 OA
ATOM     33  C   UNL     1     111.903 124.827 136.698  0.00  0.00    +0.000 C 
ENDBRANCH  30  33
ENDBRANCH  22  31
ENDBRANCH   5  22
BRANCH   6  34
ATOM     34  O   UNL     1     111.821 129.750 136.801  0.00  0.00    +0.000 OA
BRANCH  34  42
ATOM     35  O   UNL     1     110.792 129.082 136.068  0.00  0.00    +0.000 OA
ATOM     36  O   UNL     1     109.589 131.229 135.800  0.00  0.00    +0.000 OA
ATOM     37  O   UNL     1     111.019 131.181 136.623  0.00  0.00    +0.000 OA
ATOM     38  O   UNL     1     108.961 129.846 135.156  0.00  0.00    +0.000 OA
ATOM     39  C   UNL     1     109.990 130.513 135.890  0.00  0.00    +0.000 C 
ATOM     40  C   UNL     1     110.705 130.489 136.301  0.00  0.00    +0.000 C 
ATOM     41  C   UNL     1     109.676 129.821 135.567  0.00  0.00    +0.000 C 
ATOM     42  C   UNL     1     111.106 129.774 136.390  0.00  0.00    +0.000 C 
ATOM     43  C   UNL     1     110.078 129.106 135.657  0.00  0.00    +0.000 C 
BRANCH  43  46
ATOM     44  O   UNL     1     110.045 128.131 134.612  0.00  0.00    +0.000 OA
ATOM     45  O   UNL     1     109.169 128.006 135.734  0.00  0.00    +0.000 OA
ATOM     46  C   UNL     1     109.764 128.414 135.335  0.00  0.00    +0.000 C 
ENDBRANCH  43  46
ENDBRANCH  34  42
ENDBRANCH   6  34
TORSDOF 7
ENDMDL
MODEL 7
REMARK VINA RESULT:     -10.0      1.322      4.971
REMARK  Name = 44259999
REMARK  7 active torsions:
REMARK  status: ('A' for Active; 'I' for Inactive)
REMARK    1  A    between atoms: O_3  and  C_24
REMARK    2  A    between atoms: O_3  and  C_31
REMARK    3  A    between atoms: O_7  and  C_28
REMARK    4  A    between atoms: O_7  and  C_33
REMARK    5  A    between atoms: C_23  and  C_30
REMARK    6  A    between atoms: C_29  and  C_32
REMARK    7  A    between atoms: C_36  and  C_41
REMARK                            x       y       z     vdW  Elec       q    Type
REMARK                         _______ _______ _______ _____ _____    ______ ____
ROOT
ATOM      1  O   UNL     1     110.971 128.697 135.785  0.00  0.00    +0.000 OA
ATOM      2  O   UNL     1     108.090 128.276 135.747  0.00  0.00    +0.000 OA
ATOM      3  O   UNL     1     111.320 126.368 136.543  0.00  0.00    +0.000 OA
ATOM      4  O   UNL     1     109.899 126.122 136.537  0.00  0.00    +0.000 OA
ATOM      5  C   UNL     1     109.532 128.504 135.760  0.00  0.00    +0.000 A 
ATOM      6  C   UNL     1     111.852 127.640 136.172  0.00  0.00    +0.000 A 
ATOM      7  C   UNL     1     110.324 128.201 135.903  0.00  0.00    +0.000 A 
ATOM      8  C   UNL     1     110.440 127.425 136.156  0.00  0.00    +0.000 A 
ATOM      9  C   UNL     1     111.736 128.417 135.919  0.00  0.00    +0.000 A 
ATOM     10  C   UNL     1     111.204 127.145 136.290  0.00  0.00    +0.000 A 
ATOM     11  C   UNL     1     108.854 127.993 135.882  0.00  0.00    +0.000 A 
ATOM     12  C   UNL     1     109.773 126.897 136.284  0.00  0.00    +0.000 A 
ATOM     13  C   UNL     1     108.975 127.183 136.146  0.00  0.00    +0.000 A 
ENDROOT
BRANCH   9  16
ATOM     14  O   UNL     1     113.379 130.593 136.778  0.00  0.00    +0.000 OA
ATOM     15  O   UNL     1     114.327 130.403 135.441  0.00  0.00    +0.000 OA
ATOM     16  C   UNL     1     112.384 128.914 135.800  0.00  0.00    +0.000 A 
ATOM     17  C   UNL     1     112.558 129.505 136.348  0.00  0.00    +0.000 A 
ATOM     18  C   UNL     1     112.858 128.819 135.132  0.00  0.00    +0.000 A 
ATOM     19  C   UNL     1     113.205 130.002 136.229  0.00  0.00    +0.000 A 
ATOM     20  C   UNL     1     113.506 129.316 135.012  0.00  0.00    +0.000 A 
ATOM     21  C   UNL     1     113.680 129.907 135.560  0.00  0.00    +0.000 A 
ENDBRANCH   9  16
BRANCH   5  22
ATOM     22  O   UNL     1     109.426 129.282 135.507  0.00  0.00    +0.000 OA
BRANCH  22  31
ATOM     23  O   UNL     1     109.269 129.757 136.846  0.00  0.00    +0.000 OA
ATOM     24  O   UNL     1     108.091 131.761 135.998  0.00  0.00    +0.000 OA
ATOM     25  O   UNL     1     108.327 131.568 137.619  0.00  0.00    +0.000 OA
ATOM     26  O   UNL     1     108.640 130.618 134.942  0.00  0.00    +0.000 OA
ATOM     27  C   UNL     1     108.484 131.093 136.281  0.00  0.00    +0.000 C 
ATOM     28  C   UNL     1     108.602 130.997 137.091  0.00  0.00    +0.000 C 
ATOM     29  C   UNL     1     108.758 130.522 135.752  0.00  0.00    +0.000 C 
ATOM     30  C   UNL     1     108.995 130.329 137.373  0.00  0.00    +0.000 C 
ATOM     31  C   UNL     1     109.151 129.854 136.035  0.00  0.00    +0.000 C 
BRANCH  30  33
ATOM     32  O   UNL     1     109.878 130.143 138.481  0.00  0.00    +0.000 OA
ATOM     33  C   UNL     1     109.113 130.232 138.185  0.00  0.00    +0.000 C 
ENDBRANCH  30  33
ENDBRANCH  22  31
ENDBRANCH   5  22
BRANCH   6  34
ATOM     34  O   UNL     1     112.616 127.360 136.306  0.00  0.00    +0.000 OA
BRANCH  34  42
ATOM     35  O   UNL     1     112.523 127.452 137.729  0.00  0.00    +0.000 OA
ATOM     36  O   UNL     1     114.089 125.549 137.953  0.00  0.00    +0.000 OA
ATOM     37  O   UNL     1     113.661 126.091 136.455  0.00  0.00    +0.000 OA
ATOM     38  O   UNL     1     113.474 126.274 139.302  0.00  0.00    +0.000 OA
ATOM     39  C   UNL     1     113.567 126.183 137.878  0.00  0.00    +0.000 C 
ATOM     40  C   UNL     1     113.353 126.454 137.130  0.00  0.00    +0.000 C 
ATOM     41  C   UNL     1     113.260 126.546 138.553  0.00  0.00    +0.000 C 
ATOM     42  C   UNL     1     112.831 127.089 137.055  0.00  0.00    +0.000 C 
ATOM     43  C   UNL     1     112.738 127.180 138.477  0.00  0.00    +0.000 C 
BRANCH  43  46
ATOM     44  O   UNL     1     112.789 128.222 139.455  0.00  0.00    +0.000 OA
ATOM     45  O   UNL     1     111.764 127.229 139.522  0.00  0.00    +0.000 OA
ATOM     46  C   UNL     1     112.430 127.544 139.151  0.00  0.00    +0.000 C 
ENDBRANCH  43  46
ENDBRANCH  34  42
ENDBRANCH   6  34
TORSDOF 7
ENDMDL
MODEL 8
REMARK VINA RESULT:     -10.0      1.980      4.406
REMARK  Name = 44259999
REMARK  7 active torsions:
REMARK  status: ('A' for Active; 'I' for Inactive)
REMARK    1  A    between atoms: O_3  and  C_24
REMARK    2  A    between atoms: O_3  and  C_31
REMARK    3  A    between atoms: O_7  and  C_28
REMARK    4  A    between atoms: O_7  and  C_33
REMARK    5  A    between atoms: C_23  and  C_30
REMARK    6  A    between atoms: C_29  and  C_32
REMARK    7  A    between atoms: C_36  and  C_41
REMARK                            x       y       z     vdW  Elec       q    Type
REMARK                         _______ _______ _______ _____ _____    ______ ____
ROOT
ATOM      1  O   UNL     1     111.418 126.165 138.658  0.00  0.00    +0.000 OA
ATOM      2  O   UNL     1     111.655 126.354 141.554  0.00  0.00    +0.000 OA
ATOM      3  O   UNL     1     113.543 127.402 138.384  0.00  0.00    +0.000 OA
ATOM      4  O   UNL     1     113.694 127.516 139.814  0.00  0.00    +0.000 OA
ATOM      5  C   UNL     1     111.520 126.250 140.103  0.00  0.00    +0.000 A 
ATOM      6  C   UNL     1     112.418 126.735 137.811  0.00  0.00    +0.000 A 
ATOM      7  C   UNL     1     111.834 126.420 139.322  0.00  0.00    +0.000 A 
ATOM      8  C   UNL     1     112.543 126.833 139.231  0.00  0.00    +0.000 A 
ATOM      9  C   UNL     1     111.709 126.322 137.901  0.00  0.00    +0.000 A 
ATOM     10  C   UNL     1     112.834 126.990 138.476  0.00  0.00    +0.000 A 
ATOM     11  C   UNL     1     111.950 126.513 140.799  0.00  0.00    +0.000 A 
ATOM     12  C   UNL     1     112.987 127.104 139.915  0.00  0.00    +0.000 A 
ATOM     13  C   UNL     1     112.688 126.943 140.704  0.00  0.00    +0.000 A 
ENDROOT
BRANCH   9  16
ATOM     14  O   UNL     1     109.498 126.593 136.111  0.00  0.00    +0.000 OA
ATOM     15  O   UNL     1     110.042 125.298 135.245  0.00  0.00    +0.000 OA
ATOM     16  C   UNL     1     111.292 126.066 137.237  0.00  0.00    +0.000 A 
ATOM     17  C   UNL     1     110.604 126.457 137.006  0.00  0.00    +0.000 A 
ATOM     18  C   UNL     1     111.564 125.419 136.804  0.00  0.00    +0.000 A 
ATOM     19  C   UNL     1     110.187 126.202 136.342  0.00  0.00    +0.000 A 
ATOM     20  C   UNL     1     111.146 125.163 136.140  0.00  0.00    +0.000 A 
ATOM     21  C   UNL     1     110.459 125.554 135.908  0.00  0.00    +0.000 A 
ENDBRANCH   9  16
BRANCH   5  22
ATOM     22  O   UNL     1     110.811 125.837 140.185  0.00  0.00    +0.000 OA
BRANCH  22  31
ATOM     23  O   UNL     1     110.043 127.039 140.269  0.00  0.00    +0.000 OA
ATOM     24  O   UNL     1     108.249 125.809 141.451  0.00  0.00    +0.000 OA
ATOM     25  O   UNL     1     108.078 127.421 141.141  0.00  0.00    +0.000 OA
ATOM     26  O   UNL     1     109.615 125.017 140.973  0.00  0.00    +0.000 OA
ATOM     27  C   UNL     1     108.847 126.219 141.057  0.00  0.00    +0.000 C 
ATOM     28  C   UNL     1     108.761 127.024 140.902  0.00  0.00    +0.000 C 
ATOM     29  C   UNL     1     109.530 125.822 140.818  0.00  0.00    +0.000 C 
ATOM     30  C   UNL     1     109.359 127.434 140.508  0.00  0.00    +0.000 C 
ATOM     31  C   UNL     1     110.128 126.232 140.424  0.00  0.00    +0.000 C 
BRANCH  30  33
ATOM     32  O   UNL     1     109.285 128.513 139.574  0.00  0.00    +0.000 OA
ATOM     33  C   UNL     1     109.274 128.240 140.352  0.00  0.00    +0.000 C 
ENDBRANCH  30  33
ENDBRANCH  22  31
ENDBRANCH   5  22
BRANCH   6  34
ATOM     34  O   UNL     1     112.709 126.892 137.055  0.00  0.00    +0.000 OA
BRANCH  34  42
ATOM     35  O   UNL     1     112.310 128.264 137.049  0.00  0.00    +0.000 OA
ATOM     36  O   UNL     1     114.259 128.824 135.629  0.00  0.00    +0.000 OA
ATOM     37  O   UNL     1     114.009 127.265 136.109  0.00  0.00    +0.000 OA
ATOM     38  O   UNL     1     113.210 130.009 136.095  0.00  0.00    +0.000 OA
ATOM     39  C   UNL     1     113.609 128.637 136.102  0.00  0.00    +0.000 C 
ATOM     40  C   UNL     1     113.484 127.858 136.342  0.00  0.00    +0.000 C 
ATOM     41  C   UNL     1     113.085 129.230 136.335  0.00  0.00    +0.000 C 
ATOM     42  C   UNL     1     112.835 127.671 136.815  0.00  0.00    +0.000 C 
ATOM     43  C   UNL     1     112.436 129.043 136.809  0.00  0.00    +0.000 C 
BRANCH  43  46
ATOM     44  O   UNL     1     112.074 130.090 137.712  0.00  0.00    +0.000 OA
ATOM     45  O   UNL     1     111.225 129.774 136.607  0.00  0.00    +0.000 OA
ATOM     46  C   UNL     1     111.911 129.636 137.042  0.00  0.00    +0.000 C 
ENDBRANCH  43  46
ENDBRANCH  34  42
ENDBRANCH   6  34
TORSDOF 7
ENDMDL
MODEL 9
REMARK VINA RESULT:      -9.9      1.615      5.278
REMARK  Name = 44259999
REMARK  7 active torsions:
REMARK  status: ('A' for Active; 'I' for Inactive)
REMARK    1  A    between atoms: O_3  and  C_24
REMARK    2  A    between atoms: O_3  and  C_31
REMARK    3  A    between atoms: O_7  and  C_28
REMARK    4  A    between atoms: O_7  and  C_33
REMARK    5  A    between atoms: C_23  and  C_30
REMARK    6  A    between atoms: C_29  and  C_32
REMARK    7  A    between atoms: C_36  and  C_41
REMARK                            x       y       z     vdW  Elec       q    Type
REMARK                         _______ _______ _______ _____ _____    ______ ____
ROOT
ATOM      1  O   UNL     1     111.324 128.180 138.184  0.00  0.00    +0.000 OA
ATOM      2  O   UNL     1     109.156 128.075 140.124  0.00  0.00    +0.000 OA
ATOM      3  O   UNL     1     112.377 126.198 139.226  0.00  0.00    +0.000 OA
ATOM      4  O   UNL     1     111.320 126.115 140.204  0.00  0.00    +0.000 OA
ATOM      5  C   UNL     1     110.235 128.142 139.143  0.00  0.00    +0.000 A 
ATOM      6  C   UNL     1     112.381 127.218 138.227  0.00  0.00    +0.000 A 
ATOM      7  C   UNL     1     110.970 127.820 138.835  0.00  0.00    +0.000 A 
ATOM      8  C   UNL     1     111.321 127.159 139.183  0.00  0.00    +0.000 A 
ATOM      9  C   UNL     1     112.030 127.879 137.879  0.00  0.00    +0.000 A 
ATOM     10  C   UNL     1     112.026 126.859 138.879  0.00  0.00    +0.000 A 
ATOM     11  C   UNL     1     109.861 127.772 139.822  0.00  0.00    +0.000 A 
ATOM     12  C   UNL     1     110.962 126.775 139.863  0.00  0.00    +0.000 A 
ATOM     13  C   UNL     1     110.227 127.083 140.184  0.00  0.00    +0.000 A 
ENDROOT
BRANCH   9  16
ATOM     14  O   UNL     1     112.091 128.404 135.070  0.00  0.00    +0.000 OA
ATOM     15  O   UNL     1     113.448 129.321 135.271  0.00  0.00    +0.000 OA
ATOM     16  C   UNL     1     112.384 128.239 137.227  0.00  0.00    +0.000 A 
ATOM     17  C   UNL     1     112.061 128.142 136.474  0.00  0.00    +0.000 A 
ATOM     18  C   UNL     1     113.062 128.698 137.327  0.00  0.00    +0.000 A 
ATOM     19  C   UNL     1     112.415 128.502 135.822  0.00  0.00    +0.000 A 
ATOM     20  C   UNL     1     113.417 129.059 136.675  0.00  0.00    +0.000 A 
ATOM     21  C   UNL     1     113.094 128.961 135.923  0.00  0.00    +0.000 A 
ENDBRANCH   9  16
BRANCH   5  22
ATOM     22  O   UNL     1     109.891 128.803 138.789  0.00  0.00    +0.000 OA
BRANCH  22  31
ATOM     23  O   UNL     1     110.561 129.694 139.684  0.00  0.00    +0.000 OA
ATOM     24  O   UNL     1     108.899 131.456 139.173  0.00  0.00    +0.000 OA
ATOM     25  O   UNL     1     110.122 131.759 140.238  0.00  0.00    +0.000 OA
ATOM     26  O   UNL     1     108.784 129.978 138.449  0.00  0.00    +0.000 OA
ATOM     27  C   UNL     1     109.453 130.868 139.344  0.00  0.00    +0.000 C 
ATOM     28  C   UNL     1     110.064 131.020 139.876  0.00  0.00    +0.000 C 
ATOM     29  C   UNL     1     109.395 130.129 138.981  0.00  0.00    +0.000 C 
ATOM     30  C   UNL     1     110.618 130.433 140.046  0.00  0.00    +0.000 C 
ATOM     31  C   UNL     1     109.949 129.542 139.151  0.00  0.00    +0.000 C 
BRANCH  30  33
ATOM     32  O   UNL     1     112.011 130.603 140.314  0.00  0.00    +0.000 OA
ATOM     33  C   UNL     1     111.230 130.585 140.579  0.00  0.00    +0.000 C 
ENDBRANCH  30  33
ENDBRANCH  22  31
ENDBRANCH   5  22
BRANCH   6  34
ATOM     34  O   UNL     1     113.086 126.918 137.923  0.00  0.00    +0.000 OA
BRANCH  34  42
ATOM     35  O   UNL     1     112.455 125.811 137.276  0.00  0.00    +0.000 OA
ATOM     36  O   UNL     1     114.531 124.485 137.521  0.00  0.00    +0.000 OA
ATOM     37  O   UNL     1     114.470 126.034 138.086  0.00  0.00    +0.000 OA
ATOM     38  O   UNL     1     113.209 123.820 136.792  0.00  0.00    +0.000 OA
ATOM     39  C   UNL     1     113.840 124.927 137.439  0.00  0.00    +0.000 C 
ATOM     40  C   UNL     1     113.809 125.702 137.722  0.00  0.00    +0.000 C 
ATOM     41  C   UNL     1     113.178 124.594 137.075  0.00  0.00    +0.000 C 
ATOM     42  C   UNL     1     113.117 126.143 137.640  0.00  0.00    +0.000 C 
ATOM     43  C   UNL     1     112.486 125.037 136.994  0.00  0.00    +0.000 C 
BRANCH  43  46
ATOM     44  O   UNL     1     111.659 124.876 135.839  0.00  0.00    +0.000 OA
ATOM     45  O   UNL     1     111.329 124.200 137.055  0.00  0.00    +0.000 OA
ATOM     46  C   UNL     1     111.824 124.704 136.629  0.00  0.00    +0.000 C 
ENDBRANCH  43  46
ENDBRANCH  34  42
ENDBRANCH   6  34
TORSDOF 7
ENDMDL
MODEL 10
REMARK VINA RESULT:      -9.8      1.662      2.957
REMARK  Name = 44259999
REMARK  7 active torsions:
REMARK  status: ('A' for Active; 'I' for Inactive)
REMARK    1  A    between atoms: O_3  and  C_24
REMARK    2  A    between atoms: O_3  and  C_31
REMARK    3  A    between atoms: O_7  and  C_28
REMARK    4  A    between atoms: O_7  and  C_33
REMARK    5  A    between atoms: C_23  and  C_30
REMARK    6  A    between atoms: C_29  and  C_32
REMARK    7  A    between atoms: C_36  and  C_41
REMARK                            x       y       z     vdW  Elec       q    Type
REMARK                         _______ _______ _______ _____ _____    ______ ____
ROOT
ATOM      1  O   UNL     1     112.232 128.911 136.741  0.00  0.00    +0.000 OA
ATOM      2  O   UNL     1     111.119 126.877 134.979  0.00  0.00    +0.000 OA
ATOM      3  O   UNL     1     110.612 130.570 135.877  0.00  0.00    +0.000 OA
ATOM      4  O   UNL     1     110.035 129.589 134.991  0.00  0.00    +0.000 OA
ATOM      5  C   UNL     1     111.689 127.884 135.869  0.00  0.00    +0.000 A 
ATOM      6  C   UNL     1     111.698 130.236 136.743  0.00  0.00    +0.000 A 
ATOM      7  C   UNL     1     111.686 128.692 136.163  0.00  0.00    +0.000 A 
ATOM      8  C   UNL     1     111.146 129.244 135.875  0.00  0.00    +0.000 A 
ATOM      9  C   UNL     1     112.238 129.684 137.031  0.00  0.00    +0.000 A 
ATOM     10  C   UNL     1     111.152 130.017 136.165  0.00  0.00    +0.000 A 
ATOM     11  C   UNL     1     111.123 127.650 135.267  0.00  0.00    +0.000 A 
ATOM     12  C   UNL     1     110.572 129.029 135.273  0.00  0.00    +0.000 A 
ATOM     13  C   UNL     1     110.560 128.227 134.967  0.00  0.00    +0.000 A 
ENDROOT
BRANCH   9  16
ATOM     14  O   UNL     1     113.116 129.641 139.751  0.00  0.00    +0.000 OA
ATOM     15  O   UNL     1     114.425 130.559 139.342  0.00  0.00    +0.000 OA
ATOM     16  C   UNL     1     112.784 129.902 137.609  0.00  0.00    +0.000 A 
ATOM     17  C   UNL     1     112.677 129.662 138.391  0.00  0.00    +0.000 A 
ATOM     18  C   UNL     1     113.439 130.361 137.405  0.00  0.00    +0.000 A 
ATOM     19  C   UNL     1     113.224 129.881 138.969  0.00  0.00    +0.000 A 
ATOM     20  C   UNL     1     113.986 130.580 137.983  0.00  0.00    +0.000 A 
ATOM     21  C   UNL     1     113.879 130.340 138.764  0.00  0.00    +0.000 A 
ENDBRANCH   9  16
BRANCH   5  22
ATOM     22  O   UNL     1     112.233 127.338 136.163  0.00  0.00    +0.000 OA
BRANCH  22  31
ATOM     23  O   UNL     1     111.275 126.865 137.112  0.00  0.00    +0.000 OA
ATOM     24  O   UNL     1     112.716 124.912 137.594  0.00  0.00    +0.000 OA
ATOM     25  O   UNL     1     111.277 125.090 138.382  0.00  0.00    +0.000 OA
ATOM     26  O   UNL     1     113.194 126.035 136.484  0.00  0.00    +0.000 OA
ATOM     27  C   UNL     1     112.235 125.563 137.433  0.00  0.00    +0.000 C 
ATOM     28  C   UNL     1     111.517 125.652 137.827  0.00  0.00    +0.000 C 
ATOM     29  C   UNL     1     112.475 126.124 136.878  0.00  0.00    +0.000 C 
ATOM     30  C   UNL     1     111.036 126.303 137.666  0.00  0.00    +0.000 C 
ATOM     31  C   UNL     1     111.994 126.776 136.717  0.00  0.00    +0.000 C 
BRANCH  30  33
ATOM     32  O   UNL     1     110.194 127.044 138.551  0.00  0.00    +0.000 OA
ATOM     33  C   UNL     1     110.317 126.392 138.061  0.00  0.00    +0.000 C 
ENDBRANCH  30  33
ENDBRANCH  22  31
ENDBRANCH   5  22
BRANCH   6  34
ATOM     34  O   UNL     1     111.704 131.008 137.033  0.00  0.00    +0.000 OA
BRANCH  34  42
ATOM     35  O   UNL     1     110.540 130.821 137.841  0.00  0.00    +0.000 OA
ATOM     36  O   UNL     1     110.008 133.229 137.633  0.00  0.00    +0.000 OA
ATOM     37  O   UNL     1     111.350 132.614 136.894  0.00  0.00    +0.000 OA
ATOM     38  O   UNL     1     109.022 132.239 138.510  0.00  0.00    +0.000 OA
ATOM     39  C   UNL     1     110.186 132.427 137.702  0.00  0.00    +0.000 C 
ATOM     40  C   UNL     1     110.856 132.119 137.333  0.00  0.00    +0.000 C 
ATOM     41  C   UNL     1     109.692 131.931 138.141  0.00  0.00    +0.000 C 
ATOM     42  C   UNL     1     111.034 131.316 137.402  0.00  0.00    +0.000 C 
ATOM     43  C   UNL     1     109.871 131.128 138.209  0.00  0.00    +0.000 C 
BRANCH  43  46
ATOM     44  O   UNL     1     108.693 130.325 138.306  0.00  0.00    +0.000 OA
ATOM     45  O   UNL     1     109.569 130.446 139.428  0.00  0.00    +0.000 OA
ATOM     46  C   UNL     1     109.377 130.633 138.648  0.00  0.00    +0.000 C 
ENDBRANCH  43  46
ENDBRANCH  34  42
ENDBRANCH   6  34
TORSDOF 7
ENDMDL
