MODEL 1
REMARK VINA RESULT:      -8.4      0.000      0.000
REMARK  Name = 44260037
REMARK  4 active torsions:
REMARK  status: ('A' for Active; 'I' for Inactive)
REMARK    1  A    between atoms: O_2  and  C_13
REMARK    2  A    between atoms: O_3  and  C_16
REMARK    3  A    between atoms: O_7  and  C_24
REMARK    4  A    between atoms: C_12  and  C_14
REMARK                            x       y       z     vdW  Elec       q    Type
REMARK                         _______ _______ _______ _____ _____    ______ ____
ROOT
ATOM      1  O   UNL     1     105.477 124.500 147.647  0.00  0.00    +0.000 OA
ATOM      2  O   UNL     1     107.708 125.942 146.511  0.00  0.00    +0.000 OA
ATOM      3  O   UNL     1     106.447 125.855 145.817  0.00  0.00    +0.000 OA
ATOM      4  O   UNL     1     107.994 124.633 149.106  0.00  0.00    +0.000 OA
ATOM      5  C   UNL     1     106.581 125.213 147.086  0.00  0.00    +0.000 A 
ATOM      6  C   UNL     1     106.258 124.761 147.696  0.00  0.00    +0.000 A 
ATOM      7  C   UNL     1     105.019 124.690 146.988  0.00  0.00    +0.000 A 
ATOM      8  C   UNL     1     105.342 125.142 146.378  0.00  0.00    +0.000 A 
ATOM      9  C   UNL     1     106.123 125.403 146.427  0.00  0.00    +0.000 A 
ATOM     10  C   UNL     1     106.725 124.556 148.388  0.00  0.00    +0.000 A 
ATOM     11  C   UNL     1     107.394 125.491 147.125  0.00  0.00    +0.000 A 
ATOM     12  C   UNL     1     107.538 124.825 148.445  0.00  0.00    +0.000 A 
ATOM     13  C   UNL     1     107.875 125.296 147.809  0.00  0.00    +0.000 A 
ENDROOT
BRANCH   7  16
ATOM     14  O   UNL     1     103.099 122.789 146.056  0.00  0.00    +0.000 OA
ATOM     15  O   UNL     1     102.252 125.024 147.622  0.00  0.00    +0.000 OA
ATOM     16  C   UNL     1     104.238 124.429 146.938  0.00  0.00    +0.000 A 
ATOM     17  C   UNL     1     103.635 124.857 147.305  0.00  0.00    +0.000 A 
ATOM     18  C   UNL     1     104.059 123.740 146.522  0.00  0.00    +0.000 A 
ATOM     19  C   UNL     1     103.278 123.478 146.472  0.00  0.00    +0.000 A 
ATOM     20  C   UNL     1     102.855 124.596 147.256  0.00  0.00    +0.000 A 
ATOM     21  C   UNL     1     102.676 123.907 146.839  0.00  0.00    +0.000 A 
BRANCH  21  22
ATOM     22  O   UNL     1     101.895 123.645 146.790  0.00  0.00    +0.000 OA
ATOM     23  C   UNL     1     101.406 123.917 146.183  0.00  0.00    +0.000 C 
ENDBRANCH  21  22
ENDBRANCH   7  16
BRANCH   8  24
ATOM     24  O   UNL     1     104.885 125.333 145.718  0.00  0.00    +0.000 OA
ATOM     25  C   UNL     1     105.227 125.721 145.076  0.00  0.00    +0.000 C 
ENDBRANCH   8  24
BRANCH  10  26
ATOM     26  O   UNL     1     106.393 124.104 148.994  0.00  0.00    +0.000 OA
ATOM     27  C   UNL     1     106.867 123.833 149.612  0.00  0.00    +0.000 C 
ENDBRANCH  10  26
TORSDOF 4
ENDMDL
MODEL 2
REMARK VINA RESULT:      -8.1     12.840     13.771
REMARK  Name = 44260037
REMARK  4 active torsions:
REMARK  status: ('A' for Active; 'I' for Inactive)
REMARK    1  A    between atoms: O_2  and  C_13
REMARK    2  A    between atoms: O_3  and  C_16
REMARK    3  A    between atoms: O_7  and  C_24
REMARK    4  A    between atoms: C_12  and  C_14
REMARK                            x       y       z     vdW  Elec       q    Type
REMARK                         _______ _______ _______ _____ _____    ______ ____
ROOT
ATOM      1  O   UNL     1     112.996 126.430 136.760  0.00  0.00    +0.000 OA
ATOM      2  O   UNL     1     110.881 124.787 135.677  0.00  0.00    +0.000 OA
ATOM      3  O   UNL     1     110.883 126.217 135.490  0.00  0.00    +0.000 OA
ATOM      4  O   UNL     1     113.059 123.549 137.178  0.00  0.00    +0.000 OA
ATOM      5  C   UNL     1     111.951 125.617 136.225  0.00  0.00    +0.000 A 
ATOM      6  C   UNL     1     112.655 125.688 136.649  0.00  0.00    +0.000 A 
ATOM      7  C   UNL     1     112.633 127.103 136.449  0.00  0.00    +0.000 A 
ATOM      8  C   UNL     1     111.929 127.032 136.025  0.00  0.00    +0.000 A 
ATOM      9  C   UNL     1     111.587 126.288 135.913  0.00  0.00    +0.000 A 
ATOM     10  C   UNL     1     113.044 124.995 136.978  0.00  0.00    +0.000 A 
ATOM     11  C   UNL     1     111.585 124.848 136.102  0.00  0.00    +0.000 A 
ATOM     12  C   UNL     1     112.693 124.219 136.865  0.00  0.00    +0.000 A 
ATOM     13  C   UNL     1     111.959 124.145 136.424  0.00  0.00    +0.000 A 
ENDROOT
BRANCH   7  16
ATOM     14  O   UNL     1     112.899 129.498 137.985  0.00  0.00    +0.000 OA
ATOM     15  O   UNL     1     114.412 129.165 135.584  0.00  0.00    +0.000 OA
ATOM     16  C   UNL     1     112.974 127.845 136.560  0.00  0.00    +0.000 A 
ATOM     17  C   UNL     1     113.523 128.134 136.016  0.00  0.00    +0.000 A 
ATOM     18  C   UNL     1     112.766 128.300 137.217  0.00  0.00    +0.000 A 
ATOM     19  C   UNL     1     113.107 129.043 137.329  0.00  0.00    +0.000 A 
ATOM     20  C   UNL     1     113.863 128.876 136.128  0.00  0.00    +0.000 A 
ATOM     21  C   UNL     1     113.655 129.331 136.784  0.00  0.00    +0.000 A 
BRANCH  21  22
ATOM     22  O   UNL     1     113.996 130.075 136.896  0.00  0.00    +0.000 OA
ATOM     23  C   UNL     1     113.633 130.746 136.585  0.00  0.00    +0.000 C 
ENDBRANCH  21  22
ENDBRANCH   7  16
BRANCH   8  24
ATOM     24  O   UNL     1     111.565 127.703 135.714  0.00  0.00    +0.000 OA
ATOM     25  C   UNL     1     110.992 127.627 135.124  0.00  0.00    +0.000 C 
ENDBRANCH   8  24
BRANCH  10  26
ATOM     26  O   UNL     1     113.748 125.076 137.400  0.00  0.00    +0.000 OA
ATOM     27  C   UNL     1     114.403 124.617 137.198  0.00  0.00    +0.000 C 
ENDBRANCH  10  26
TORSDOF 4
ENDMDL
MODEL 3
REMARK VINA RESULT:      -8.1     12.592     13.304
REMARK  Name = 44260037
REMARK  4 active torsions:
REMARK  status: ('A' for Active; 'I' for Inactive)
REMARK    1  A    between atoms: O_2  and  C_13
REMARK    2  A    between atoms: O_3  and  C_16
REMARK    3  A    between atoms: O_7  and  C_24
REMARK    4  A    between atoms: C_12  and  C_14
REMARK                            x       y       z     vdW  Elec       q    Type
REMARK                         _______ _______ _______ _____ _____    ______ ____
ROOT
ATOM      1  O   UNL     1     112.504 126.387 136.523  0.00  0.00    +0.000 OA
ATOM      2  O   UNL     1     111.712 123.637 136.133  0.00  0.00    +0.000 OA
ATOM      3  O   UNL     1     110.868 124.722 135.700  0.00  0.00    +0.000 OA
ATOM      4  O   UNL     1     114.260 124.246 137.423  0.00  0.00    +0.000 OA
ATOM      5  C   UNL     1     112.113 125.027 136.331  0.00  0.00    +0.000 A 
ATOM      6  C   UNL     1     112.659 125.582 136.605  0.00  0.00    +0.000 A 
ATOM      7  C   UNL     1     111.804 126.639 136.166  0.00  0.00    +0.000 A 
ATOM      8  C   UNL     1     111.258 126.084 135.892  0.00  0.00    +0.000 A 
ATOM      9  C   UNL     1     111.413 125.277 135.974  0.00  0.00    +0.000 A 
ATOM     10  C   UNL     1     113.392 125.332 136.978  0.00  0.00    +0.000 A 
ATOM     11  C   UNL     1     112.263 124.183 136.410  0.00  0.00    +0.000 A 
ATOM     12  C   UNL     1     113.559 124.494 137.066  0.00  0.00    +0.000 A 
ATOM     13  C   UNL     1     112.990 123.916 136.780  0.00  0.00    +0.000 A 
ENDROOT
BRANCH   7  16
ATOM     14  O   UNL     1     112.014 129.059 134.660  0.00  0.00    +0.000 OA
ATOM     15  O   UNL     1     110.663 129.056 137.178  0.00  0.00    +0.000 OA
ATOM     16  C   UNL     1     111.649 127.445 136.084  0.00  0.00    +0.000 A 
ATOM     17  C   UNL     1     111.233 127.848 136.672  0.00  0.00    +0.000 A 
ATOM     18  C   UNL     1     111.909 127.848 135.413  0.00  0.00    +0.000 A 
ATOM     19  C   UNL     1     111.754 128.655 135.331  0.00  0.00    +0.000 A 
ATOM     20  C   UNL     1     111.078 128.653 136.590  0.00  0.00    +0.000 A 
ATOM     21  C   UNL     1     111.338 129.057 135.919  0.00  0.00    +0.000 A 
BRANCH  21  22
ATOM     22  O   UNL     1     111.183 129.864 135.836  0.00  0.00    +0.000 OA
ATOM     23  C   UNL     1     110.477 130.115 135.493  0.00  0.00    +0.000 C 
ENDBRANCH  21  22
ENDBRANCH   7  16
BRANCH   8  24
ATOM     24  O   UNL     1     110.558 126.335 135.536  0.00  0.00    +0.000 OA
ATOM     25  C   UNL     1     110.153 125.832 135.022  0.00  0.00    +0.000 C 
ENDBRANCH   8  24
BRANCH  10  26
ATOM     26  O   UNL     1     113.932 125.895 137.249  0.00  0.00    +0.000 OA
ATOM     27  C   UNL     1     114.224 125.847 138.019  0.00  0.00    +0.000 C 
ENDBRANCH  10  26
TORSDOF 4
ENDMDL
MODEL 4
REMARK VINA RESULT:      -8.0      0.998      4.488
REMARK  Name = 44260037
REMARK  4 active torsions:
REMARK  status: ('A' for Active; 'I' for Inactive)
REMARK    1  A    between atoms: O_2  and  C_13
REMARK    2  A    between atoms: O_3  and  C_16
REMARK    3  A    between atoms: O_7  and  C_24
REMARK    4  A    between atoms: C_12  and  C_14
REMARK                            x       y       z     vdW  Elec       q    Type
REMARK                         _______ _______ _______ _____ _____    ______ ____
ROOT
ATOM      1  O   UNL     1     104.446 124.193 146.941  0.00  0.00    +0.000 OA
ATOM      2  O   UNL     1     101.642 124.772 147.326  0.00  0.00    +0.000 OA
ATOM      3  O   UNL     1     102.656 125.471 148.076  0.00  0.00    +0.000 OA
ATOM      4  O   UNL     1     102.453 122.742 145.390  0.00  0.00    +0.000 OA
ATOM      5  C   UNL     1     103.059 124.478 147.130  0.00  0.00    +0.000 A 
ATOM      6  C   UNL     1     103.656 124.052 146.752  0.00  0.00    +0.000 A 
ATOM      7  C   UNL     1     104.641 124.759 147.508  0.00  0.00    +0.000 A 
ATOM      8  C   UNL     1     104.044 125.185 147.887  0.00  0.00    +0.000 A 
ATOM      9  C   UNL     1     103.253 125.045 147.698  0.00  0.00    +0.000 A 
ATOM     10  C   UNL     1     103.466 123.460 146.159  0.00  0.00    +0.000 A 
ATOM     11  C   UNL     1     102.231 124.342 146.942  0.00  0.00    +0.000 A 
ATOM     12  C   UNL     1     102.644 123.309 145.958  0.00  0.00    +0.000 A 
ATOM     13  C   UNL     1     102.023 123.753 146.352  0.00  0.00    +0.000 A 
ENDROOT
BRANCH   7  16
ATOM     14  O   UNL     1     106.960 124.147 149.062  0.00  0.00    +0.000 OA
ATOM     15  O   UNL     1     107.065 126.214 147.090  0.00  0.00    +0.000 OA
ATOM     16  C   UNL     1     105.431 124.900 147.697  0.00  0.00    +0.000 A 
ATOM     17  C   UNL     1     105.853 125.486 147.299  0.00  0.00    +0.000 A 
ATOM     18  C   UNL     1     105.800 124.453 148.285  0.00  0.00    +0.000 A 
ATOM     19  C   UNL     1     106.591 124.594 148.474  0.00  0.00    +0.000 A 
ATOM     20  C   UNL     1     106.643 125.627 147.488  0.00  0.00    +0.000 A 
ATOM     21  C   UNL     1     107.012 125.181 148.076  0.00  0.00    +0.000 A 
BRANCH  21  22
ATOM     22  O   UNL     1     107.803 125.321 148.265  0.00  0.00    +0.000 OA
ATOM     23  C   UNL     1     108.401 124.920 147.863  0.00  0.00    +0.000 C 
ENDBRANCH  21  22
ENDBRANCH   7  16
BRANCH   8  24
ATOM     24  O   UNL     1     104.238 125.752 148.454  0.00  0.00    +0.000 OA
ATOM     25  C   UNL     1     103.656 126.046 148.960  0.00  0.00    +0.000 C 
ENDBRANCH   8  24
BRANCH  10  26
ATOM     26  O   UNL     1     104.069 123.038 145.786  0.00  0.00    +0.000 OA
ATOM     27  C   UNL     1     104.038 122.910 144.971  0.00  0.00    +0.000 C 
ENDBRANCH  10  26
TORSDOF 4
ENDMDL
MODEL 5
REMARK VINA RESULT:      -8.0      1.427      4.337
REMARK  Name = 44260037
REMARK  4 active torsions:
REMARK  status: ('A' for Active; 'I' for Inactive)
REMARK    1  A    between atoms: O_2  and  C_13
REMARK    2  A    between atoms: O_3  and  C_16
REMARK    3  A    between atoms: O_7  and  C_24
REMARK    4  A    between atoms: C_12  and  C_14
REMARK                            x       y       z     vdW  Elec       q    Type
REMARK                         _______ _______ _______ _____ _____    ______ ____
ROOT
ATOM      1  O   UNL     1     103.435 124.038 147.139  0.00  0.00    +0.000 OA
ATOM      2  O   UNL     1     102.915 122.766 144.599  0.00  0.00    +0.000 OA
ATOM      3  O   UNL     1     104.174 123.419 144.860  0.00  0.00    +0.000 OA
ATOM      4  O   UNL     1     100.869 122.739 146.682  0.00  0.00    +0.000 OA
ATOM      5  C   UNL     1     103.177 123.409 145.883  0.00  0.00    +0.000 A 
ATOM      6  C   UNL     1     102.930 123.615 146.643  0.00  0.00    +0.000 A 
ATOM      7  C   UNL     1     104.187 124.255 146.877  0.00  0.00    +0.000 A 
ATOM      8  C   UNL     1     104.433 124.049 146.117  0.00  0.00    +0.000 A 
ATOM      9  C   UNL     1     103.928 123.625 145.620  0.00  0.00    +0.000 A 
ATOM     10  C   UNL     1     102.150 123.395 146.929  0.00  0.00    +0.000 A 
ATOM     11  C   UNL     1     102.660 122.968 145.356  0.00  0.00    +0.000 A 
ATOM     12  C   UNL     1     101.620 122.954 146.416  0.00  0.00    +0.000 A 
ATOM     13  C   UNL     1     101.877 122.739 145.624  0.00  0.00    +0.000 A 
ENDROOT
BRANCH   7  16
ATOM     14  O   UNL     1     105.087 126.746 147.949  0.00  0.00    +0.000 OA
ATOM     15  O   UNL     1     106.316 124.304 148.782  0.00  0.00    +0.000 OA
ATOM     16  C   UNL     1     104.691 124.678 147.373  0.00  0.00    +0.000 A 
ATOM     17  C   UNL     1     105.251 124.280 147.829  0.00  0.00    +0.000 A 
ATOM     18  C   UNL     1     104.636 125.500 147.413  0.00  0.00    +0.000 A 
ATOM     19  C   UNL     1     105.142 125.924 147.909  0.00  0.00    +0.000 A 
ATOM     20  C   UNL     1     105.756 124.703 148.326  0.00  0.00    +0.000 A 
ATOM     21  C   UNL     1     105.701 125.525 148.365  0.00  0.00    +0.000 A 
BRANCH  21  22
ATOM     22  O   UNL     1     106.206 125.949 148.862  0.00  0.00    +0.000 OA
ATOM     23  C   UNL     1     105.950 126.179 149.612  0.00  0.00    +0.000 C 
ENDBRANCH  21  22
ENDBRANCH   7  16
BRANCH   8  24
ATOM     24  O   UNL     1     105.184 124.265 145.853  0.00  0.00    +0.000 OA
ATOM     25  C   UNL     1     105.345 124.294 145.045  0.00  0.00    +0.000 C 
ENDBRANCH   8  24
BRANCH  10  26
ATOM     26  O   UNL     1     101.912 123.606 147.690  0.00  0.00    +0.000 OA
ATOM     27  C   UNL     1     101.561 123.045 148.182  0.00  0.00    +0.000 C 
ENDBRANCH  10  26
TORSDOF 4
ENDMDL
MODEL 6
REMARK VINA RESULT:      -8.0      1.605      4.413
REMARK  Name = 44260037
REMARK  4 active torsions:
REMARK  status: ('A' for Active; 'I' for Inactive)
REMARK    1  A    between atoms: O_2  and  C_13
REMARK    2  A    between atoms: O_3  and  C_16
REMARK    3  A    between atoms: O_7  and  C_24
REMARK    4  A    between atoms: C_12  and  C_14
REMARK                            x       y       z     vdW  Elec       q    Type
REMARK                         _______ _______ _______ _____ _____    ______ ____
ROOT
ATOM      1  O   UNL     1     103.519 124.473 146.327  0.00  0.00    +0.000 OA
ATOM      2  O   UNL     1     102.596 123.897 149.003  0.00  0.00    +0.000 OA
ATOM      3  O   UNL     1     103.879 124.515 148.775  0.00  0.00    +0.000 OA
ATOM      4  O   UNL     1     100.917 123.223 146.710  0.00  0.00    +0.000 OA
ATOM      5  C   UNL     1     103.061 124.188 147.649  0.00  0.00    +0.000 A 
ATOM      6  C   UNL     1     102.942 124.173 146.833  0.00  0.00    +0.000 A 
ATOM      7  C   UNL     1     104.217 124.786 146.635  0.00  0.00    +0.000 A 
ATOM      8  C   UNL     1     104.337 124.801 147.451  0.00  0.00    +0.000 A 
ATOM      9  C   UNL     1     103.759 124.501 147.959  0.00  0.00    +0.000 A 
ATOM     10  C   UNL     1     102.219 123.849 146.499  0.00  0.00    +0.000 A 
ATOM     11  C   UNL     1     102.467 123.879 148.189  0.00  0.00    +0.000 A 
ATOM     12  C   UNL     1     101.614 123.536 147.022  0.00  0.00    +0.000 A 
ATOM     13  C   UNL     1     101.739 123.551 147.873  0.00  0.00    +0.000 A 
ENDROOT
BRANCH   7  16
ATOM     14  O   UNL     1     106.473 124.367 144.932  0.00  0.00    +0.000 OA
ATOM     15  O   UNL     1     105.429 127.002 145.297  0.00  0.00    +0.000 OA
ATOM     16  C   UNL     1     104.795 125.086 146.129  0.00  0.00    +0.000 A 
ATOM     17  C   UNL     1     104.823 125.894 145.966  0.00  0.00    +0.000 A 
ATOM     18  C   UNL     1     105.345 124.577 145.784  0.00  0.00    +0.000 A 
ATOM     19  C   UNL     1     105.923 124.876 145.277  0.00  0.00    +0.000 A 
ATOM     20  C   UNL     1     105.400 126.193 145.459  0.00  0.00    +0.000 A 
ATOM     21  C   UNL     1     105.951 125.684 145.115  0.00  0.00    +0.000 A 
BRANCH  21  22
ATOM     22  O   UNL     1     106.529 125.984 144.607  0.00  0.00    +0.000 OA
ATOM     23  C   UNL     1     106.351 126.121 143.814  0.00  0.00    +0.000 C 
ENDBRANCH  21  22
ENDBRANCH   7  16
BRANCH   8  24
ATOM     24  O   UNL     1     105.034 125.114 147.761  0.00  0.00    +0.000 OA
ATOM     25  C   UNL     1     105.288 124.893 148.514  0.00  0.00    +0.000 C 
ENDBRANCH   8  24
BRANCH  10  26
ATOM     26  O   UNL     1     102.108 123.839 145.682  0.00  0.00    +0.000 OA
ATOM     27  C   UNL     1     101.881 123.141 145.306  0.00  0.00    +0.000 C 
ENDBRANCH  10  26
TORSDOF 4
ENDMDL
MODEL 7
REMARK VINA RESULT:      -7.9      1.084      4.370
REMARK  Name = 44260037
REMARK  4 active torsions:
REMARK  status: ('A' for Active; 'I' for Inactive)
REMARK    1  A    between atoms: O_2  and  C_13
REMARK    2  A    between atoms: O_3  and  C_16
REMARK    3  A    between atoms: O_7  and  C_24
REMARK    4  A    between atoms: C_12  and  C_14
REMARK                            x       y       z     vdW  Elec       q    Type
REMARK                         _______ _______ _______ _____ _____    ______ ____
ROOT
ATOM      1  O   UNL     1     103.518 124.323 147.349  0.00  0.00    +0.000 OA
ATOM      2  O   UNL     1     102.111 122.946 145.236  0.00  0.00    +0.000 OA
ATOM      3  O   UNL     1     103.502 123.302 145.095  0.00  0.00    +0.000 OA
ATOM      4  O   UNL     1     100.710 123.636 147.703  0.00  0.00    +0.000 OA
ATOM      5  C   UNL     1     102.821 123.642 146.305  0.00  0.00    +0.000 A 
ATOM      6  C   UNL     1     102.827 123.983 147.056  0.00  0.00    +0.000 A 
ATOM      7  C   UNL     1     104.204 124.324 146.892  0.00  0.00    +0.000 A 
ATOM      8  C   UNL     1     104.199 123.984 146.140  0.00  0.00    +0.000 A 
ATOM      9  C   UNL     1     103.507 123.642 145.847  0.00  0.00    +0.000 A 
ATOM     10  C   UNL     1     102.118 123.988 147.543  0.00  0.00    +0.000 A 
ATOM     11  C   UNL     1     102.107 123.283 145.987  0.00  0.00    +0.000 A 
ATOM     12  C   UNL     1     101.395 123.635 147.243  0.00  0.00    +0.000 A 
ATOM     13  C   UNL     1     101.389 123.280 146.460  0.00  0.00    +0.000 A 
ENDROOT
BRANCH   7  16
ATOM     14  O   UNL     1     106.646 124.096 148.359  0.00  0.00    +0.000 OA
ATOM     15  O   UNL     1     105.913 126.596 147.185  0.00  0.00    +0.000 OA
ATOM     16  C   UNL     1     104.895 124.665 147.185  0.00  0.00    +0.000 A 
ATOM     17  C   UNL     1     105.059 125.460 147.039  0.00  0.00    +0.000 A 
ATOM     18  C   UNL     1     105.425 124.210 147.625  0.00  0.00    +0.000 A 
ATOM     19  C   UNL     1     106.117 124.551 147.919  0.00  0.00    +0.000 A 
ATOM     20  C   UNL     1     105.750 125.801 147.332  0.00  0.00    +0.000 A 
ATOM     21  C   UNL     1     106.279 125.346 147.772  0.00  0.00    +0.000 A 
BRANCH  21  22
ATOM     22  O   UNL     1     106.971 125.687 148.065  0.00  0.00    +0.000 OA
ATOM     23  C   UNL     1     107.678 125.614 147.645  0.00  0.00    +0.000 C 
ENDBRANCH  21  22
ENDBRANCH   7  16
BRANCH   8  24
ATOM     24  O   UNL     1     104.885 123.984 145.682  0.00  0.00    +0.000 OA
ATOM     25  C   UNL     1     104.833 123.927 144.861  0.00  0.00    +0.000 C 
ENDBRANCH   8  24
BRANCH  10  26
ATOM     26  O   UNL     1     102.133 124.331 148.293  0.00  0.00    +0.000 OA
ATOM     27  C   UNL     1     101.572 124.901 148.497  0.00  0.00    +0.000 C 
ENDBRANCH  10  26
TORSDOF 4
ENDMDL
MODEL 8
REMARK VINA RESULT:      -7.8     12.956     14.119
REMARK  Name = 44260037
REMARK  4 active torsions:
REMARK  status: ('A' for Active; 'I' for Inactive)
REMARK    1  A    between atoms: O_2  and  C_13
REMARK    2  A    between atoms: O_3  and  C_16
REMARK    3  A    between atoms: O_7  and  C_24
REMARK    4  A    between atoms: C_12  and  C_14
REMARK                            x       y       z     vdW  Elec       q    Type
REMARK                         _______ _______ _______ _____ _____    ______ ____
ROOT
ATOM      1  O   UNL     1     111.849 127.356 135.823  0.00  0.00    +0.000 OA
ATOM      2  O   UNL     1     111.572 124.504 136.188  0.00  0.00    +0.000 OA
ATOM      3  O   UNL     1     112.703 125.217 136.731  0.00  0.00    +0.000 OA
ATOM      4  O   UNL     1     109.541 125.982 134.700  0.00  0.00    +0.000 OA
ATOM      5  C   UNL     1     111.711 125.946 136.003  0.00  0.00    +0.000 A 
ATOM      6  C   UNL     1     111.427 126.659 135.701  0.00  0.00    +0.000 A 
ATOM      7  C   UNL     1     112.556 127.342 136.248  0.00  0.00    +0.000 A 
ATOM      8  C   UNL     1     112.841 126.629 136.551  0.00  0.00    +0.000 A 
ATOM      9  C   UNL     1     112.418 125.930 136.428  0.00  0.00    +0.000 A 
ATOM     10  C   UNL     1     110.692 126.687 135.256  0.00  0.00    +0.000 A 
ATOM     11  C   UNL     1     111.280 125.211 135.882  0.00  0.00    +0.000 A 
ATOM     12  C   UNL     1     110.247 125.964 135.125  0.00  0.00    +0.000 A 
ATOM     13  C   UNL     1     110.544 125.221 135.441  0.00  0.00    +0.000 A 
ENDROOT
BRANCH   7  16
ATOM     14  O   UNL     1     113.135 129.635 137.853  0.00  0.00    +0.000 OA
ATOM     15  O   UNL     1     114.513 129.236 135.381  0.00  0.00    +0.000 OA
ATOM     16  C   UNL     1     112.979 128.039 136.371  0.00  0.00    +0.000 A 
ATOM     17  C   UNL     1     113.535 128.289 135.815  0.00  0.00    +0.000 A 
ATOM     18  C   UNL     1     112.845 128.488 137.050  0.00  0.00    +0.000 A 
ATOM     19  C   UNL     1     113.268 129.186 137.173  0.00  0.00    +0.000 A 
ATOM     20  C   UNL     1     113.957 128.986 135.937  0.00  0.00    +0.000 A 
ATOM     21  C   UNL     1     113.824 129.435 136.616  0.00  0.00    +0.000 A 
BRANCH  21  22
ATOM     22  O   UNL     1     114.246 130.133 136.740  0.00  0.00    +0.000 OA
ATOM     23  C   UNL     1     113.938 130.853 136.480  0.00  0.00    +0.000 C 
ENDBRANCH  21  22
ENDBRANCH   7  16
BRANCH   8  24
ATOM     24  O   UNL     1     113.548 126.613 136.976  0.00  0.00    +0.000 OA
ATOM     25  C   UNL     1     113.948 125.900 137.086  0.00  0.00    +0.000 C 
ENDBRANCH   8  24
BRANCH  10  26
ATOM     26  O   UNL     1     110.415 127.405 134.958  0.00  0.00    +0.000 OA
ATOM     27  C   UNL     1     109.656 127.666 135.150  0.00  0.00    +0.000 C 
ENDBRANCH  10  26
TORSDOF 4
ENDMDL
MODEL 9
REMARK VINA RESULT:      -7.7     10.087     12.318
REMARK  Name = 44260037
REMARK  4 active torsions:
REMARK  status: ('A' for Active; 'I' for Inactive)
REMARK    1  A    between atoms: O_2  and  C_13
REMARK    2  A    between atoms: O_3  and  C_16
REMARK    3  A    between atoms: O_7  and  C_24
REMARK    4  A    between atoms: C_12  and  C_14
REMARK                            x       y       z     vdW  Elec       q    Type
REMARK                         _______ _______ _______ _____ _____    ______ ____
ROOT
ATOM      1  O   UNL     1     113.355 126.152 138.217  0.00  0.00    +0.000 OA
ATOM      2  O   UNL     1     111.206 124.345 137.539  0.00  0.00    +0.000 OA
ATOM      3  O   UNL     1     111.054 125.321 138.590  0.00  0.00    +0.000 OA
ATOM      4  O   UNL     1     113.733 124.207 136.083  0.00  0.00    +0.000 OA
ATOM      5  C   UNL     1     112.293 125.258 137.881  0.00  0.00    +0.000 A 
ATOM      6  C   UNL     1     113.060 125.535 137.756  0.00  0.00    +0.000 A 
ATOM      7  C   UNL     1     112.884 126.493 138.802  0.00  0.00    +0.000 A 
ATOM      8  C   UNL     1     112.117 126.216 138.927  0.00  0.00    +0.000 A 
ATOM      9  C   UNL     1     111.821 125.598 138.466  0.00  0.00    +0.000 A 
ATOM     10  C   UNL     1     113.561 125.189 137.150  0.00  0.00    +0.000 A 
ATOM     11  C   UNL     1     111.973 124.615 137.408  0.00  0.00    +0.000 A 
ATOM     12  C   UNL     1     113.259 124.546 136.667  0.00  0.00    +0.000 A 
ATOM     13  C   UNL     1     112.459 124.257 136.797  0.00  0.00    +0.000 A 
ENDROOT
BRANCH   7  16
ATOM     14  O   UNL     1     114.281 127.398 141.125  0.00  0.00    +0.000 OA
ATOM     15  O   UNL     1     113.258 129.292 139.244  0.00  0.00    +0.000 OA
ATOM     16  C   UNL     1     113.179 127.110 139.262  0.00  0.00    +0.000 A 
ATOM     17  C   UNL     1     113.071 127.892 139.023  0.00  0.00    +0.000 A 
ATOM     18  C   UNL     1     113.582 126.945 139.963  0.00  0.00    +0.000 A 
ATOM     19  C   UNL     1     113.877 127.563 140.424  0.00  0.00    +0.000 A 
ATOM     20  C   UNL     1     113.366 128.509 139.483  0.00  0.00    +0.000 A 
ATOM     21  C   UNL     1     113.769 128.345 140.184  0.00  0.00    +0.000 A 
BRANCH  21  22
ATOM     22  O   UNL     1     114.065 128.962 140.645  0.00  0.00    +0.000 OA
ATOM     23  C   UNL     1     113.570 129.354 141.176  0.00  0.00    +0.000 C 
ENDBRANCH  21  22
ENDBRANCH   7  16
BRANCH   8  24
ATOM     24  O   UNL     1     111.645 126.556 139.512  0.00  0.00    +0.000 OA
ATOM     25  C   UNL     1     110.858 126.322 139.594  0.00  0.00    +0.000 C 
ENDBRANCH   8  24
BRANCH  10  26
ATOM     26  O   UNL     1     114.327 125.473 137.032  0.00  0.00    +0.000 OA
ATOM     27  C   UNL     1     114.966 124.951 137.048  0.00  0.00    +0.000 C 
ENDBRANCH  10  26
TORSDOF 4
ENDMDL
MODEL 10
REMARK VINA RESULT:      -7.6     11.742     12.971
REMARK  Name = 44260037
REMARK  4 active torsions:
REMARK  status: ('A' for Active; 'I' for Inactive)
REMARK    1  A    between atoms: O_2  and  C_13
REMARK    2  A    between atoms: O_3  and  C_16
REMARK    3  A    between atoms: O_7  and  C_24
REMARK    4  A    between atoms: C_12  and  C_14
REMARK                            x       y       z     vdW  Elec       q    Type
REMARK                         _______ _______ _______ _____ _____    ______ ____
ROOT
ATOM      1  O   UNL     1     111.769 126.044 136.412  0.00  0.00    +0.000 OA
ATOM      2  O   UNL     1     114.642 126.261 136.610  0.00  0.00    +0.000 OA
ATOM      3  O   UNL     1     113.820 127.430 136.419  0.00  0.00    +0.000 OA
ATOM      4  O   UNL     1     113.367 123.641 136.798  0.00  0.00    +0.000 OA
ATOM      5  C   UNL     1     113.190 126.150 136.510  0.00  0.00    +0.000 A 
ATOM      6  C   UNL     1     112.506 125.688 136.508  0.00  0.00    +0.000 A 
ATOM      7  C   UNL     1     111.714 126.862 136.318  0.00  0.00    +0.000 A 
ATOM      8  C   UNL     1     112.397 127.324 136.321  0.00  0.00    +0.000 A 
ATOM      9  C   UNL     1     113.136 126.968 136.417  0.00  0.00    +0.000 A 
ATOM     10  C   UNL     1     112.550 124.835 136.605  0.00  0.00    +0.000 A 
ATOM     11  C   UNL     1     113.965 125.791 136.609  0.00  0.00    +0.000 A 
ATOM     12  C   UNL     1     113.315 124.459 136.705  0.00  0.00    +0.000 A 
ATOM     13  C   UNL     1     114.028 124.940 136.707  0.00  0.00    +0.000 A 
ENDROOT
BRANCH   7  16
ATOM     14  O   UNL     1     109.341 127.984 137.451  0.00  0.00    +0.000 OA
ATOM     15  O   UNL     1     109.658 127.878 134.612  0.00  0.00    +0.000 OA
ATOM     16  C   UNL     1     110.976 127.218 136.223  0.00  0.00    +0.000 A 
ATOM     17  C   UNL     1     110.686 127.370 135.465  0.00  0.00    +0.000 A 
ATOM     18  C   UNL     1     110.528 127.423 136.884  0.00  0.00    +0.000 A 
ATOM     19  C   UNL     1     109.790 127.780 136.789  0.00  0.00    +0.000 A 
ATOM     20  C   UNL     1     109.949 127.726 135.370  0.00  0.00    +0.000 A 
ATOM     21  C   UNL     1     109.500 127.931 136.031  0.00  0.00    +0.000 A 
BRANCH  21  22
ATOM     22  O   UNL     1     108.762 128.288 135.936  0.00  0.00    +0.000 OA
ATOM     23  C   UNL     1     108.703 129.109 135.889  0.00  0.00    +0.000 C 
ENDBRANCH  21  22
ENDBRANCH   7  16
BRANCH   8  24
ATOM     24  O   UNL     1     112.344 128.142 136.227  0.00  0.00    +0.000 OA
ATOM     25  C   UNL     1     112.960 128.628 136.482  0.00  0.00    +0.000 C 
ENDBRANCH   8  24
BRANCH  10  26
ATOM     26  O   UNL     1     111.861 124.382 136.601  0.00  0.00    +0.000 OA
ATOM     27  C   UNL     1     111.735 123.819 137.192  0.00  0.00    +0.000 C 
ENDBRANCH  10  26
TORSDOF 4
ENDMDL
