MODEL 1
REMARK VINA RESULT:     -10.6      0.000      0.000
REMARK  Name = 44260049
REMARK  6 active torsions:
REMARK  status: ('A' for Active; 'I' for Inactive)
REMARK    1  A    between atoms: O_2  and  C_23
REMARK    2  A    between atoms: O_2  and  C_27
REMARK    3  A    between atoms: O_6  and  C_26
REMARK    4  A    between atoms: O_6  and  C_30
REMARK    5  A    between atoms: C_18  and  C_27
REMARK    6  A    between atoms: C_31  and  C_35
REMARK                            x       y       z     vdW  Elec       q    Type
REMARK                         _______ _______ _______ _____ _____    ______ ____
ROOT
ATOM      1  O   UNL     1     112.227 125.369 137.193  0.00  0.00    +0.000 OA
ENDROOT
BRANCH   1   8
ATOM      2  O   UNL     1     113.537 126.186 138.736  0.00  0.00    +0.000 OA
ATOM      3  O   UNL     1     111.125 125.797 138.344  0.00  0.00    +0.000 OA
ATOM      4  O   UNL     1     110.796 126.356 139.633  0.00  0.00    +0.000 OA
ATOM      5  O   UNL     1     114.068 126.882 140.164  0.00  0.00    +0.000 OA
ATOM      6  O   UNL     1     111.302 127.060 141.083  0.00  0.00    +0.000 OA
ATOM      7  O   UNL     1     112.949 127.325 141.351  0.00  0.00    +0.000 OA
ATOM      8  C   UNL     1     112.480 125.712 137.899  0.00  0.00    +0.000 A 
ATOM      9  C   UNL     1     113.284 125.842 138.030  0.00  0.00    +0.000 A 
ATOM     10  C   UNL     1     111.929 125.927 138.475  0.00  0.00    +0.000 A 
ATOM     11  C   UNL     1     112.181 126.270 139.180  0.00  0.00    +0.000 A 
ATOM     12  C   UNL     1     112.986 126.400 139.311  0.00  0.00    +0.000 A 
ATOM     13  C   UNL     1     111.598 126.489 139.772  0.00  0.00    +0.000 A 
ATOM     14  C   UNL     1     113.262 126.757 140.043  0.00  0.00    +0.000 A 
ATOM     15  C   UNL     1     111.855 126.847 140.509  0.00  0.00    +0.000 A 
ATOM     16  C   UNL     1     112.693 126.982 140.645  0.00  0.00    +0.000 A 
BRANCH   9  18
ATOM     17  O   UNL     1     115.491 124.989 135.729  0.00  0.00    +0.000 OA
ATOM     18  C   UNL     1     113.835 125.628 137.455  0.00  0.00    +0.000 A 
ATOM     19  C   UNL     1     114.174 126.207 136.973  0.00  0.00    +0.000 A 
ATOM     20  C   UNL     1     114.048 124.836 137.361  0.00  0.00    +0.000 A 
ATOM     21  C   UNL     1     114.726 125.993 136.398  0.00  0.00    +0.000 A 
ATOM     22  C   UNL     1     114.600 124.624 136.785  0.00  0.00    +0.000 A 
ATOM     23  C   UNL     1     114.939 125.201 136.304  0.00  0.00    +0.000 A 
ENDBRANCH   9  18
ENDBRANCH   1   8
BRANCH   1  32
ATOM     24  O   UNL     1     111.708 126.605 136.698  0.00  0.00    +0.000 OA
ATOM     25  O   UNL     1     110.174 127.014 135.201  0.00  0.00    +0.000 OA
ATOM     26  O   UNL     1     110.183 125.364 135.195  0.00  0.00    +0.000 OA
ATOM     27  O   UNL     1     111.210 124.542 136.191  0.00  0.00    +0.000 OA
ATOM     28  C   UNL     1     111.195 127.017 136.200  0.00  0.00    +0.000 C 
ATOM     29  C   UNL     1     110.687 126.603 135.699  0.00  0.00    +0.000 C 
ATOM     30  C   UNL     1     110.691 125.778 135.696  0.00  0.00    +0.000 C 
ATOM     31  C   UNL     1     111.205 125.366 136.194  0.00  0.00    +0.000 C 
ATOM     32  C   UNL     1     111.714 125.780 136.695  0.00  0.00    +0.000 C 
BRANCH  28  33
ATOM     33  C   UNL     1     111.191 127.842 136.203  0.00  0.00    +0.000 C 
BRANCH  33  34
ATOM     34  O   UNL     1     111.895 128.258 136.094  0.00  0.00    +0.000 OA
BRANCH  34  40
ATOM     35  O   UNL     1     111.616 129.155 137.171  0.00  0.00    +0.000 OA
ATOM     36  O   UNL     1     112.886 129.386 135.410  0.00  0.00    +0.000 OA
ATOM     37  O   UNL     1     113.103 130.847 136.145  0.00  0.00    +0.000 OA
ATOM     38  O   UNL     1     112.329 131.181 137.564  0.00  0.00    +0.000 OA
ATOM     39  C   UNL     1     112.499 129.553 136.119  0.00  0.00    +0.000 C 
ATOM     40  C   UNL     1     112.003 128.989 136.461  0.00  0.00    +0.000 C 
ATOM     41  C   UNL     1     112.607 130.283 136.487  0.00  0.00    +0.000 C 
ATOM     42  C   UNL     1     112.220 130.450 137.196  0.00  0.00    +0.000 C 
ATOM     43  C   UNL     1     111.725 129.886 137.538  0.00  0.00    +0.000 C 
ATOM     44  C   UNL     1     111.337 130.053 138.247  0.00  0.00    +0.000 C 
ENDBRANCH  34  40
ENDBRANCH  33  34
ENDBRANCH  28  33
ENDBRANCH   1  32
TORSDOF 6
ENDMDL
MODEL 2
REMARK VINA RESULT:     -10.6      1.585      2.820
REMARK  Name = 44260049
REMARK  6 active torsions:
REMARK  status: ('A' for Active; 'I' for Inactive)
REMARK    1  A    between atoms: O_2  and  C_23
REMARK    2  A    between atoms: O_2  and  C_27
REMARK    3  A    between atoms: O_6  and  C_26
REMARK    4  A    between atoms: O_6  and  C_30
REMARK    5  A    between atoms: C_18  and  C_27
REMARK    6  A    between atoms: C_31  and  C_35
REMARK                            x       y       z     vdW  Elec       q    Type
REMARK                         _______ _______ _______ _____ _____    ______ ____
ROOT
ATOM      1  O   UNL     1     113.230 126.721 137.237  0.00  0.00    +0.000 OA
ENDROOT
BRANCH   1   8
ATOM      2  O   UNL     1     112.077 126.047 138.963  0.00  0.00    +0.000 OA
ATOM      3  O   UNL     1     113.537 127.936 138.311  0.00  0.00    +0.000 OA
ATOM      4  O   UNL     1     113.372 128.549 139.607  0.00  0.00    +0.000 OA
ATOM      5  O   UNL     1     111.392 125.986 140.491  0.00  0.00    +0.000 OA
ATOM      6  O   UNL     1     112.694 128.514 141.155  0.00  0.00    +0.000 OA
ATOM      7  O   UNL     1     111.697 127.224 141.600  0.00  0.00    +0.000 OA
ATOM      8  C   UNL     1     112.897 126.699 137.991  0.00  0.00    +0.000 A 
ATOM      9  C   UNL     1     112.411 126.069 138.209  0.00  0.00    +0.000 A 
ATOM     10  C   UNL     1     113.050 127.307 138.529  0.00  0.00    +0.000 A 
ATOM     11  C   UNL     1     112.717 127.284 139.282  0.00  0.00    +0.000 A 
ATOM     12  C   UNL     1     112.230 126.655 139.500  0.00  0.00    +0.000 A 
ATOM     13  C   UNL     1     112.884 127.923 139.833  0.00  0.00    +0.000 A 
ATOM     14  C   UNL     1     111.877 126.620 140.283  0.00  0.00    +0.000 A 
ATOM     15  C   UNL     1     112.539 127.905 140.620  0.00  0.00    +0.000 A 
ATOM     16  C   UNL     1     112.033 127.249 140.846  0.00  0.00    +0.000 A 
BRANCH   9  18
ATOM     17  O   UNL     1     111.794 123.640 136.062  0.00  0.00    +0.000 OA
ATOM     18  C   UNL     1     112.257 125.462 137.672  0.00  0.00    +0.000 A 
ATOM     19  C   UNL     1     111.516 125.407 137.313  0.00  0.00    +0.000 A 
ATOM     20  C   UNL     1     112.844 124.910 137.494  0.00  0.00    +0.000 A 
ATOM     21  C   UNL     1     111.362 124.799 136.777  0.00  0.00    +0.000 A 
ATOM     22  C   UNL     1     112.689 124.302 136.958  0.00  0.00    +0.000 A 
ATOM     23  C   UNL     1     111.949 124.247 136.599  0.00  0.00    +0.000 A 
ENDBRANCH   9  18
ENDBRANCH   1   8
BRANCH   1  32
ATOM     24  O   UNL     1     112.370 127.752 136.748  0.00  0.00    +0.000 OA
ATOM     25  O   UNL     1     112.721 129.333 135.285  0.00  0.00    +0.000 OA
ATOM     26  O   UNL     1     114.188 128.578 135.287  0.00  0.00    +0.000 OA
ATOM     27  O   UNL     1     114.443 127.272 136.263  0.00  0.00    +0.000 OA
ATOM     28  C   UNL     1     112.242 128.405 136.260  0.00  0.00    +0.000 C 
ATOM     29  C   UNL     1     112.848 128.680 135.773  0.00  0.00    +0.000 C 
ATOM     30  C   UNL     1     113.582 128.303 135.774  0.00  0.00    +0.000 C 
ATOM     31  C   UNL     1     113.709 127.650 136.262  0.00  0.00    +0.000 C 
ATOM     32  C   UNL     1     113.103 127.374 136.749  0.00  0.00    +0.000 C 
BRANCH  28  33
ATOM     33  C   UNL     1     111.508 128.782 136.260  0.00  0.00    +0.000 C 
BRANCH  33  34
ATOM     34  O   UNL     1     110.822 128.348 136.115  0.00  0.00    +0.000 OA
BRANCH  34  40
ATOM     35  O   UNL     1     110.024 129.499 136.399  0.00  0.00    +0.000 OA
ATOM     36  O   UNL     1     109.476 127.540 135.608  0.00  0.00    +0.000 OA
ATOM     37  O   UNL     1     108.005 128.287 135.639  0.00  0.00    +0.000 OA
ATOM     38  O   UNL     1     107.880 129.842 136.176  0.00  0.00    +0.000 OA
ATOM     39  C   UNL     1     109.413 128.317 135.877  0.00  0.00    +0.000 C 
ATOM     40  C   UNL     1     110.086 128.721 136.130  0.00  0.00    +0.000 C 
ATOM     41  C   UNL     1     108.678 128.691 135.892  0.00  0.00    +0.000 C 
ATOM     42  C   UNL     1     108.615 129.468 136.161  0.00  0.00    +0.000 C 
ATOM     43  C   UNL     1     109.289 129.872 136.414  0.00  0.00    +0.000 C 
ATOM     44  C   UNL     1     109.226 130.650 136.683  0.00  0.00    +0.000 C 
ENDBRANCH  34  40
ENDBRANCH  33  34
ENDBRANCH  28  33
ENDBRANCH   1  32
TORSDOF 6
ENDMDL
MODEL 3
REMARK VINA RESULT:     -10.5      1.542      3.709
REMARK  Name = 44260049
REMARK  6 active torsions:
REMARK  status: ('A' for Active; 'I' for Inactive)
REMARK    1  A    between atoms: O_2  and  C_23
REMARK    2  A    between atoms: O_2  and  C_27
REMARK    3  A    between atoms: O_6  and  C_26
REMARK    4  A    between atoms: O_6  and  C_30
REMARK    5  A    between atoms: C_18  and  C_27
REMARK    6  A    between atoms: C_31  and  C_35
REMARK                            x       y       z     vdW  Elec       q    Type
REMARK                         _______ _______ _______ _____ _____    ______ ____
ROOT
ATOM      1  O   UNL     1     112.854 126.414 137.616  0.00  0.00    +0.000 OA
ENDROOT
BRANCH   1   8
ATOM      2  O   UNL     1     113.002 128.507 138.217  0.00  0.00    +0.000 OA
ATOM      3  O   UNL     1     113.502 127.084 136.255  0.00  0.00    +0.000 OA
ATOM      4  O   UNL     1     113.994 128.222 135.518  0.00  0.00    +0.000 OA
ATOM      5  O   UNL     1     113.315 130.152 138.179  0.00  0.00    +0.000 OA
ATOM      6  O   UNL     1     114.320 129.879 135.452  0.00  0.00    +0.000 OA
ATOM      7  O   UNL     1     113.978 130.851 136.791  0.00  0.00    +0.000 OA
ATOM      8  C   UNL     1     113.011 127.222 137.589  0.00  0.00    +0.000 A 
ATOM      9  C   UNL     1     112.845 127.697 138.243  0.00  0.00    +0.000 A 
ATOM     10  C   UNL     1     113.335 127.558 136.909  0.00  0.00    +0.000 A 
ATOM     11  C   UNL     1     113.493 128.367 136.882  0.00  0.00    +0.000 A 
ATOM     12  C   UNL     1     113.326 128.841 137.536  0.00  0.00    +0.000 A 
ATOM     13  C   UNL     1     113.830 128.705 136.167  0.00  0.00    +0.000 A 
ATOM     14  C   UNL     1     113.485 129.686 137.520  0.00  0.00    +0.000 A 
ATOM     15  C   UNL     1     113.996 129.547 136.133  0.00  0.00    +0.000 A 
ATOM     16  C   UNL     1     113.822 130.041 136.815  0.00  0.00    +0.000 A 
BRANCH   9  18
ATOM     17  O   UNL     1     111.551 126.357 140.968  0.00  0.00    +0.000 OA
ATOM     18  C   UNL     1     112.521 127.362 138.924  0.00  0.00    +0.000 A 
ATOM     19  C   UNL     1     112.998 126.920 139.433  0.00  0.00    +0.000 A 
ATOM     20  C   UNL     1     111.721 127.469 139.097  0.00  0.00    +0.000 A 
ATOM     21  C   UNL     1     112.674 126.586 140.114  0.00  0.00    +0.000 A 
ATOM     22  C   UNL     1     111.398 127.134 139.778  0.00  0.00    +0.000 A 
ATOM     23  C   UNL     1     111.874 126.693 140.287  0.00  0.00    +0.000 A 
ENDBRANCH   9  18
ENDBRANCH   1   8
BRANCH   1  32
ATOM     24  O   UNL     1     111.755 126.541 136.711  0.00  0.00    +0.000 OA
ATOM     25  O   UNL     1     110.773 125.065 135.439  0.00  0.00    +0.000 OA
ATOM     26  O   UNL     1     111.931 124.135 136.159  0.00  0.00    +0.000 OA
ATOM     27  O   UNL     1     112.971 124.809 137.248  0.00  0.00    +0.000 OA
ATOM     28  C   UNL     1     111.235 126.203 136.167  0.00  0.00    +0.000 C 
ATOM     29  C   UNL     1     111.294 125.402 135.983  0.00  0.00    +0.000 C 
ATOM     30  C   UNL     1     111.872 124.936 136.343  0.00  0.00    +0.000 C 
ATOM     31  C   UNL     1     112.393 125.274 136.887  0.00  0.00    +0.000 C 
ATOM     32  C   UNL     1     112.334 126.076 137.072  0.00  0.00    +0.000 C 
BRANCH  28  33
ATOM     33  C   UNL     1     110.656 126.669 135.807  0.00  0.00    +0.000 C 
BRANCH  33  34
ATOM     34  O   UNL     1     110.151 127.128 136.270  0.00  0.00    +0.000 OA
BRANCH  34  40
ATOM     35  O   UNL     1     110.307 128.352 135.549  0.00  0.00    +0.000 OA
ATOM     36  O   UNL     1     108.549 127.461 136.487  0.00  0.00    +0.000 OA
ATOM     37  O   UNL     1     107.905 128.851 135.875  0.00  0.00    +0.000 OA
ATOM     38  O   UNL     1     108.862 129.908 135.045  0.00  0.00    +0.000 OA
ATOM     39  C   UNL     1     109.028 127.989 136.073  0.00  0.00    +0.000 C 
ATOM     40  C   UNL     1     109.828 127.823 135.964  0.00  0.00    +0.000 C 
ATOM     41  C   UNL     1     108.706 128.685 135.766  0.00  0.00    +0.000 C 
ATOM     42  C   UNL     1     109.184 129.213 135.352  0.00  0.00    +0.000 C 
ATOM     43  C   UNL     1     109.985 129.047 135.243  0.00  0.00    +0.000 C 
ATOM     44  C   UNL     1     110.464 129.576 134.828  0.00  0.00    +0.000 C 
ENDBRANCH  34  40
ENDBRANCH  33  34
ENDBRANCH  28  33
ENDBRANCH   1  32
TORSDOF 6
ENDMDL
MODEL 4
REMARK VINA RESULT:     -10.5      1.369      4.428
REMARK  Name = 44260049
REMARK  6 active torsions:
REMARK  status: ('A' for Active; 'I' for Inactive)
REMARK    1  A    between atoms: O_2  and  C_23
REMARK    2  A    between atoms: O_2  and  C_27
REMARK    3  A    between atoms: O_6  and  C_26
REMARK    4  A    between atoms: O_6  and  C_30
REMARK    5  A    between atoms: C_18  and  C_27
REMARK    6  A    between atoms: C_31  and  C_35
REMARK                            x       y       z     vdW  Elec       q    Type
REMARK                         _______ _______ _______ _____ _____    ______ ____
ROOT
ATOM      1  O   UNL     1     113.156 127.488 136.661  0.00  0.00    +0.000 OA
ENDROOT
BRANCH   1   8
ATOM      2  O   UNL     1     111.943 125.777 136.056  0.00  0.00    +0.000 OA
ATOM      3  O   UNL     1     111.840 128.250 136.020  0.00  0.00    +0.000 OA
ATOM      4  O   UNL     1     110.546 128.216 135.384  0.00  0.00    +0.000 OA
ATOM      5  O   UNL     1     110.685 124.862 135.434  0.00  0.00    +0.000 OA
ATOM      6  O   UNL     1     109.262 127.318 134.749  0.00  0.00    +0.000 OA
ATOM      7  O   UNL     1     109.333 125.630 134.774  0.00  0.00    +0.000 OA
ATOM      8  C   UNL     1     112.533 127.045 136.353  0.00  0.00    +0.000 A 
ATOM      9  C   UNL     1     112.567 126.221 136.365  0.00  0.00    +0.000 A 
ATOM     10  C   UNL     1     111.875 127.426 136.032  0.00  0.00    +0.000 A 
ATOM     11  C   UNL     1     111.252 126.983 135.723  0.00  0.00    +0.000 A 
ATOM     12  C   UNL     1     111.286 126.159 135.735  0.00  0.00    +0.000 A 
ATOM     13  C   UNL     1     110.571 127.391 135.392  0.00  0.00    +0.000 A 
ATOM     14  C   UNL     1     110.642 125.686 135.417  0.00  0.00    +0.000 A 
ATOM     15  C   UNL     1     109.919 126.935 135.069  0.00  0.00    +0.000 A 
ATOM     16  C   UNL     1     109.955 126.077 135.082  0.00  0.00    +0.000 A 
BRANCH   9  18
ATOM     17  O   UNL     1     115.196 124.695 137.649  0.00  0.00    +0.000 OA
ATOM     18  C   UNL     1     113.225 125.840 136.685  0.00  0.00    +0.000 A 
ATOM     19  C   UNL     1     113.167 125.465 137.418  0.00  0.00    +0.000 A 
ATOM     20  C   UNL     1     113.940 125.833 136.274  0.00  0.00    +0.000 A 
ATOM     21  C   UNL     1     113.824 125.083 137.739  0.00  0.00    +0.000 A 
ATOM     22  C   UNL     1     114.597 125.451 136.595  0.00  0.00    +0.000 A 
ATOM     23  C   UNL     1     114.539 125.077 137.327  0.00  0.00    +0.000 A 
ENDBRANCH   9  18
ENDBRANCH   1   8
BRANCH   1  32
ATOM     24  O   UNL     1     112.467 127.886 137.848  0.00  0.00    +0.000 OA
ATOM     25  O   UNL     1     112.583 129.724 139.020  0.00  0.00    +0.000 OA
ATOM     26  O   UNL     1     113.674 130.047 137.825  0.00  0.00    +0.000 OA
ATOM     27  O   UNL     1     113.961 128.929 136.646  0.00  0.00    +0.000 OA
ATOM     28  C   UNL     1     112.324 128.445 138.438  0.00  0.00    +0.000 C 
ATOM     29  C   UNL     1     112.726 129.165 138.430  0.00  0.00    +0.000 C 
ATOM     30  C   UNL     1     113.272 129.327 137.833  0.00  0.00    +0.000 C 
ATOM     31  C   UNL     1     113.415 128.768 137.243  0.00  0.00    +0.000 C 
ATOM     32  C   UNL     1     113.013 128.047 137.251  0.00  0.00    +0.000 C 
BRANCH  28  33
ATOM     33  C   UNL     1     111.778 128.283 139.035  0.00  0.00    +0.000 C 
BRANCH  33  34
ATOM     34  O   UNL     1     111.808 127.563 139.436  0.00  0.00    +0.000 OA
BRANCH  34  40
ATOM     35  O   UNL     1     110.539 127.819 140.041  0.00  0.00    +0.000 OA
ATOM     36  O   UNL     1     112.072 126.337 140.508  0.00  0.00    +0.000 OA
ATOM     37  O   UNL     1     110.935 125.980 141.650  0.00  0.00    +0.000 OA
ATOM     38  O   UNL     1     109.534 126.850 141.719  0.00  0.00    +0.000 OA
ATOM     39  C   UNL     1     111.372 126.771 140.543  0.00  0.00    +0.000 C 
ATOM     40  C   UNL     1     111.240 127.384 140.007  0.00  0.00    +0.000 C 
ATOM     41  C   UNL     1     110.803 126.593 141.114  0.00  0.00    +0.000 C 
ATOM     42  C   UNL     1     110.103 127.027 141.148  0.00  0.00    +0.000 C 
ATOM     43  C   UNL     1     109.971 127.640 140.612  0.00  0.00    +0.000 C 
ATOM     44  C   UNL     1     109.270 128.075 140.646  0.00  0.00    +0.000 C 
ENDBRANCH  34  40
ENDBRANCH  33  34
ENDBRANCH  28  33
ENDBRANCH   1  32
TORSDOF 6
ENDMDL
MODEL 5
REMARK VINA RESULT:     -10.4      1.960      3.950
REMARK  Name = 44260049
REMARK  6 active torsions:
REMARK  status: ('A' for Active; 'I' for Inactive)
REMARK    1  A    between atoms: O_2  and  C_23
REMARK    2  A    between atoms: O_2  and  C_27
REMARK    3  A    between atoms: O_6  and  C_26
REMARK    4  A    between atoms: O_6  and  C_30
REMARK    5  A    between atoms: C_18  and  C_27
REMARK    6  A    between atoms: C_31  and  C_35
REMARK                            x       y       z     vdW  Elec       q    Type
REMARK                         _______ _______ _______ _____ _____    ______ ____
ROOT
ATOM      1  O   UNL     1     113.199 128.708 137.776  0.00  0.00    +0.000 OA
ENDROOT
BRANCH   1   8
ATOM      2  O   UNL     1     112.643 127.083 136.428  0.00  0.00    +0.000 OA
ATOM      3  O   UNL     1     112.438 127.682 138.821  0.00  0.00    +0.000 OA
ATOM      4  O   UNL     1     111.737 126.453 139.098  0.00  0.00    +0.000 OA
ATOM      5  O   UNL     1     112.015 125.640 135.853  0.00  0.00    +0.000 OA
ATOM      6  O   UNL     1     111.093 124.991 138.547  0.00  0.00    +0.000 OA
ATOM      7  O   UNL     1     111.233 124.582 136.913  0.00  0.00    +0.000 OA
ATOM      8  C   UNL     1     112.887 127.996 137.501  0.00  0.00    +0.000 A 
ATOM      9  C   UNL     1     112.955 127.796 136.703  0.00  0.00    +0.000 A 
ATOM     10  C   UNL     1     112.507 127.483 138.023  0.00  0.00    +0.000 A 
ATOM     11  C   UNL     1     112.195 126.771 137.749  0.00  0.00    +0.000 A 
ATOM     12  C   UNL     1     112.263 126.571 136.951  0.00  0.00    +0.000 A 
ATOM     13  C   UNL     1     111.800 126.245 138.303  0.00  0.00    +0.000 A 
ATOM     14  C   UNL     1     111.942 125.832 136.652  0.00  0.00    +0.000 A 
ATOM     15  C   UNL     1     111.473 125.502 138.022  0.00  0.00    +0.000 A 
ATOM     16  C   UNL     1     111.544 125.294 137.192  0.00  0.00    +0.000 A 
BRANCH   9  18
ATOM     17  O   UNL     1     114.479 129.845 134.612  0.00  0.00    +0.000 OA
ATOM     18  C   UNL     1     113.336 128.308 136.181  0.00  0.00    +0.000 A 
ATOM     19  C   UNL     1     114.158 128.380 136.199  0.00  0.00    +0.000 A 
ATOM     20  C   UNL     1     112.895 128.748 135.639  0.00  0.00    +0.000 A 
ATOM     21  C   UNL     1     114.538 128.893 135.676  0.00  0.00    +0.000 A 
ATOM     22  C   UNL     1     113.277 129.260 135.117  0.00  0.00    +0.000 A 
ATOM     23  C   UNL     1     114.098 129.333 135.135  0.00  0.00    +0.000 A 
ENDBRANCH   9  18
ENDBRANCH   1   8
BRANCH   1  32
ATOM     24  O   UNL     1     111.944 129.387 137.856  0.00  0.00    +0.000 OA
ATOM     25  O   UNL     1     111.232 130.914 139.242  0.00  0.00    +0.000 OA
ATOM     26  O   UNL     1     112.758 130.660 139.816  0.00  0.00    +0.000 OA
ATOM     27  O   UNL     1     113.741 129.556 139.083  0.00  0.00    +0.000 OA
ATOM     28  C   UNL     1     111.453 129.939 138.222  0.00  0.00    +0.000 C 
ATOM     29  C   UNL     1     111.724 130.363 138.875  0.00  0.00    +0.000 C 
ATOM     30  C   UNL     1     112.487 130.236 139.163  0.00  0.00    +0.000 C 
ATOM     31  C   UNL     1     112.978 129.684 138.796  0.00  0.00    +0.000 C 
ATOM     32  C   UNL     1     112.707 129.259 138.142  0.00  0.00    +0.000 C 
BRANCH  28  33
ATOM     33  C   UNL     1     110.690 130.066 137.935  0.00  0.00    +0.000 C 
BRANCH  33  34
ATOM     34  O   UNL     1     110.444 129.693 137.241  0.00  0.00    +0.000 OA
BRANCH  34  40
ATOM     35  O   UNL     1     109.495 130.702 136.889  0.00  0.00    +0.000 OA
ATOM     36  O   UNL     1     109.495 128.550 136.522  0.00  0.00    +0.000 OA
ATOM     37  O   UNL     1     108.072 128.987 135.810  0.00  0.00    +0.000 OA
ATOM     38  O   UNL     1     107.597 130.567 135.818  0.00  0.00    +0.000 OA
ATOM     39  C   UNL     1     109.258 129.339 136.526  0.00  0.00    +0.000 C 
ATOM     40  C   UNL     1     109.732 129.911 136.885  0.00  0.00    +0.000 C 
ATOM     41  C   UNL     1     108.546 129.559 136.170  0.00  0.00    +0.000 C 
ATOM     42  C   UNL     1     108.309 130.348 136.174  0.00  0.00    +0.000 C 
ATOM     43  C   UNL     1     108.783 130.920 136.533  0.00  0.00    +0.000 C 
ATOM     44  C   UNL     1     108.546 131.710 136.537  0.00  0.00    +0.000 C 
ENDBRANCH  34  40
ENDBRANCH  33  34
ENDBRANCH  28  33
ENDBRANCH   1  32
TORSDOF 6
ENDMDL
MODEL 6
REMARK VINA RESULT:     -10.4      2.210      4.226
REMARK  Name = 44260049
REMARK  6 active torsions:
REMARK  status: ('A' for Active; 'I' for Inactive)
REMARK    1  A    between atoms: O_2  and  C_23
REMARK    2  A    between atoms: O_2  and  C_27
REMARK    3  A    between atoms: O_6  and  C_26
REMARK    4  A    between atoms: O_6  and  C_30
REMARK    5  A    between atoms: C_18  and  C_27
REMARK    6  A    between atoms: C_31  and  C_35
REMARK                            x       y       z     vdW  Elec       q    Type
REMARK                         _______ _______ _______ _____ _____    ______ ____
ROOT
ATOM      1  O   UNL     1     111.460 127.497 137.430  0.00  0.00    +0.000 OA
ENDROOT
BRANCH   1   8
ATOM      2  O   UNL     1     112.500 128.203 135.646  0.00  0.00    +0.000 OA
ATOM      3  O   UNL     1     112.432 128.663 138.077  0.00  0.00    +0.000 OA
ATOM      4  O   UNL     1     113.435 129.690 137.940  0.00  0.00    +0.000 OA
ATOM      5  O   UNL     1     113.528 129.067 134.643  0.00  0.00    +0.000 OA
ATOM      6  O   UNL     1     114.481 130.577 136.953  0.00  0.00    +0.000 OA
ATOM      7  O   UNL     1     114.528 130.263 135.293  0.00  0.00    +0.000 OA
ATOM      8  C   UNL     1     111.968 127.926 136.944  0.00  0.00    +0.000 A 
ATOM      9  C   UNL     1     111.991 127.773 136.133  0.00  0.00    +0.000 A 
ATOM     10  C   UNL     1     112.455 128.510 137.267  0.00  0.00    +0.000 A 
ATOM     11  C   UNL     1     112.963 128.939 136.780  0.00  0.00    +0.000 A 
ATOM     12  C   UNL     1     112.986 128.786 135.970  0.00  0.00    +0.000 A 
ATOM     13  C   UNL     1     113.465 129.544 137.129  0.00  0.00    +0.000 A 
ATOM     14  C   UNL     1     113.512 129.227 135.452  0.00  0.00    +0.000 A 
ATOM     15  C   UNL     1     113.996 129.995 136.627  0.00  0.00    +0.000 A 
ATOM     16  C   UNL     1     114.020 129.835 135.783  0.00  0.00    +0.000 A 
BRANCH   9  18
ATOM     17  O   UNL     1     110.050 125.440 134.839  0.00  0.00    +0.000 OA
ATOM     18  C   UNL     1     111.505 127.190 135.810  0.00  0.00    +0.000 A 
ATOM     19  C   UNL     1     111.674 126.393 135.942  0.00  0.00    +0.000 A 
ATOM     20  C   UNL     1     110.852 127.404 135.354  0.00  0.00    +0.000 A 
ATOM     21  C   UNL     1     111.188 125.810 135.618  0.00  0.00    +0.000 A 
ATOM     22  C   UNL     1     110.367 126.820 135.030  0.00  0.00    +0.000 A 
ATOM     23  C   UNL     1     110.535 126.024 135.162  0.00  0.00    +0.000 A 
ENDBRANCH   9  18
ENDBRANCH   1   8
BRANCH   1  32
ATOM     24  O   UNL     1     110.525 128.566 137.589  0.00  0.00    +0.000 OA
ATOM     25  O   UNL     1     109.196 129.068 139.246  0.00  0.00    +0.000 OA
ATOM     26  O   UNL     1     109.933 127.715 139.836  0.00  0.00    +0.000 OA
ATOM     27  O   UNL     1     111.065 126.930 138.929  0.00  0.00    +0.000 OA
ATOM     28  C   UNL     1     109.959 128.959 138.043  0.00  0.00    +0.000 C 
ATOM     29  C   UNL     1     109.762 128.675 138.792  0.00  0.00    +0.000 C 
ATOM     30  C   UNL     1     110.130 127.999 139.088  0.00  0.00    +0.000 C 
ATOM     31  C   UNL     1     110.696 127.606 138.634  0.00  0.00    +0.000 C 
ATOM     32  C   UNL     1     110.894 127.890 137.884  0.00  0.00    +0.000 C 
BRANCH  28  33
ATOM     33  C   UNL     1     109.590 129.635 137.747  0.00  0.00    +0.000 C 
BRANCH  33  34
ATOM     34  O   UNL     1     109.236 129.619 137.002  0.00  0.00    +0.000 OA
BRANCH  34  40
ATOM     35  O   UNL     1     109.508 130.993 136.719  0.00  0.00    +0.000 OA
ATOM     36  O   UNL     1     107.881 129.694 136.064  0.00  0.00    +0.000 OA
ATOM     37  O   UNL     1     107.475 131.105 135.312  0.00  0.00    +0.000 OA
ATOM     38  O   UNL     1     108.425 132.442 135.498  0.00  0.00    +0.000 OA
ATOM     39  C   UNL     1     108.355 130.362 136.157  0.00  0.00    +0.000 C 
ATOM     40  C   UNL     1     109.033 130.324 136.626  0.00  0.00    +0.000 C 
ATOM     41  C   UNL     1     108.153 131.068 135.781  0.00  0.00    +0.000 C 
ATOM     42  C   UNL     1     108.627 131.736 135.874  0.00  0.00    +0.000 C 
ATOM     43  C   UNL     1     109.305 131.698 136.343  0.00  0.00    +0.000 C 
ATOM     44  C   UNL     1     109.781 132.367 136.436  0.00  0.00    +0.000 C 
ENDBRANCH  34  40
ENDBRANCH  33  34
ENDBRANCH  28  33
ENDBRANCH   1  32
TORSDOF 6
ENDMDL
MODEL 7
REMARK VINA RESULT:     -10.4      1.657      3.662
REMARK  Name = 44260049
REMARK  6 active torsions:
REMARK  status: ('A' for Active; 'I' for Inactive)
REMARK    1  A    between atoms: O_2  and  C_23
REMARK    2  A    between atoms: O_2  and  C_27
REMARK    3  A    between atoms: O_6  and  C_26
REMARK    4  A    between atoms: O_6  and  C_30
REMARK    5  A    between atoms: C_18  and  C_27
REMARK    6  A    between atoms: C_31  and  C_35
REMARK                            x       y       z     vdW  Elec       q    Type
REMARK                         _______ _______ _______ _____ _____    ______ ____
ROOT
ATOM      1  O   UNL     1     112.884 126.803 138.467  0.00  0.00    +0.000 OA
ENDROOT
BRANCH   1   8
ATOM      2  O   UNL     1     113.547 127.629 136.559  0.00  0.00    +0.000 OA
ATOM      3  O   UNL     1     112.916 128.415 138.819  0.00  0.00    +0.000 OA
ATOM      4  O   UNL     1     113.154 129.786 138.441  0.00  0.00    +0.000 OA
ATOM      5  O   UNL     1     114.010 128.720 135.375  0.00  0.00    +0.000 OA
ATOM      6  O   UNL     1     113.616 130.910 137.266  0.00  0.00    +0.000 OA
ATOM      7  O   UNL     1     114.047 130.373 135.722  0.00  0.00    +0.000 OA
ATOM      8  C   UNL     1     113.110 127.347 137.890  0.00  0.00    +0.000 A 
ATOM      9  C   UNL     1     113.321 127.085 137.137  0.00  0.00    +0.000 A 
ATOM     10  C   UNL     1     113.127 128.153 138.066  0.00  0.00    +0.000 A 
ATOM     11  C   UNL     1     113.353 128.696 137.489  0.00  0.00    +0.000 A 
ATOM     12  C   UNL     1     113.563 128.434 136.735  0.00  0.00    +0.000 A 
ATOM     13  C   UNL     1     113.366 129.533 137.684  0.00  0.00    +0.000 A 
ATOM     14  C   UNL     1     113.801 128.991 136.125  0.00  0.00    +0.000 A 
ATOM     15  C   UNL     1     113.601 130.104 137.087  0.00  0.00    +0.000 A 
ATOM     16  C   UNL     1     113.820 129.832 136.303  0.00  0.00    +0.000 A 
BRANCH   9  18
ATOM     17  O   UNL     1     113.259 123.861 136.432  0.00  0.00    +0.000 OA
ATOM     18  C   UNL     1     113.305 126.279 136.960  0.00  0.00    +0.000 A 
ATOM     19  C   UNL     1     113.906 125.785 137.235  0.00  0.00    +0.000 A 
ATOM     20  C   UNL     1     112.688 125.967 136.509  0.00  0.00    +0.000 A 
ATOM     21  C   UNL     1     113.890 124.979 137.059  0.00  0.00    +0.000 A 
ATOM     22  C   UNL     1     112.673 125.161 136.333  0.00  0.00    +0.000 A 
ATOM     23  C   UNL     1     113.274 124.667 136.608  0.00  0.00    +0.000 A 
ENDBRANCH   9  18
ENDBRANCH   1   8
BRANCH   1  32
ATOM     24  O   UNL     1     111.514 127.206 138.402  0.00  0.00    +0.000 OA
ATOM     25  O   UNL     1     109.899 127.020 139.858  0.00  0.00    +0.000 OA
ATOM     26  O   UNL     1     111.146 126.323 140.684  0.00  0.00    +0.000 OA
ATOM     27  O   UNL     1     112.638 126.214 139.989  0.00  0.00    +0.000 OA
ATOM     28  C   UNL     1     110.768 127.260 138.750  0.00  0.00    +0.000 C 
ATOM     29  C   UNL     1     110.645 126.966 139.510  0.00  0.00    +0.000 C 
ATOM     30  C   UNL     1     111.268 126.617 139.924  0.00  0.00    +0.000 C 
ATOM     31  C   UNL     1     112.015 126.563 139.576  0.00  0.00    +0.000 C 
ATOM     32  C   UNL     1     112.138 126.857 138.815  0.00  0.00    +0.000 C 
BRANCH  28  33
ATOM     33  C   UNL     1     110.145 127.609 138.336  0.00  0.00    +0.000 C 
BRANCH  33  34
ATOM     34  O   UNL     1     110.004 127.398 137.551  0.00  0.00    +0.000 OA
BRANCH  34  40
ATOM     35  O   UNL     1     109.910 128.711 136.994  0.00  0.00    +0.000 OA
ATOM     36  O   UNL     1     108.731 126.913 136.620  0.00  0.00    +0.000 OA
ATOM     37  O   UNL     1     108.000 127.983 135.598  0.00  0.00    +0.000 OA
ATOM     38  O   UNL     1     108.543 129.539 135.507  0.00  0.00    +0.000 OA
ATOM     39  C   UNL     1     109.002 127.690 136.575  0.00  0.00    +0.000 C 
ATOM     40  C   UNL     1     109.638 127.933 137.040  0.00  0.00    +0.000 C 
ATOM     41  C   UNL     1     108.637 128.226 136.064  0.00  0.00    +0.000 C 
ATOM     42  C   UNL     1     108.908 129.003 136.018  0.00  0.00    +0.000 C 
ATOM     43  C   UNL     1     109.544 129.246 136.483  0.00  0.00    +0.000 C 
ATOM     44  C   UNL     1     109.816 130.024 136.438  0.00  0.00    +0.000 C 
ENDBRANCH  34  40
ENDBRANCH  33  34
ENDBRANCH  28  33
ENDBRANCH   1  32
TORSDOF 6
ENDMDL
MODEL 8
REMARK VINA RESULT:     -10.3      9.332     12.210
REMARK  Name = 44260049
REMARK  6 active torsions:
REMARK  status: ('A' for Active; 'I' for Inactive)
REMARK    1  A    between atoms: O_2  and  C_23
REMARK    2  A    between atoms: O_2  and  C_27
REMARK    3  A    between atoms: O_6  and  C_26
REMARK    4  A    between atoms: O_6  and  C_30
REMARK    5  A    between atoms: C_18  and  C_27
REMARK    6  A    between atoms: C_31  and  C_35
REMARK                            x       y       z     vdW  Elec       q    Type
REMARK                         _______ _______ _______ _____ _____    ______ ____
ROOT
ATOM      1  O   UNL     1     105.156 125.976 148.467  0.00  0.00    +0.000 OA
ENDROOT
BRANCH   1   8
ATOM      2  O   UNL     1     105.093 124.225 147.165  0.00  0.00    +0.000 OA
ATOM      3  O   UNL     1     103.566 125.971 148.027  0.00  0.00    +0.000 OA
ATOM      4  O   UNL     1     102.457 125.400 147.303  0.00  0.00    +0.000 OA
ATOM      5  O   UNL     1     104.529 123.031 146.134  0.00  0.00    +0.000 OA
ATOM      6  O   UNL     1     101.860 124.208 146.264  0.00  0.00    +0.000 OA
ATOM      7  O   UNL     1     102.903 123.015 145.676  0.00  0.00    +0.000 OA
ATOM      8  C   UNL     1     104.870 125.392 147.960  0.00  0.00    +0.000 A 
ATOM      9  C   UNL     1     105.379 124.810 147.673  0.00  0.00    +0.000 A 
ATOM     10  C   UNL     1     104.075 125.389 147.740  0.00  0.00    +0.000 A 
ATOM     11  C   UNL     1     103.789 124.805 147.233  0.00  0.00    +0.000 A 
ATOM     12  C   UNL     1     104.298 124.223 146.946  0.00  0.00    +0.000 A 
ATOM     13  C   UNL     1     102.959 124.813 147.011  0.00  0.00    +0.000 A 
ATOM     14  C   UNL     1     104.012 123.609 146.417  0.00  0.00    +0.000 A 
ATOM     15  C   UNL     1     102.655 124.208 146.483  0.00  0.00    +0.000 A 
ATOM     16  C   UNL     1     103.185 123.601 146.184  0.00  0.00    +0.000 A 
BRANCH   9  18
ATOM     17  O   UNL     1     108.559 124.817 148.555  0.00  0.00    +0.000 OA
ATOM     18  C   UNL     1     106.174 124.812 147.893  0.00  0.00    +0.000 A 
ATOM     19  C   UNL     1     106.390 124.603 148.662  0.00  0.00    +0.000 A 
ATOM     20  C   UNL     1     106.754 125.023 147.345  0.00  0.00    +0.000 A 
ATOM     21  C   UNL     1     107.185 124.604 148.882  0.00  0.00    +0.000 A 
ATOM     22  C   UNL     1     107.549 125.024 147.566  0.00  0.00    +0.000 A 
ATOM     23  C   UNL     1     107.764 124.815 148.334  0.00  0.00    +0.000 A 
ENDBRANCH   9  18
ENDBRANCH   1   8
BRANCH   1  32
ATOM     24  O   UNL     1     105.217 127.006 147.478  0.00  0.00    +0.000 OA
ATOM     25  O   UNL     1     104.892 129.158 147.632  0.00  0.00    +0.000 OA
ATOM     26  O   UNL     1     104.637 128.691 149.194  0.00  0.00    +0.000 OA
ATOM     27  O   UNL     1     104.769 127.100 149.611  0.00  0.00    +0.000 OA
ATOM     28  C   UNL     1     105.151 127.801 147.269  0.00  0.00    +0.000 C 
ATOM     29  C   UNL     1     104.958 128.363 147.841  0.00  0.00    +0.000 C 
ATOM     30  C   UNL     1     104.830 128.130 148.622  0.00  0.00    +0.000 C 
ATOM     31  C   UNL     1     104.896 127.334 148.831  0.00  0.00    +0.000 C 
ATOM     32  C   UNL     1     105.090 126.772 148.258  0.00  0.00    +0.000 C 
BRANCH  28  33
ATOM     33  C   UNL     1     105.279 128.034 146.488  0.00  0.00    +0.000 C 
BRANCH  33  34
ATOM     34  O   UNL     1     105.996 127.860 146.118  0.00  0.00    +0.000 OA
BRANCH  34  40
ATOM     35  O   UNL     1     105.442 128.213 144.849  0.00  0.00    +0.000 OA
ATOM     36  O   UNL     1     107.499 127.787 145.442  0.00  0.00    +0.000 OA
ATOM     37  O   UNL     1     107.697 128.104 143.834  0.00  0.00    +0.000 OA
ATOM     38  O   UNL     1     106.391 128.493 142.904  0.00  0.00    +0.000 OA
ATOM     39  C   UNL     1     106.847 127.982 144.976  0.00  0.00    +0.000 C 
ATOM     40  C   UNL     1     106.095 128.018 145.315  0.00  0.00    +0.000 C 
ATOM     41  C   UNL     1     106.945 128.140 144.173  0.00  0.00    +0.000 C 
ATOM     42  C   UNL     1     106.293 128.335 143.707  0.00  0.00    +0.000 C 
ATOM     43  C   UNL     1     105.541 128.371 144.046  0.00  0.00    +0.000 C 
ATOM     44  C   UNL     1     104.888 128.566 143.580  0.00  0.00    +0.000 C 
ENDBRANCH  34  40
ENDBRANCH  33  34
ENDBRANCH  28  33
ENDBRANCH   1  32
TORSDOF 6
ENDMDL
MODEL 9
REMARK VINA RESULT:     -10.3      1.514      3.882
REMARK  Name = 44260049
REMARK  6 active torsions:
REMARK  status: ('A' for Active; 'I' for Inactive)
REMARK    1  A    between atoms: O_2  and  C_23
REMARK    2  A    between atoms: O_2  and  C_27
REMARK    3  A    between atoms: O_6  and  C_26
REMARK    4  A    between atoms: O_6  and  C_30
REMARK    5  A    between atoms: C_18  and  C_27
REMARK    6  A    between atoms: C_31  and  C_35
REMARK                            x       y       z     vdW  Elec       q    Type
REMARK                         _______ _______ _______ _____ _____    ______ ____
ROOT
ATOM      1  O   UNL     1     111.798 127.741 135.943  0.00  0.00    +0.000 OA
ENDROOT
BRANCH   1   8
ATOM      2  O   UNL     1     113.615 126.781 136.679  0.00  0.00    +0.000 OA
ATOM      3  O   UNL     1     111.304 126.169 136.037  0.00  0.00    +0.000 OA
ATOM      4  O   UNL     1     111.556 124.782 136.341  0.00  0.00    +0.000 OA
ATOM      5  O   UNL     1     114.690 125.612 137.211  0.00  0.00    +0.000 OA
ATOM      6  O   UNL     1     112.619 123.581 136.874  0.00  0.00    +0.000 OA
ATOM      7  O   UNL     1     114.197 123.999 137.312  0.00  0.00    +0.000 OA
ATOM      8  C   UNL     1     112.320 127.159 136.204  0.00  0.00    +0.000 A 
ATOM      9  C   UNL     1     113.091 127.363 136.417  0.00  0.00    +0.000 A 
ATOM     10  C   UNL     1     112.074 126.373 136.251  0.00  0.00    +0.000 A 
ATOM     11  C   UNL     1     112.597 125.792 136.512  0.00  0.00    +0.000 A 
ATOM     12  C   UNL     1     113.367 125.995 136.726  0.00  0.00    +0.000 A 
ATOM     13  C   UNL     1     112.328 124.976 136.556  0.00  0.00    +0.000 A 
ATOM     14  C   UNL     1     113.922 125.398 136.999  0.00  0.00    +0.000 A 
ATOM     15  C   UNL     1     112.868 124.366 136.827  0.00  0.00    +0.000 A 
ATOM     16  C   UNL     1     113.670 124.578 137.050  0.00  0.00    +0.000 A 
BRANCH   9  18
ATOM     17  O   UNL     1     114.081 130.505 136.227  0.00  0.00    +0.000 OA
ATOM     18  C   UNL     1     113.338 128.149 136.371  0.00  0.00    +0.000 A 
ATOM     19  C   UNL     1     113.513 128.482 135.636  0.00  0.00    +0.000 A 
ATOM     20  C   UNL     1     113.411 128.600 137.057  0.00  0.00    +0.000 A 
ATOM     21  C   UNL     1     113.761 129.268 135.589  0.00  0.00    +0.000 A 
ATOM     22  C   UNL     1     113.659 129.386 137.009  0.00  0.00    +0.000 A 
ATOM     23  C   UNL     1     113.833 129.720 136.275  0.00  0.00    +0.000 A 
ENDBRANCH   9  18
ENDBRANCH   1   8
BRANCH   1  32
ATOM     24  O   UNL     1     111.078 127.841 137.174  0.00  0.00    +0.000 OA
ATOM     25  O   UNL     1     108.976 128.271 137.569  0.00  0.00    +0.000 OA
ATOM     26  O   UNL     1     109.002 128.336 135.921  0.00  0.00    +0.000 OA
ATOM     27  O   UNL     1     110.413 128.071 135.108  0.00  0.00    +0.000 OA
ATOM     28  C   UNL     1     110.373 127.973 137.580  0.00  0.00    +0.000 C 
ATOM     29  C   UNL     1     109.681 128.138 137.163  0.00  0.00    +0.000 C 
ATOM     30  C   UNL     1     109.694 128.171 136.338  0.00  0.00    +0.000 C 
ATOM     31  C   UNL     1     110.399 128.038 135.932  0.00  0.00    +0.000 C 
ATOM     32  C   UNL     1     111.092 127.873 136.350  0.00  0.00    +0.000 C 
BRANCH  28  33
ATOM     33  C   UNL     1     110.360 127.941 138.405  0.00  0.00    +0.000 C 
BRANCH  33  34
ATOM     34  O   UNL     1     110.725 127.314 138.798  0.00  0.00    +0.000 OA
BRANCH  34  40
ATOM     35  O   UNL     1     110.723 128.033 140.032  0.00  0.00    +0.000 OA
ATOM     36  O   UNL     1     110.962 125.903 139.620  0.00  0.00    +0.000 OA
ATOM     37  O   UNL     1     111.079 125.917 141.266  0.00  0.00    +0.000 OA
ATOM     38  O   UNL     1     110.958 127.342 142.089  0.00  0.00    +0.000 OA
ATOM     39  C   UNL     1     110.902 126.615 140.032  0.00  0.00    +0.000 C 
ATOM     40  C   UNL     1     110.783 127.320 139.621  0.00  0.00    +0.000 C 
ATOM     41  C   UNL     1     110.960 126.623 140.855  0.00  0.00    +0.000 C 
ATOM     42  C   UNL     1     110.900 127.334 141.266  0.00  0.00    +0.000 C 
ATOM     43  C   UNL     1     110.781 128.040 140.855  0.00  0.00    +0.000 C 
ATOM     44  C   UNL     1     110.721 128.753 141.267  0.00  0.00    +0.000 C 
ENDBRANCH  34  40
ENDBRANCH  33  34
ENDBRANCH  28  33
ENDBRANCH   1  32
TORSDOF 6
ENDMDL
MODEL 10
REMARK VINA RESULT:     -10.3      1.423      4.649
REMARK  Name = 44260049
REMARK  6 active torsions:
REMARK  status: ('A' for Active; 'I' for Inactive)
REMARK    1  A    between atoms: O_2  and  C_23
REMARK    2  A    between atoms: O_2  and  C_27
REMARK    3  A    between atoms: O_6  and  C_26
REMARK    4  A    between atoms: O_6  and  C_30
REMARK    5  A    between atoms: C_18  and  C_27
REMARK    6  A    between atoms: C_31  and  C_35
REMARK                            x       y       z     vdW  Elec       q    Type
REMARK                         _______ _______ _______ _____ _____    ______ ____
ROOT
ATOM      1  O   UNL     1     112.411 128.079 136.169  0.00  0.00    +0.000 OA
ENDROOT
BRANCH   1   8
ATOM      2  O   UNL     1     111.388 126.160 135.982  0.00  0.00    +0.000 OA
ATOM      3  O   UNL     1     113.573 127.050 136.729  0.00  0.00    +0.000 OA
ATOM      4  O   UNL     1     114.036 125.722 137.052  0.00  0.00    +0.000 OA
ATOM      5  O   UNL     1     111.072 124.516 136.039  0.00  0.00    +0.000 OA
ATOM      6  O   UNL     1     113.745 124.059 137.120  0.00  0.00    +0.000 OA
ATOM      7  O   UNL     1     112.253 123.451 136.610  0.00  0.00    +0.000 OA
ATOM      8  C   UNL     1     112.264 127.268 136.200  0.00  0.00    +0.000 A 
ATOM      9  C   UNL     1     111.535 126.972 135.951  0.00  0.00    +0.000 A 
ATOM     10  C   UNL     1     112.845 126.753 136.480  0.00  0.00    +0.000 A 
ATOM     11  C   UNL     1     112.697 125.943 136.511  0.00  0.00    +0.000 A 
ATOM     12  C   UNL     1     111.969 125.646 136.262  0.00  0.00    +0.000 A 
ATOM     13  C   UNL     1     113.311 125.416 136.805  0.00  0.00    +0.000 A 
ATOM     14  C   UNL     1     111.803 124.803 136.290  0.00  0.00    +0.000 A 
ATOM     15  C   UNL     1     113.163 124.571 136.839  0.00  0.00    +0.000 A 
ATOM     16  C   UNL     1     112.404 124.262 136.580  0.00  0.00    +0.000 A 
BRANCH   9  18
ATOM     17  O   UNL     1     109.209 129.028 134.833  0.00  0.00    +0.000 OA
ATOM     18  C   UNL     1     110.954 127.486 135.671  0.00  0.00    +0.000 A 
ATOM     19  C   UNL     1     110.300 127.665 136.143  0.00  0.00    +0.000 A 
ATOM     20  C   UNL     1     111.026 127.821 134.921  0.00  0.00    +0.000 A 
ATOM     21  C   UNL     1     109.719 128.178 135.863  0.00  0.00    +0.000 A 
ATOM     22  C   UNL     1     110.444 128.335 134.642  0.00  0.00    +0.000 A 
ATOM     23  C   UNL     1     109.791 128.514 135.112  0.00  0.00    +0.000 A 
ENDBRANCH   9  18
ENDBRANCH   1   8
BRANCH   1  32
ATOM     24  O   UNL     1     112.223 128.310 137.567  0.00  0.00    +0.000 OA
ATOM     25  O   UNL     1     113.185 129.721 138.925  0.00  0.00    +0.000 OA
ATOM     26  O   UNL     1     113.949 130.082 137.507  0.00  0.00    +0.000 OA
ATOM     27  O   UNL     1     113.562 129.261 136.129  0.00  0.00    +0.000 OA
ATOM     28  C   UNL     1     112.417 128.720 138.256  0.00  0.00    +0.000 C 
ATOM     29  C   UNL     1     112.992 129.311 138.236  0.00  0.00    +0.000 C 
ATOM     30  C   UNL     1     113.374 129.491 137.527  0.00  0.00    +0.000 C 
ATOM     31  C   UNL     1     113.181 129.081 136.838  0.00  0.00    +0.000 C 
ATOM     32  C   UNL     1     112.605 128.489 136.858  0.00  0.00    +0.000 C 
BRANCH  28  33
ATOM     33  C   UNL     1     112.035 128.539 138.964  0.00  0.00    +0.000 C 
BRANCH  33  34
ATOM     34  O   UNL     1     111.991 127.756 139.221  0.00  0.00    +0.000 OA
BRANCH  34  40
ATOM     35  O   UNL     1     110.961 128.091 140.153  0.00  0.00    +0.000 OA
ATOM     36  O   UNL     1     112.215 126.312 139.986  0.00  0.00    +0.000 OA
ATOM     37  O   UNL     1     111.296 125.925 141.301  0.00  0.00    +0.000 OA
ATOM     38  O   UNL     1     110.154 126.981 141.851  0.00  0.00    +0.000 OA
ATOM     39  C   UNL     1     111.644 126.840 140.261  0.00  0.00    +0.000 C 
ATOM     40  C   UNL     1     111.532 127.562 139.878  0.00  0.00    +0.000 C 
ATOM     41  C   UNL     1     111.184 126.647 140.919  0.00  0.00    +0.000 C 
ATOM     42  C   UNL     1     110.614 127.175 141.193  0.00  0.00    +0.000 C 
ATOM     43  C   UNL     1     110.502 127.897 140.810  0.00  0.00    +0.000 C 
ATOM     44  C   UNL     1     109.930 128.426 141.085  0.00  0.00    +0.000 C 
ENDBRANCH  34  40
ENDBRANCH  33  34
ENDBRANCH  28  33
ENDBRANCH   1  32
TORSDOF 6
ENDMDL
