MODEL 1
REMARK VINA RESULT:      -8.6      0.000      0.000
REMARK  Name = 44259907
REMARK  6 active torsions:
REMARK  status: ('A' for Active; 'I' for Inactive)
REMARK    1  A    between atoms: O_2  and  C_10
REMARK    2  A    between atoms: O_2  and  C_13
REMARK    3  A    between atoms: O_4  and  C_14
REMARK    4  A    between atoms: O_6  and  C_21
REMARK    5  A    between atoms: C_9  and  C_10
REMARK    6  A    between atoms: C_20  and  C_22
REMARK                            x       y       z     vdW  Elec       q    Type
REMARK                         _______ _______ _______ _____ _____    ______ ____
ROOT
ATOM      1  O   UNL     1     112.490 126.479 136.288  0.00  0.00    +0.000 OA
ATOM      2  O   UNL     1     109.945 125.663 135.192  0.00  0.00    +0.000 OA
ATOM      3  O   UNL     1     110.870 124.693 135.727  0.00  0.00    +0.000 OA
ATOM      4  C   UNL     1     110.848 127.702 135.393  0.00  0.00    +0.000 A 
ATOM      5  C   UNL     1     111.596 127.495 135.763  0.00  0.00    +0.000 A 
ATOM      6  C   UNL     1     110.285 127.082 135.198  0.00  0.00    +0.000 A 
ATOM      7  C   UNL     1     111.771 126.672 135.933  0.00  0.00    +0.000 A 
ATOM      8  C   UNL     1     111.231 126.077 135.746  0.00  0.00    +0.000 A 
ATOM      9  C   UNL     1     110.478 126.263 135.376  0.00  0.00    +0.000 A 
ATOM     10  C   UNL     1     111.410 125.288 135.914  0.00  0.00    +0.000 A 
ATOM     11  C   UNL     1     112.669 125.692 136.457  0.00  0.00    +0.000 A 
ATOM     12  C   UNL     1     112.129 125.097 136.270  0.00  0.00    +0.000 A 
ENDROOT
BRANCH  11  13
ATOM     13  C   UNL     1     113.389 125.499 136.812  0.00  0.00    +0.000 A 
ATOM     14  C   UNL     1     114.016 125.224 136.353  0.00  0.00    +0.000 A 
ATOM     15  C   UNL     1     113.480 125.581 137.628  0.00  0.00    +0.000 A 
ATOM     16  C   UNL     1     114.735 125.030 136.708  0.00  0.00    +0.000 A 
ATOM     17  C   UNL     1     114.199 125.388 137.984  0.00  0.00    +0.000 A 
ATOM     18  C   UNL     1     114.826 125.113 137.524  0.00  0.00    +0.000 A 
ENDBRANCH  11  13
BRANCH   5  19
ATOM     19  O   UNL     1     112.142 128.084 135.953  0.00  0.00    +0.000 OA
ATOM     20  C   UNL     1     112.633 128.396 135.369  0.00  0.00    +0.000 C 
ENDBRANCH   5  19
BRANCH  12  21
ATOM     21  O   UNL     1     112.309 124.309 136.438  0.00  0.00    +0.000 OA
ATOM     22  C   UNL     1     111.701 123.765 136.564  0.00  0.00    +0.000 C 
ENDBRANCH  12  21
BRANCH   4  23
ATOM     23  O   UNL     1     110.672 128.490 135.226  0.00  0.00    +0.000 OA
BRANCH  23  24
ATOM     24  C   UNL     1     109.905 128.774 135.338  0.00  0.00    +0.000 C 
BRANCH  24  27
ATOM     25  O   UNL     1     109.853 130.198 134.624  0.00  0.00    +0.000 OA
ATOM     26  C   UNL     1     109.224 130.204 135.158  0.00  0.00    +0.000 C 
ATOM     27  C   UNL     1     109.709 129.538 135.098  0.00  0.00    +0.000 C 
ATOM     28  C   UNL     1     109.028 130.969 134.919  0.00  0.00    +0.000 C 
ATOM     29  C   UNL     1     108.778 129.826 135.740  0.00  0.00    +0.000 C 
ENDBRANCH  24  27
ENDBRANCH  23  24
ENDBRANCH   4  23
TORSDOF 6
ENDMDL
MODEL 2
REMARK VINA RESULT:      -7.9      1.994      5.774
REMARK  Name = 44259907
REMARK  6 active torsions:
REMARK  status: ('A' for Active; 'I' for Inactive)
REMARK    1  A    between atoms: O_2  and  C_10
REMARK    2  A    between atoms: O_2  and  C_13
REMARK    3  A    between atoms: O_4  and  C_14
REMARK    4  A    between atoms: O_6  and  C_21
REMARK    5  A    between atoms: C_9  and  C_10
REMARK    6  A    between atoms: C_20  and  C_22
REMARK                            x       y       z     vdW  Elec       q    Type
REMARK                         _______ _______ _______ _____ _____    ______ ____
ROOT
ATOM      1  O   UNL     1     110.011 130.445 136.776  0.00  0.00    +0.000 OA
ATOM      2  O   UNL     1     107.882 128.812 135.703  0.00  0.00    +0.000 OA
ATOM      3  O   UNL     1     107.710 130.233 135.888  0.00  0.00    +0.000 OA
ATOM      4  C   UNL     1     109.946 128.248 136.367  0.00  0.00    +0.000 A 
ATOM      5  C   UNL     1     110.237 129.020 136.610  0.00  0.00    +0.000 A 
ATOM      6  C   UNL     1     109.146 128.175 136.058  0.00  0.00    +0.000 A 
ATOM      7  C   UNL     1     109.726 129.707 136.541  0.00  0.00    +0.000 A 
ATOM      8  C   UNL     1     108.959 129.636 136.245  0.00  0.00    +0.000 A 
ATOM      9  C   UNL     1     108.649 128.874 135.997  0.00  0.00    +0.000 A 
ATOM     10  C   UNL     1     108.477 130.304 136.184  0.00  0.00    +0.000 A 
ATOM     11  C   UNL     1     109.530 131.111 136.715  0.00  0.00    +0.000 A 
ATOM     12  C   UNL     1     108.763 131.041 136.419  0.00  0.00    +0.000 A 
ENDROOT
BRANCH  11  13
ATOM     13  C   UNL     1     109.815 131.849 136.950  0.00  0.00    +0.000 A 
ATOM     14  C   UNL     1     110.200 132.335 136.407  0.00  0.00    +0.000 A 
ATOM     15  C   UNL     1     109.714 132.101 137.729  0.00  0.00    +0.000 A 
ATOM     16  C   UNL     1     110.484 133.073 136.641  0.00  0.00    +0.000 A 
ATOM     17  C   UNL     1     109.998 132.838 137.965  0.00  0.00    +0.000 A 
ATOM     18  C   UNL     1     110.384 133.325 137.421  0.00  0.00    +0.000 A 
ENDBRANCH  11  13
BRANCH   5  19
ATOM     19  O   UNL     1     111.003 129.099 136.907  0.00  0.00    +0.000 OA
ATOM     20  C   UNL     1     111.161 128.912 137.693  0.00  0.00    +0.000 C 
ENDBRANCH   5  19
BRANCH  12  21
ATOM     21  O   UNL     1     108.281 131.708 136.358  0.00  0.00    +0.000 OA
ATOM     22  C   UNL     1     107.613 131.692 135.874  0.00  0.00    +0.000 C 
ENDBRANCH  12  21
BRANCH   4  23
ATOM     23  O   UNL     1     110.429 127.584 136.429  0.00  0.00    +0.000 OA
BRANCH  23  24
ATOM     24  C   UNL     1     110.273 126.916 135.970  0.00  0.00    +0.000 C 
BRANCH  24  27
ATOM     25  O   UNL     1     111.201 125.767 136.569  0.00  0.00    +0.000 OA
ATOM     26  C   UNL     1     110.905 125.456 135.865  0.00  0.00    +0.000 C 
ATOM     27  C   UNL     1     110.691 126.217 136.103  0.00  0.00    +0.000 C 
ATOM     28  C   UNL     1     111.322 124.757 135.998  0.00  0.00    +0.000 C 
ATOM     29  C   UNL     1     110.440 125.537 135.189  0.00  0.00    +0.000 C 
ENDBRANCH  24  27
ENDBRANCH  23  24
ENDBRANCH   4  23
TORSDOF 6
ENDMDL
MODEL 3
REMARK VINA RESULT:      -7.8      1.570      1.857
REMARK  Name = 44259907
REMARK  6 active torsions:
REMARK  status: ('A' for Active; 'I' for Inactive)
REMARK    1  A    between atoms: O_2  and  C_10
REMARK    2  A    between atoms: O_2  and  C_13
REMARK    3  A    between atoms: O_4  and  C_14
REMARK    4  A    between atoms: O_6  and  C_21
REMARK    5  A    between atoms: C_9  and  C_10
REMARK    6  A    between atoms: C_20  and  C_22
REMARK                            x       y       z     vdW  Elec       q    Type
REMARK                         _______ _______ _______ _____ _____    ______ ____
ROOT
ATOM      1  O   UNL     1     113.003 127.216 136.734  0.00  0.00    +0.000 OA
ATOM      2  O   UNL     1     110.344 127.540 135.651  0.00  0.00    +0.000 OA
ATOM      3  O   UNL     1     110.949 126.235 135.763  0.00  0.00    +0.000 OA
ATOM      4  C   UNL     1     111.789 129.067 136.425  0.00  0.00    +0.000 A 
ATOM      5  C   UNL     1     112.442 128.553 136.644  0.00  0.00    +0.000 A 
ATOM      6  C   UNL     1     111.075 128.726 136.088  0.00  0.00    +0.000 A 
ATOM      7  C   UNL     1     112.373 127.705 136.523  0.00  0.00    +0.000 A 
ATOM      8  C   UNL     1     111.688 127.378 136.199  0.00  0.00    +0.000 A 
ATOM      9  C   UNL     1     111.025 127.875 135.974  0.00  0.00    +0.000 A 
ATOM     10  C   UNL     1     111.634 126.562 136.087  0.00  0.00    +0.000 A 
ATOM     11  C   UNL     1     112.949 126.401 136.623  0.00  0.00    +0.000 A 
ATOM     12  C   UNL     1     112.264 126.074 136.299  0.00  0.00    +0.000 A 
ENDROOT
BRANCH  11  13
ATOM     13  C   UNL     1     113.579 125.912 136.835  0.00  0.00    +0.000 A 
ATOM     14  C   UNL     1     113.652 125.646 137.611  0.00  0.00    +0.000 A 
ATOM     15  C   UNL     1     114.135 125.689 136.268  0.00  0.00    +0.000 A 
ATOM     16  C   UNL     1     114.282 125.157 137.823  0.00  0.00    +0.000 A 
ATOM     17  C   UNL     1     114.766 125.200 136.479  0.00  0.00    +0.000 A 
ATOM     18  C   UNL     1     114.839 124.934 137.257  0.00  0.00    +0.000 A 
ENDBRANCH  11  13
BRANCH   5  19
ATOM     19  O   UNL     1     113.130 128.871 136.968  0.00  0.00    +0.000 OA
ATOM     20  C   UNL     1     113.700 129.209 136.477  0.00  0.00    +0.000 C 
ENDBRANCH   5  19
BRANCH  12  21
ATOM     21  O   UNL     1     112.209 125.258 136.187  0.00  0.00    +0.000 OA
ATOM     22  C   UNL     1     111.469 124.899 136.120  0.00  0.00    +0.000 C 
ENDBRANCH  12  21
BRANCH   4  23
ATOM     23  O   UNL     1     111.846 129.881 136.538  0.00  0.00    +0.000 OA
BRANCH  23  24
ATOM     24  C   UNL     1     111.162 130.336 136.613  0.00  0.00    +0.000 C 
BRANCH  24  27
ATOM     25  O   UNL     1     111.678 131.810 136.934  0.00  0.00    +0.000 OA
ATOM     26  C   UNL     1     110.857 131.874 136.904  0.00  0.00    +0.000 C 
ATOM     27  C   UNL     1     111.219 131.143 136.777  0.00  0.00    +0.000 C 
ATOM     28  C   UNL     1     110.913 132.680 137.068  0.00  0.00    +0.000 C 
ATOM     29  C   UNL     1     110.117 131.526 136.796  0.00  0.00    +0.000 C 
ENDBRANCH  24  27
ENDBRANCH  23  24
ENDBRANCH   4  23
TORSDOF 6
ENDMDL
MODEL 4
REMARK VINA RESULT:      -7.8      3.582      4.673
REMARK  Name = 44259907
REMARK  6 active torsions:
REMARK  status: ('A' for Active; 'I' for Inactive)
REMARK    1  A    between atoms: O_2  and  C_10
REMARK    2  A    between atoms: O_2  and  C_13
REMARK    3  A    between atoms: O_4  and  C_14
REMARK    4  A    between atoms: O_6  and  C_21
REMARK    5  A    between atoms: C_9  and  C_10
REMARK    6  A    between atoms: C_20  and  C_22
REMARK                            x       y       z     vdW  Elec       q    Type
REMARK                         _______ _______ _______ _____ _____    ______ ____
ROOT
ATOM      1  O   UNL     1     113.245 126.271 138.686  0.00  0.00    +0.000 OA
ATOM      2  O   UNL     1     110.514 125.873 139.538  0.00  0.00    +0.000 OA
ATOM      3  O   UNL     1     111.015 125.257 138.333  0.00  0.00    +0.000 OA
ATOM      4  C   UNL     1     112.163 127.065 140.473  0.00  0.00    +0.000 A 
ATOM      5  C   UNL     1     112.792 126.914 139.907  0.00  0.00    +0.000 A 
ATOM      6  C   UNL     1     111.388 126.713 140.350  0.00  0.00    +0.000 A 
ATOM      7  C   UNL     1     112.638 126.413 139.226  0.00  0.00    +0.000 A 
ATOM      8  C   UNL     1     111.895 126.075 139.108  0.00  0.00    +0.000 A 
ATOM      9  C   UNL     1     111.253 126.214 139.663  0.00  0.00    +0.000 A 
ATOM     10  C   UNL     1     111.759 125.595 138.450  0.00  0.00    +0.000 A 
ATOM     11  C   UNL     1     113.110 125.792 138.029  0.00  0.00    +0.000 A 
ATOM     12  C   UNL     1     112.366 125.454 137.911  0.00  0.00    +0.000 A 
ENDROOT
BRANCH  11  13
ATOM     13  C   UNL     1     113.717 125.650 137.488  0.00  0.00    +0.000 A 
ATOM     14  C   UNL     1     114.225 125.009 137.597  0.00  0.00    +0.000 A 
ATOM     15  C   UNL     1     113.816 126.149 136.839  0.00  0.00    +0.000 A 
ATOM     16  C   UNL     1     114.832 124.867 137.056  0.00  0.00    +0.000 A 
ATOM     17  C   UNL     1     114.422 126.008 136.298  0.00  0.00    +0.000 A 
ATOM     18  C   UNL     1     114.931 125.367 136.407  0.00  0.00    +0.000 A 
ENDBRANCH  11  13
BRANCH   5  19
ATOM     19  O   UNL     1     113.539 127.247 140.017  0.00  0.00    +0.000 OA
ATOM     20  C   UNL     1     114.071 126.903 140.543  0.00  0.00    +0.000 C 
ENDBRANCH   5  19
BRANCH  12  21
ATOM     21  O   UNL     1     112.230 124.974 137.253  0.00  0.00    +0.000 OA
ATOM     22  C   UNL     1     111.592 124.452 137.248  0.00  0.00    +0.000 C 
ENDBRANCH  12  21
BRANCH   4  23
ATOM     23  O   UNL     1     112.302 127.544 141.129  0.00  0.00    +0.000 OA
BRANCH  23  24
ATOM     24  C   UNL     1     111.667 127.866 141.546  0.00  0.00    +0.000 C 
BRANCH  24  27
ATOM     25  O   UNL     1     112.332 128.731 142.708  0.00  0.00    +0.000 OA
ATOM     26  C   UNL     1     111.519 128.830 142.808  0.00  0.00    +0.000 C 
ATOM     27  C   UNL     1     111.806 128.356 142.195  0.00  0.00    +0.000 C 
ATOM     28  C   UNL     1     111.658 129.320 143.457  0.00  0.00    +0.000 C 
ATOM     29  C   UNL     1     110.746 128.670 142.568  0.00  0.00    +0.000 C 
ENDBRANCH  24  27
ENDBRANCH  23  24
ENDBRANCH   4  23
TORSDOF 6
ENDMDL
MODEL 5
REMARK VINA RESULT:      -7.7      1.830      3.174
REMARK  Name = 44259907
REMARK  6 active torsions:
REMARK  status: ('A' for Active; 'I' for Inactive)
REMARK    1  A    between atoms: O_2  and  C_10
REMARK    2  A    between atoms: O_2  and  C_13
REMARK    3  A    between atoms: O_4  and  C_14
REMARK    4  A    between atoms: O_6  and  C_21
REMARK    5  A    between atoms: C_9  and  C_10
REMARK    6  A    between atoms: C_20  and  C_22
REMARK                            x       y       z     vdW  Elec       q    Type
REMARK                         _______ _______ _______ _____ _____    ______ ____
ROOT
ATOM      1  O   UNL     1     112.340 126.435 136.355  0.00  0.00    +0.000 OA
ATOM      2  O   UNL     1     110.990 128.314 134.624  0.00  0.00    +0.000 OA
ATOM      3  O   UNL     1     110.472 126.982 134.827  0.00  0.00    +0.000 OA
ATOM      4  C   UNL     1     112.865 128.543 135.827  0.00  0.00    +0.000 A 
ATOM      5  C   UNL     1     112.905 127.763 136.186  0.00  0.00    +0.000 A 
ATOM      6  C   UNL     1     112.216 128.733 135.297  0.00  0.00    +0.000 A 
ATOM      7  C   UNL     1     112.297 127.183 136.008  0.00  0.00    +0.000 A 
ATOM      8  C   UNL     1     111.674 127.365 135.499  0.00  0.00    +0.000 A 
ATOM      9  C   UNL     1     111.616 128.140 135.131  0.00  0.00    +0.000 A 
ATOM     10  C   UNL     1     111.095 126.800 135.336  0.00  0.00    +0.000 A 
ATOM     11  C   UNL     1     111.762 125.871 136.192  0.00  0.00    +0.000 A 
ATOM     12  C   UNL     1     111.139 126.053 135.683  0.00  0.00    +0.000 A 
ENDROOT
BRANCH  11  13
ATOM     13  C   UNL     1     111.806 125.123 136.539  0.00  0.00    +0.000 A 
ATOM     14  C   UNL     1     112.209 124.514 136.157  0.00  0.00    +0.000 A 
ATOM     15  C   UNL     1     111.445 124.985 137.268  0.00  0.00    +0.000 A 
ATOM     16  C   UNL     1     112.253 123.766 136.504  0.00  0.00    +0.000 A 
ATOM     17  C   UNL     1     111.488 124.238 137.615  0.00  0.00    +0.000 A 
ATOM     18  C   UNL     1     111.892 123.628 137.233  0.00  0.00    +0.000 A 
ENDBRANCH  11  13
BRANCH   5  19
ATOM     19  O   UNL     1     113.525 127.572 136.696  0.00  0.00    +0.000 OA
ATOM     20  C   UNL     1     113.490 127.795 137.489  0.00  0.00    +0.000 C 
ENDBRANCH   5  19
BRANCH  12  21
ATOM     21  O   UNL     1     110.560 125.488 135.520  0.00  0.00    +0.000 OA
ATOM     22  C   UNL     1     109.983 125.640 134.951  0.00  0.00    +0.000 C 
ENDBRANCH  12  21
BRANCH   4  23
ATOM     23  O   UNL     1     113.445 129.106 135.992  0.00  0.00    +0.000 OA
BRANCH  23  24
ATOM     24  C   UNL     1     113.842 129.481 135.374  0.00  0.00    +0.000 C 
BRANCH  24  27
ATOM     25  O   UNL     1     114.634 130.697 136.032  0.00  0.00    +0.000 OA
ATOM     26  C   UNL     1     115.016 130.558 135.314  0.00  0.00    +0.000 C 
ATOM     27  C   UNL     1     114.369 130.095 135.535  0.00  0.00    +0.000 C 
ATOM     28  C   UNL     1     115.543 131.173 135.475  0.00  0.00    +0.000 C 
ATOM     29  C   UNL     1     115.083 130.130 134.613  0.00  0.00    +0.000 C 
ENDBRANCH  24  27
ENDBRANCH  23  24
ENDBRANCH   4  23
TORSDOF 6
ENDMDL
MODEL 6
REMARK VINA RESULT:      -7.6      2.894      4.184
REMARK  Name = 44259907
REMARK  6 active torsions:
REMARK  status: ('A' for Active; 'I' for Inactive)
REMARK    1  A    between atoms: O_2  and  C_10
REMARK    2  A    between atoms: O_2  and  C_13
REMARK    3  A    between atoms: O_4  and  C_14
REMARK    4  A    between atoms: O_6  and  C_21
REMARK    5  A    between atoms: C_9  and  C_10
REMARK    6  A    between atoms: C_20  and  C_22
REMARK                            x       y       z     vdW  Elec       q    Type
REMARK                         _______ _______ _______ _____ _____    ______ ____
ROOT
ATOM      1  O   UNL     1     112.725 126.338 137.789  0.00  0.00    +0.000 OA
ATOM      2  O   UNL     1     111.926 128.932 136.799  0.00  0.00    +0.000 OA
ATOM      3  O   UNL     1     111.647 127.731 136.050  0.00  0.00    +0.000 OA
ATOM      4  C   UNL     1     112.996 128.369 138.685  0.00  0.00    +0.000 A 
ATOM      5  C   UNL     1     113.030 127.515 138.584  0.00  0.00    +0.000 A 
ATOM      6  C   UNL     1     112.621 128.852 138.080  0.00  0.00    +0.000 A 
ATOM      7  C   UNL     1     112.689 127.158 137.881  0.00  0.00    +0.000 A 
ATOM      8  C   UNL     1     112.330 127.622 137.301  0.00  0.00    +0.000 A 
ATOM      9  C   UNL     1     112.286 128.476 137.383  0.00  0.00    +0.000 A 
ATOM     10  C   UNL     1     112.007 127.267 136.630  0.00  0.00    +0.000 A 
ATOM     11  C   UNL     1     112.402 125.983 137.119  0.00  0.00    +0.000 A 
ATOM     12  C   UNL     1     112.043 126.448 136.539  0.00  0.00    +0.000 A 
ENDROOT
BRANCH  11  13
ATOM     13  C   UNL     1     112.437 125.164 137.028  0.00  0.00    +0.000 A 
ATOM     14  C   UNL     1     111.816 124.692 137.292  0.00  0.00    +0.000 A 
ATOM     15  C   UNL     1     113.096 124.818 136.671  0.00  0.00    +0.000 A 
ATOM     16  C   UNL     1     111.851 123.872 137.200  0.00  0.00    +0.000 A 
ATOM     17  C   UNL     1     113.133 123.999 136.579  0.00  0.00    +0.000 A 
ATOM     18  C   UNL     1     112.510 123.526 136.844  0.00  0.00    +0.000 A 
ENDBRANCH  11  13
BRANCH   5  19
ATOM     19  O   UNL     1     113.387 127.044 139.159  0.00  0.00    +0.000 OA
ATOM     20  C   UNL     1     112.969 126.831 139.836  0.00  0.00    +0.000 C 
ENDBRANCH   5  19
BRANCH  12  21
ATOM     21  O   UNL     1     111.719 126.092 135.868  0.00  0.00    +0.000 OA
ATOM     22  C   UNL     1     111.131 126.481 135.438  0.00  0.00    +0.000 C 
ENDBRANCH  12  21
BRANCH   4  23
ATOM     23  O   UNL     1     113.320 128.720 139.356  0.00  0.00    +0.000 OA
BRANCH  23  24
ATOM     24  C   UNL     1     113.646 129.477 139.308  0.00  0.00    +0.000 C 
BRANCH  24  27
ATOM     25  O   UNL     1     114.009 129.882 140.806  0.00  0.00    +0.000 OA
ATOM     26  C   UNL     1     114.414 130.424 140.335  0.00  0.00    +0.000 C 
ATOM     27  C   UNL     1     113.949 129.839 139.985  0.00  0.00    +0.000 C 
ATOM     28  C   UNL     1     114.718 130.786 141.011  0.00  0.00    +0.000 C 
ATOM     29  C   UNL     1     114.613 130.712 139.588  0.00  0.00    +0.000 C 
ENDBRANCH  24  27
ENDBRANCH  23  24
ENDBRANCH   4  23
TORSDOF 6
ENDMDL
MODEL 7
REMARK VINA RESULT:      -7.6     10.273     11.070
REMARK  Name = 44259907
REMARK  6 active torsions:
REMARK  status: ('A' for Active; 'I' for Inactive)
REMARK    1  A    between atoms: O_2  and  C_10
REMARK    2  A    between atoms: O_2  and  C_13
REMARK    3  A    between atoms: O_4  and  C_14
REMARK    4  A    between atoms: O_6  and  C_21
REMARK    5  A    between atoms: C_9  and  C_10
REMARK    6  A    between atoms: C_20  and  C_22
REMARK                            x       y       z     vdW  Elec       q    Type
REMARK                         _______ _______ _______ _____ _____    ______ ____
ROOT
ATOM      1  O   UNL     1     106.411 125.266 145.828  0.00  0.00    +0.000 OA
ATOM      2  O   UNL     1     106.279 127.463 143.957  0.00  0.00    +0.000 OA
ATOM      3  O   UNL     1     106.674 127.676 145.328  0.00  0.00    +0.000 OA
ATOM      4  C   UNL     1     105.846 125.285 143.665  0.00  0.00    +0.000 A 
ATOM      5  C   UNL     1     106.007 124.997 144.459  0.00  0.00    +0.000 A 
ATOM      6  C   UNL     1     105.937 126.123 143.492  0.00  0.00    +0.000 A 
ATOM      7  C   UNL     1     106.258 125.548 145.068  0.00  0.00    +0.000 A 
ATOM      8  C   UNL     1     106.345 126.352 144.901  0.00  0.00    +0.000 A 
ATOM      9  C   UNL     1     106.189 126.660 144.114  0.00  0.00    +0.000 A 
ATOM     10  C   UNL     1     106.587 126.872 145.495  0.00  0.00    +0.000 A 
ATOM     11  C   UNL     1     106.652 125.785 146.421  0.00  0.00    +0.000 A 
ATOM     12  C   UNL     1     106.740 126.589 146.254  0.00  0.00    +0.000 A 
ENDROOT
BRANCH  11  13
ATOM     13  C   UNL     1     106.806 125.503 147.181  0.00  0.00    +0.000 A 
ATOM     14  C   UNL     1     106.202 125.479 147.742  0.00  0.00    +0.000 A 
ATOM     15  C   UNL     1     107.564 125.245 147.379  0.00  0.00    +0.000 A 
ATOM     16  C   UNL     1     106.356 125.196 148.502  0.00  0.00    +0.000 A 
ATOM     17  C   UNL     1     107.719 124.962 148.138  0.00  0.00    +0.000 A 
ATOM     18  C   UNL     1     107.114 124.938 148.700  0.00  0.00    +0.000 A 
ENDBRANCH  11  13
BRANCH   5  19
ATOM     19  O   UNL     1     105.922 124.195 144.634  0.00  0.00    +0.000 OA
ATOM     20  C   UNL     1     105.177 123.887 144.802  0.00  0.00    +0.000 C 
ENDBRANCH   5  19
BRANCH  12  21
ATOM     21  O   UNL     1     106.981 127.110 146.848  0.00  0.00    +0.000 OA
ATOM     22  C   UNL     1     107.168 127.891 146.660  0.00  0.00    +0.000 C 
ENDBRANCH  12  21
BRANCH   4  23
ATOM     23  O   UNL     1     105.605 124.763 143.075  0.00  0.00    +0.000 OA
BRANCH  23  24
ATOM     24  C   UNL     1     105.883 124.856 142.304  0.00  0.00    +0.000 C 
BRANCH  24  27
ATOM     25  O   UNL     1     105.143 123.732 141.451  0.00  0.00    +0.000 OA
ATOM     26  C   UNL     1     105.722 124.035 140.947  0.00  0.00    +0.000 C 
ATOM     27  C   UNL     1     105.641 124.335 141.712  0.00  0.00    +0.000 C 
ATOM     28  C   UNL     1     105.479 123.513 140.355  0.00  0.00    +0.000 C 
ATOM     29  C   UNL     1     106.344 124.558 140.807  0.00  0.00    +0.000 C 
ENDBRANCH  24  27
ENDBRANCH  23  24
ENDBRANCH   4  23
TORSDOF 6
ENDMDL
MODEL 8
REMARK VINA RESULT:      -7.6      9.589     11.562
REMARK  Name = 44259907
REMARK  6 active torsions:
REMARK  status: ('A' for Active; 'I' for Inactive)
REMARK    1  A    between atoms: O_2  and  C_10
REMARK    2  A    between atoms: O_2  and  C_13
REMARK    3  A    between atoms: O_4  and  C_14
REMARK    4  A    between atoms: O_6  and  C_21
REMARK    5  A    between atoms: C_9  and  C_10
REMARK    6  A    between atoms: C_20  and  C_22
REMARK                            x       y       z     vdW  Elec       q    Type
REMARK                         _______ _______ _______ _____ _____    ______ ____
ROOT
ATOM      1  O   UNL     1     103.348 130.185 142.386  0.00  0.00    +0.000 OA
ATOM      2  O   UNL     1     104.359 127.847 141.022  0.00  0.00    +0.000 OA
ATOM      3  O   UNL     1     103.419 128.735 140.382  0.00  0.00    +0.000 OA
ATOM      4  C   UNL     1     104.792 128.626 143.078  0.00  0.00    +0.000 A 
ATOM      5  C   UNL     1     104.293 129.326 143.077  0.00  0.00    +0.000 A 
ATOM      6  C   UNL     1     104.817 128.122 142.381  0.00  0.00    +0.000 A 
ATOM      7  C   UNL     1     103.826 129.512 142.381  0.00  0.00    +0.000 A 
ATOM      8  C   UNL     1     103.849 129.029 141.713  0.00  0.00    +0.000 A 
ATOM      9  C   UNL     1     104.342 128.325 141.694  0.00  0.00    +0.000 A 
ATOM     10  C   UNL     1     103.395 129.218 141.050  0.00  0.00    +0.000 A 
ATOM     11  C   UNL     1     102.895 130.375 141.724  0.00  0.00    +0.000 A 
ATOM     12  C   UNL     1     102.919 129.892 141.056  0.00  0.00    +0.000 A 
ENDROOT
BRANCH  11  13
ATOM     13  C   UNL     1     102.418 131.048 141.729  0.00  0.00    +0.000 A 
ATOM     14  C   UNL     1     101.646 131.005 142.016  0.00  0.00    +0.000 A 
ATOM     15  C   UNL     1     102.713 131.765 141.446  0.00  0.00    +0.000 A 
ATOM     16  C   UNL     1     101.169 131.678 142.021  0.00  0.00    +0.000 A 
ATOM     17  C   UNL     1     102.237 132.438 141.450  0.00  0.00    +0.000 A 
ATOM     18  C   UNL     1     101.465 132.395 141.738  0.00  0.00    +0.000 A 
ENDBRANCH  11  13
BRANCH   5  19
ATOM     19  O   UNL     1     104.264 129.815 143.741  0.00  0.00    +0.000 OA
ATOM     20  C   UNL     1     104.855 130.374 143.867  0.00  0.00    +0.000 C 
ENDBRANCH   5  19
BRANCH  12  21
ATOM     21  O   UNL     1     102.465 130.081 140.392  0.00  0.00    +0.000 OA
ATOM     22  C   UNL     1     102.261 129.494 139.850  0.00  0.00    +0.000 C 
ENDBRANCH  12  21
BRANCH   4  23
ATOM     23  O   UNL     1     105.244 128.439 143.741  0.00  0.00    +0.000 OA
BRANCH  23  24
ATOM     24  C   UNL     1     105.436 127.653 143.901  0.00  0.00    +0.000 C 
BRANCH  24  27
ATOM     25  O   UNL     1     106.284 127.695 145.250  0.00  0.00    +0.000 OA
ATOM     26  C   UNL     1     106.151 126.894 145.107  0.00  0.00    +0.000 C 
ATOM     27  C   UNL     1     105.855 127.461 144.585  0.00  0.00    +0.000 C 
ATOM     28  C   UNL     1     106.570 126.702 145.792  0.00  0.00    +0.000 C 
ATOM     29  C   UNL     1     105.826 126.296 144.641  0.00  0.00    +0.000 C 
ENDBRANCH  24  27
ENDBRANCH  23  24
ENDBRANCH   4  23
TORSDOF 6
ENDMDL
MODEL 9
REMARK VINA RESULT:      -7.6      3.681      5.206
REMARK  Name = 44259907
REMARK  6 active torsions:
REMARK  status: ('A' for Active; 'I' for Inactive)
REMARK    1  A    between atoms: O_2  and  C_10
REMARK    2  A    between atoms: O_2  and  C_13
REMARK    3  A    between atoms: O_4  and  C_14
REMARK    4  A    between atoms: O_6  and  C_21
REMARK    5  A    between atoms: C_9  and  C_10
REMARK    6  A    between atoms: C_20  and  C_22
REMARK                            x       y       z     vdW  Elec       q    Type
REMARK                         _______ _______ _______ _____ _____    ______ ____
ROOT
ATOM      1  O   UNL     1     112.010 126.137 138.644  0.00  0.00    +0.000 OA
ATOM      2  O   UNL     1     114.452 126.721 140.073  0.00  0.00    +0.000 OA
ATOM      3  O   UNL     1     114.481 126.079 138.781  0.00  0.00    +0.000 OA
ATOM      4  C   UNL     1     112.319 127.108 140.633  0.00  0.00    +0.000 A 
ATOM      5  C   UNL     1     111.925 126.785 139.941  0.00  0.00    +0.000 A 
ATOM      6  C   UNL     1     113.177 127.088 140.681  0.00  0.00    +0.000 A 
ATOM      7  C   UNL     1     112.394 126.446 139.306  0.00  0.00    +0.000 A 
ATOM      8  C   UNL     1     113.217 126.426 139.352  0.00  0.00    +0.000 A 
ATOM      9  C   UNL     1     113.630 126.744 140.035  0.00  0.00    +0.000 A 
ATOM     10  C   UNL     1     113.657 126.098 138.735  0.00  0.00    +0.000 A 
ATOM     11  C   UNL     1     112.449 125.809 138.028  0.00  0.00    +0.000 A 
ATOM     12  C   UNL     1     113.273 125.790 138.073  0.00  0.00    +0.000 A 
ENDROOT
BRANCH  11  13
ATOM     13  C   UNL     1     112.066 125.500 137.365  0.00  0.00    +0.000 A 
ATOM     14  C   UNL     1     111.889 125.989 136.726  0.00  0.00    +0.000 A 
ATOM     15  C   UNL     1     111.860 124.702 137.344  0.00  0.00    +0.000 A 
ATOM     16  C   UNL     1     111.505 125.680 136.063  0.00  0.00    +0.000 A 
ATOM     17  C   UNL     1     111.477 124.392 136.682  0.00  0.00    +0.000 A 
ATOM     18  C   UNL     1     111.300 124.882 136.042  0.00  0.00    +0.000 A 
ENDBRANCH  11  13
BRANCH   5  19
ATOM     19  O   UNL     1     111.101 126.800 139.887  0.00  0.00    +0.000 OA
ATOM     20  C   UNL     1     110.651 126.240 140.291  0.00  0.00    +0.000 C 
ENDBRANCH   5  19
BRANCH  12  21
ATOM     21  O   UNL     1     113.713 125.462 137.457  0.00  0.00    +0.000 OA
ATOM     22  C   UNL     1     114.482 125.196 137.595  0.00  0.00    +0.000 C 
ENDBRANCH  12  21
BRANCH   4  23
ATOM     23  O   UNL     1     111.877 127.435 141.247  0.00  0.00    +0.000 OA
BRANCH  23  24
ATOM     24  C   UNL     1     112.175 128.074 141.675  0.00  0.00    +0.000 C 
BRANCH  24  27
ATOM     25  O   UNL     1     111.275 128.177 142.986  0.00  0.00    +0.000 OA
ATOM     26  C   UNL     1     111.653 128.908 142.930  0.00  0.00    +0.000 C 
ATOM     27  C   UNL     1     111.794 128.324 142.362  0.00  0.00    +0.000 C 
ATOM     28  C   UNL     1     111.272 129.158 143.618  0.00  0.00    +0.000 C 
ATOM     29  C   UNL     1     112.172 129.414 142.537  0.00  0.00    +0.000 C 
ENDBRANCH  24  27
ENDBRANCH  23  24
ENDBRANCH   4  23
TORSDOF 6
ENDMDL
MODEL 10
REMARK VINA RESULT:      -7.5      9.087     10.297
REMARK  Name = 44259907
REMARK  6 active torsions:
REMARK  status: ('A' for Active; 'I' for Inactive)
REMARK    1  A    between atoms: O_2  and  C_10
REMARK    2  A    between atoms: O_2  and  C_13
REMARK    3  A    between atoms: O_4  and  C_14
REMARK    4  A    between atoms: O_6  and  C_21
REMARK    5  A    between atoms: C_9  and  C_10
REMARK    6  A    between atoms: C_20  and  C_22
REMARK                            x       y       z     vdW  Elec       q    Type
REMARK                         _______ _______ _______ _____ _____    ______ ____
ROOT
ATOM      1  O   UNL     1     111.952 131.402 145.251  0.00  0.00    +0.000 OA
ATOM      2  O   UNL     1     111.652 132.204 142.492  0.00  0.00    +0.000 OA
ATOM      3  O   UNL     1     111.937 133.173 143.523  0.00  0.00    +0.000 OA
ATOM      4  C   UNL     1     111.516 130.176 143.433  0.00  0.00    +0.000 A 
ATOM      5  C   UNL     1     111.666 130.385 144.254  0.00  0.00    +0.000 A 
ATOM      6  C   UNL     1     111.511 130.791 142.833  0.00  0.00    +0.000 A 
ATOM      7  C   UNL     1     111.809 131.206 144.462  0.00  0.00    +0.000 A 
ATOM      8  C   UNL     1     111.804 131.797 143.886  0.00  0.00    +0.000 A 
ATOM      9  C   UNL     1     111.655 131.608 143.061  0.00  0.00    +0.000 A 
ATOM     10  C   UNL     1     111.942 132.582 144.099  0.00  0.00    +0.000 A 
ATOM     11  C   UNL     1     112.091 132.186 145.464  0.00  0.00    +0.000 A 
ATOM     12  C   UNL     1     112.085 132.776 144.887  0.00  0.00    +0.000 A 
ENDROOT
BRANCH  11  13
ATOM     13  C   UNL     1     112.234 132.381 146.252  0.00  0.00    +0.000 A 
ATOM     14  C   UNL     1     111.625 132.680 146.721  0.00  0.00    +0.000 A 
ATOM     15  C   UNL     1     112.988 132.278 146.572  0.00  0.00    +0.000 A 
ATOM     16  C   UNL     1     111.769 132.875 147.510  0.00  0.00    +0.000 A 
ATOM     17  C   UNL     1     113.133 132.473 147.360  0.00  0.00    +0.000 A 
ATOM     18  C   UNL     1     112.523 132.771 147.830  0.00  0.00    +0.000 A 
ENDBRANCH  11  13
BRANCH   5  19
ATOM     19  O   UNL     1     111.673 129.801 144.836  0.00  0.00    +0.000 OA
ATOM     20  C   UNL     1     110.963 129.519 145.146  0.00  0.00    +0.000 C 
ENDBRANCH   5  19
BRANCH  12  21
ATOM     21  O   UNL     1     112.224 133.562 145.100  0.00  0.00    +0.000 OA
ATOM     22  C   UNL     1     112.019 134.172 144.583  0.00  0.00    +0.000 C 
ENDBRANCH  12  21
BRANCH   4  23
ATOM     23  O   UNL     1     111.378 129.391 143.224  0.00  0.00    +0.000 OA
BRANCH  23  24
ATOM     24  C   UNL     1     111.682 129.093 142.517  0.00  0.00    +0.000 C 
BRANCH  24  27
ATOM     25  O   UNL     1     110.955 127.691 142.300  0.00  0.00    +0.000 OA
ATOM     26  C   UNL     1     111.576 127.696 141.756  0.00  0.00    +0.000 C 
ATOM     27  C   UNL     1     111.459 128.343 142.256  0.00  0.00    +0.000 C 
ATOM     28  C   UNL     1     111.353 126.946 141.495  0.00  0.00    +0.000 C 
ATOM     29  C   UNL     1     112.225 128.076 141.417  0.00  0.00    +0.000 C 
ENDBRANCH  24  27
ENDBRANCH  23  24
ENDBRANCH   4  23
TORSDOF 6
ENDMDL
