MODEL 1
REMARK VINA RESULT:     -10.5      0.000      0.000
REMARK  Name = 15592799
REMARK  6 active torsions:
REMARK  status: ('A' for Active; 'I' for Inactive)
REMARK    1  A    between atoms: O_3  and  C_26
REMARK    2  A    between atoms: O_3  and  C_28
REMARK    3  A    between atoms: C_17  and  C_22
REMARK    4  A    between atoms: C_21  and  C_29
REMARK    5  A    between atoms: C_27  and  C_31
REMARK    6  A    between atoms: C_36  and  C_38
REMARK                            x       y       z     vdW  Elec       q    Type
REMARK                         _______ _______ _______ _____ _____    ______ ____
ROOT
ATOM      1  O   UNL     1     113.577 125.995 139.348  0.00  0.00    +0.000 OA
ATOM      2  O   UNL     1     113.401 128.881 139.458  0.00  0.00    +0.000 OA
ATOM      3  O   UNL     1     114.081 126.682 140.512  0.00  0.00    +0.000 OA
ATOM      4  C   UNL     1     112.997 126.714 138.258  0.00  0.00    +0.000 A 
ATOM      5  C   UNL     1     112.775 127.430 137.913  0.00  0.00    +0.000 A 
ATOM      6  C   UNL     1     113.354 126.709 139.002  0.00  0.00    +0.000 A 
ATOM      7  C   UNL     1     112.909 128.140 138.310  0.00  0.00    +0.000 A 
ATOM      8  C   UNL     1     113.489 127.420 139.400  0.00  0.00    +0.000 A 
ATOM      9  C   UNL     1     113.266 128.135 139.054  0.00  0.00    +0.000 A 
ATOM     10  C   UNL     1     113.862 127.402 140.174  0.00  0.00    +0.000 A 
ATOM     11  C   UNL     1     113.773 128.883 140.233  0.00  0.00    +0.000 A 
ATOM     12  C   UNL     1     114.005 128.138 140.594  0.00  0.00    +0.000 A 
ENDROOT
BRANCH   4  17
ATOM     13  O   UNL     1     113.430 125.709 137.339  0.00  0.00    +0.000 OA
ATOM     14  O   UNL     1     111.594 125.883 138.507  0.00  0.00    +0.000 OA
ATOM     15  O   UNL     1     111.325 124.462 137.712  0.00  0.00    +0.000 OA
ATOM     16  O   UNL     1     112.458 123.874 136.669  0.00  0.00    +0.000 OA
ATOM     17  C   UNL     1     112.863 126.005 137.861  0.00  0.00    +0.000 C 
ATOM     18  C   UNL     1     112.161 125.589 137.985  0.00  0.00    +0.000 C 
ATOM     19  C   UNL     1     112.026 124.878 137.588  0.00  0.00    +0.000 C 
ATOM     20  C   UNL     1     112.594 124.584 137.066  0.00  0.00    +0.000 C 
ATOM     21  C   UNL     1     113.295 125.000 136.942  0.00  0.00    +0.000 C 
BRANCH  21  23
ATOM     22  O   UNL     1     114.568 125.115 136.302  0.00  0.00    +0.000 OA
ATOM     23  C   UNL     1     113.862 124.705 136.420  0.00  0.00    +0.000 C 
ENDBRANCH  21  23
ENDBRANCH   4  17
BRANCH  11  26
ATOM     24  O   UNL     1     115.422 131.160 140.743  0.00  0.00    +0.000 OA
ATOM     25  O   UNL     1     114.306 131.729 141.815  0.00  0.00    +0.000 OA
ATOM     26  C   UNL     1     113.906 129.595 140.629  0.00  0.00    +0.000 A 
ATOM     27  C   UNL     1     114.598 130.022 140.488  0.00  0.00    +0.000 A 
ATOM     28  C   UNL     1     113.347 129.879 141.165  0.00  0.00    +0.000 A 
ATOM     29  C   UNL     1     114.731 130.733 140.883  0.00  0.00    +0.000 A 
ATOM     30  C   UNL     1     113.480 130.591 141.561  0.00  0.00    +0.000 A 
ATOM     31  C   UNL     1     114.172 131.018 141.420  0.00  0.00    +0.000 A 
ENDBRANCH  11  26
BRANCH   5  32
ATOM     32  O   UNL     1     112.418 127.435 137.169  0.00  0.00    +0.000 OA
BRANCH  32  40
ATOM     33  O   UNL     1     113.329 128.224 136.401  0.00  0.00    +0.000 OA
ATOM     34  O   UNL     1     111.444 129.597 135.574  0.00  0.00    +0.000 OA
ATOM     35  O   UNL     1     111.161 128.350 136.617  0.00  0.00    +0.000 OA
ATOM     36  O   UNL     1     112.983 129.928 135.082  0.00  0.00    +0.000 OA
ATOM     37  C   UNL     1     112.072 129.139 135.850  0.00  0.00    +0.000 C 
ATOM     38  C   UNL     1     111.930 128.516 136.372  0.00  0.00    +0.000 C 
ATOM     39  C   UNL     1     112.841 129.305 135.604  0.00  0.00    +0.000 C 
ATOM     40  C   UNL     1     112.558 128.058 136.647  0.00  0.00    +0.000 C 
ATOM     41  C   UNL     1     113.470 128.847 135.880  0.00  0.00    +0.000 C 
BRANCH  41  43
ATOM     42  O   UNL     1     114.730 128.401 135.375  0.00  0.00    +0.000 OA
ATOM     43  C   UNL     1     114.240 129.012 135.634  0.00  0.00    +0.000 C 
ENDBRANCH  41  43
ENDBRANCH  32  40
ENDBRANCH   5  32
TORSDOF 6
ENDMDL
MODEL 2
REMARK VINA RESULT:     -10.3      0.586      1.571
REMARK  Name = 15592799
REMARK  6 active torsions:
REMARK  status: ('A' for Active; 'I' for Inactive)
REMARK    1  A    between atoms: O_3  and  C_26
REMARK    2  A    between atoms: O_3  and  C_28
REMARK    3  A    between atoms: C_17  and  C_22
REMARK    4  A    between atoms: C_21  and  C_29
REMARK    5  A    between atoms: C_27  and  C_31
REMARK    6  A    between atoms: C_36  and  C_38
REMARK                            x       y       z     vdW  Elec       q    Type
REMARK                         _______ _______ _______ _____ _____    ______ ____
ROOT
ATOM      1  O   UNL     1     113.190 125.946 139.559  0.00  0.00    +0.000 OA
ATOM      2  O   UNL     1     113.602 128.809 139.438  0.00  0.00    +0.000 OA
ATOM      3  O   UNL     1     113.422 126.672 140.784  0.00  0.00    +0.000 OA
ATOM      4  C   UNL     1     113.161 126.617 138.297  0.00  0.00    +0.000 A 
ATOM      5  C   UNL     1     113.219 127.312 137.857  0.00  0.00    +0.000 A 
ATOM      6  C   UNL     1     113.248 126.641 139.117  0.00  0.00    +0.000 A 
ATOM      7  C   UNL     1     113.364 128.030 138.235  0.00  0.00    +0.000 A 
ATOM      8  C   UNL     1     113.393 127.360 139.497  0.00  0.00    +0.000 A 
ATOM      9  C   UNL     1     113.451 128.054 139.055  0.00  0.00    +0.000 A 
ATOM     10  C   UNL     1     113.482 127.371 140.351  0.00  0.00    +0.000 A 
ATOM     11  C   UNL     1     113.693 128.840 140.293  0.00  0.00    +0.000 A 
ATOM     12  C   UNL     1     113.633 128.117 140.752  0.00  0.00    +0.000 A 
ENDROOT
BRANCH   4  17
ATOM     13  O   UNL     1     112.241 125.660 137.769  0.00  0.00    +0.000 OA
ATOM     14  O   UNL     1     114.423 125.658 137.839  0.00  0.00    +0.000 OA
ATOM     15  O   UNL     1     114.133 124.221 137.081  0.00  0.00    +0.000 OA
ATOM     16  O   UNL     1     112.583 123.744 136.782  0.00  0.00    +0.000 OA
ATOM     17  C   UNL     1     113.016 125.899 137.919  0.00  0.00    +0.000 C 
ATOM     18  C   UNL     1     113.647 125.419 137.690  0.00  0.00    +0.000 C 
ATOM     19  C   UNL     1     113.503 124.700 137.310  0.00  0.00    +0.000 C 
ATOM     20  C   UNL     1     112.727 124.462 137.161  0.00  0.00    +0.000 C 
ATOM     21  C   UNL     1     112.096 124.942 137.390  0.00  0.00    +0.000 C 
BRANCH  21  23
ATOM     22  O   UNL     1     110.692 125.203 137.428  0.00  0.00    +0.000 OA
ATOM     23  C   UNL     1     111.322 124.703 137.241  0.00  0.00    +0.000 C 
ENDBRANCH  21  23
ENDBRANCH   4  17
BRANCH  11  26
ATOM     24  O   UNL     1     115.422 131.053 140.820  0.00  0.00    +0.000 OA
ATOM     25  O   UNL     1     114.272 131.719 141.798  0.00  0.00    +0.000 OA
ATOM     26  C   UNL     1     113.838 129.560 140.669  0.00  0.00    +0.000 A 
ATOM     27  C   UNL     1     114.558 129.947 140.556  0.00  0.00    +0.000 A 
ATOM     28  C   UNL     1     113.262 129.892 141.158  0.00  0.00    +0.000 A 
ATOM     29  C   UNL     1     114.702 130.666 140.933  0.00  0.00    +0.000 A 
ATOM     30  C   UNL     1     113.407 130.612 141.535  0.00  0.00    +0.000 A 
ATOM     31  C   UNL     1     114.127 130.999 141.422  0.00  0.00    +0.000 A 
ENDBRANCH  11  26
BRANCH   5  32
ATOM     32  O   UNL     1     113.132 127.289 137.037  0.00  0.00    +0.000 OA
BRANCH  32  40
ATOM     33  O   UNL     1     112.035 128.182 136.834  0.00  0.00    +0.000 OA
ATOM     34  O   UNL     1     113.306 129.339 135.053  0.00  0.00    +0.000 OA
ATOM     35  O   UNL     1     113.979 128.060 135.849  0.00  0.00    +0.000 OA
ATOM     36  O   UNL     1     111.785 129.847 135.445  0.00  0.00    +0.000 OA
ATOM     37  C   UNL     1     112.882 128.953 135.647  0.00  0.00    +0.000 C 
ATOM     38  C   UNL     1     113.220 128.314 136.044  0.00  0.00    +0.000 C 
ATOM     39  C   UNL     1     112.123 129.207 135.842  0.00  0.00    +0.000 C 
ATOM     40  C   UNL     1     112.796 127.928 136.638  0.00  0.00    +0.000 C 
ATOM     41  C   UNL     1     111.699 128.821 136.436  0.00  0.00    +0.000 C 
BRANCH  41  43
ATOM     42  O   UNL     1     110.350 128.522 136.801  0.00  0.00    +0.000 OA
ATOM     43  C   UNL     1     110.938 129.075 136.632  0.00  0.00    +0.000 C 
ENDBRANCH  41  43
ENDBRANCH  32  40
ENDBRANCH   5  32
TORSDOF 6
ENDMDL
MODEL 3
REMARK VINA RESULT:     -10.3      2.503      6.060
REMARK  Name = 15592799
REMARK  6 active torsions:
REMARK  status: ('A' for Active; 'I' for Inactive)
REMARK    1  A    between atoms: O_3  and  C_26
REMARK    2  A    between atoms: O_3  and  C_28
REMARK    3  A    between atoms: C_17  and  C_22
REMARK    4  A    between atoms: C_21  and  C_29
REMARK    5  A    between atoms: C_27  and  C_31
REMARK    6  A    between atoms: C_36  and  C_38
REMARK                            x       y       z     vdW  Elec       q    Type
REMARK                         _______ _______ _______ _____ _____    ______ ____
ROOT
ATOM      1  O   UNL     1     108.438 128.578 136.191  0.00  0.00    +0.000 OA
ATOM      2  O   UNL     1     110.908 127.107 136.529  0.00  0.00    +0.000 OA
ATOM      3  O   UNL     1     108.390 127.138 136.266  0.00  0.00    +0.000 OA
ATOM      4  C   UNL     1     109.679 129.281 136.280  0.00  0.00    +0.000 A 
ATOM      5  C   UNL     1     110.500 129.273 136.365  0.00  0.00    +0.000 A 
ATOM      6  C   UNL     1     109.259 128.571 136.276  0.00  0.00    +0.000 A 
ATOM      7  C   UNL     1     110.900 128.557 136.447  0.00  0.00    +0.000 A 
ATOM      8  C   UNL     1     109.659 127.854 136.358  0.00  0.00    +0.000 A 
ATOM      9  C   UNL     1     110.479 127.847 136.443  0.00  0.00    +0.000 A 
ATOM     10  C   UNL     1     109.210 127.121 136.352  0.00  0.00    +0.000 A 
ATOM     11  C   UNL     1     110.475 126.364 136.526  0.00  0.00    +0.000 A 
ATOM     12  C   UNL     1     109.620 126.371 136.437  0.00  0.00    +0.000 A 
ENDROOT
BRANCH   4  17
ATOM     13  O   UNL     1     109.044 130.418 136.868  0.00  0.00    +0.000 OA
ATOM     14  O   UNL     1     109.350 129.875 134.776  0.00  0.00    +0.000 OA
ATOM     15  O   UNL     1     108.550 131.309 134.612  0.00  0.00    +0.000 OA
ATOM     16  O   UNL     1     108.079 132.148 135.952  0.00  0.00    +0.000 OA
ATOM     17  C   UNL     1     109.280 129.997 136.198  0.00  0.00    +0.000 C 
ATOM     18  C   UNL     1     109.115 130.294 135.446  0.00  0.00    +0.000 C 
ATOM     19  C   UNL     1     108.715 131.012 135.364  0.00  0.00    +0.000 C 
ATOM     20  C   UNL     1     108.479 131.431 136.034  0.00  0.00    +0.000 C 
ATOM     21  C   UNL     1     108.644 131.134 136.786  0.00  0.00    +0.000 C 
BRANCH  21  23
ATOM     22  O   UNL     1     108.312 131.163 138.176  0.00  0.00    +0.000 OA
ATOM     23  C   UNL     1     108.408 131.554 137.455  0.00  0.00    +0.000 C 
ENDBRANCH  21  23
ENDBRANCH   4  17
BRANCH  11  26
ATOM     24  O   UNL     1     111.602 124.335 138.193  0.00  0.00    +0.000 OA
ATOM     25  O   UNL     1     112.085 123.502 136.853  0.00  0.00    +0.000 OA
ATOM     26  C   UNL     1     110.878 125.648 136.608  0.00  0.00    +0.000 A 
ATOM     27  C   UNL     1     111.039 125.349 137.360  0.00  0.00    +0.000 A 
ATOM     28  C   UNL     1     111.119 125.232 135.937  0.00  0.00    +0.000 A 
ATOM     29  C   UNL     1     111.441 124.634 137.441  0.00  0.00    +0.000 A 
ATOM     30  C   UNL     1     111.521 124.516 136.019  0.00  0.00    +0.000 A 
ATOM     31  C   UNL     1     111.683 124.217 136.771  0.00  0.00    +0.000 A 
ENDBRANCH  11  26
BRANCH   5  32
ATOM     32  O   UNL     1     110.921 129.983 136.369  0.00  0.00    +0.000 OA
BRANCH  32  40
ATOM     33  O   UNL     1     111.544 129.976 137.655  0.00  0.00    +0.000 OA
ATOM     34  O   UNL     1     113.729 130.459 136.598  0.00  0.00    +0.000 OA
ATOM     35  O   UNL     1     112.377 130.305 135.665  0.00  0.00    +0.000 OA
ATOM     36  O   UNL     1     113.624 130.290 138.236  0.00  0.00    +0.000 OA
ATOM     37  C   UNL     1     113.001 130.298 136.950  0.00  0.00    +0.000 C 
ATOM     38  C   UNL     1     112.325 130.221 136.483  0.00  0.00    +0.000 C 
ATOM     39  C   UNL     1     112.949 130.214 137.769  0.00  0.00    +0.000 C 
ATOM     40  C   UNL     1     111.597 130.060 136.835  0.00  0.00    +0.000 C 
ATOM     41  C   UNL     1     112.220 130.053 138.121  0.00  0.00    +0.000 C 
BRANCH  41  43
ATOM     42  O   UNL     1     111.539 130.311 139.350  0.00  0.00    +0.000 OA
ATOM     43  C   UNL     1     112.168 129.968 138.941  0.00  0.00    +0.000 C 
ENDBRANCH  41  43
ENDBRANCH  32  40
ENDBRANCH   5  32
TORSDOF 6
ENDMDL
MODEL 4
REMARK VINA RESULT:     -10.3      1.578      5.311
REMARK  Name = 15592799
REMARK  6 active torsions:
REMARK  status: ('A' for Active; 'I' for Inactive)
REMARK    1  A    between atoms: O_3  and  C_26
REMARK    2  A    between atoms: O_3  and  C_28
REMARK    3  A    between atoms: C_17  and  C_22
REMARK    4  A    between atoms: C_21  and  C_29
REMARK    5  A    between atoms: C_27  and  C_31
REMARK    6  A    between atoms: C_36  and  C_38
REMARK                            x       y       z     vdW  Elec       q    Type
REMARK                         _______ _______ _______ _____ _____    ______ ____
ROOT
ATOM      1  O   UNL     1     114.031 128.320 141.051  0.00  0.00    +0.000 OA
ATOM      2  O   UNL     1     113.190 127.346 138.459  0.00  0.00    +0.000 OA
ATOM      3  O   UNL     1     114.229 126.928 140.730  0.00  0.00    +0.000 OA
ATOM      4  C   UNL     1     113.431 129.217 140.114  0.00  0.00    +0.000 A 
ATOM      5  C   UNL     1     113.092 129.355 139.374  0.00  0.00    +0.000 A 
ATOM      6  C   UNL     1     113.692 128.460 140.312  0.00  0.00    +0.000 A 
ATOM      7  C   UNL     1     113.014 128.738 138.834  0.00  0.00    +0.000 A 
ATOM      8  C   UNL     1     113.615 127.841 139.771  0.00  0.00    +0.000 A 
ATOM      9  C   UNL     1     113.276 127.981 139.032  0.00  0.00    +0.000 A 
ATOM     10  C   UNL     1     113.891 127.057 139.988  0.00  0.00    +0.000 A 
ATOM     11  C   UNL     1     113.460 126.554 138.659  0.00  0.00    +0.000 A 
ATOM     12  C   UNL     1     113.813 126.409 139.429  0.00  0.00    +0.000 A 
ENDROOT
BRANCH   4  17
ATOM     13  O   UNL     1     112.899 129.996 141.187  0.00  0.00    +0.000 OA
ATOM     14  O   UNL     1     114.806 130.129 140.133  0.00  0.00    +0.000 OA
ATOM     15  O   UNL     1     114.961 131.364 141.216  0.00  0.00    +0.000 OA
ATOM     16  O   UNL     1     113.742 131.688 142.278  0.00  0.00    +0.000 OA
ATOM     17  C   UNL     1     113.508 129.834 140.655  0.00  0.00    +0.000 C 
ATOM     18  C   UNL     1     114.196 130.290 140.664  0.00  0.00    +0.000 C 
ATOM     19  C   UNL     1     114.274 130.908 141.206  0.00  0.00    +0.000 C 
ATOM     20  C   UNL     1     113.664 131.070 141.737  0.00  0.00    +0.000 C 
ATOM     21  C   UNL     1     112.976 130.614 141.728  0.00  0.00    +0.000 C 
BRANCH  21  23
ATOM     22  O   UNL     1     111.657 130.358 142.213  0.00  0.00    +0.000 OA
ATOM     23  C   UNL     1     112.367 130.776 142.259  0.00  0.00    +0.000 C 
ENDBRANCH  21  23
ENDBRANCH   4  17
BRANCH  11  26
ATOM     24  O   UNL     1     111.827 124.634 137.315  0.00  0.00    +0.000 OA
ATOM     25  O   UNL     1     113.146 124.090 136.487  0.00  0.00    +0.000 OA
ATOM     26  C   UNL     1     113.381 125.938 138.116  0.00  0.00    +0.000 A 
ATOM     27  C   UNL     1     112.643 125.594 137.987  0.00  0.00    +0.000 A 
ATOM     28  C   UNL     1     114.042 125.666 137.703  0.00  0.00    +0.000 A 
ATOM     29  C   UNL     1     112.565 124.978 137.444  0.00  0.00    +0.000 A 
ATOM     30  C   UNL     1     113.964 125.050 137.160  0.00  0.00    +0.000 A 
ATOM     31  C   UNL     1     113.225 124.706 137.030  0.00  0.00    +0.000 A 
ENDBRANCH  11  26
BRANCH   5  32
ATOM     32  O   UNL     1     112.830 130.112 139.176  0.00  0.00    +0.000 OA
BRANCH  32  40
ATOM     33  O   UNL     1     111.454 129.865 138.881  0.00  0.00    +0.000 OA
ATOM     34  O   UNL     1     111.667 131.174 136.791  0.00  0.00    +0.000 OA
ATOM     35  O   UNL     1     112.973 130.984 137.783  0.00  0.00    +0.000 OA
ATOM     36  O   UNL     1     110.220 130.491 137.193  0.00  0.00    +0.000 OA
ATOM     37  C   UNL     1     111.596 130.738 137.488  0.00  0.00    +0.000 C 
ATOM     38  C   UNL     1     112.249 130.643 137.984  0.00  0.00    +0.000 C 
ATOM     39  C   UNL     1     110.873 130.396 137.689  0.00  0.00    +0.000 C 
ATOM     40  C   UNL     1     112.178 130.207 138.680  0.00  0.00    +0.000 C 
ATOM     41  C   UNL     1     110.802 129.960 138.385  0.00  0.00    +0.000 C 
BRANCH  41  43
ATOM     42  O   UNL     1     109.815 129.641 139.368  0.00  0.00    +0.000 OA
ATOM     43  C   UNL     1     110.078 129.618 138.586  0.00  0.00    +0.000 C 
ENDBRANCH  41  43
ENDBRANCH  32  40
ENDBRANCH   5  32
TORSDOF 6
ENDMDL
MODEL 5
REMARK VINA RESULT:      -9.9      2.818      5.436
REMARK  Name = 15592799
REMARK  6 active torsions:
REMARK  status: ('A' for Active; 'I' for Inactive)
REMARK    1  A    between atoms: O_3  and  C_26
REMARK    2  A    between atoms: O_3  and  C_28
REMARK    3  A    between atoms: C_17  and  C_22
REMARK    4  A    between atoms: C_21  and  C_29
REMARK    5  A    between atoms: C_27  and  C_31
REMARK    6  A    between atoms: C_36  and  C_38
REMARK                            x       y       z     vdW  Elec       q    Type
REMARK                         _______ _______ _______ _____ _____    ______ ____
ROOT
ATOM      1  O   UNL     1     111.187 131.382 139.698  0.00  0.00    +0.000 OA
ATOM      2  O   UNL     1     110.147 130.802 137.060  0.00  0.00    +0.000 OA
ATOM      3  O   UNL     1     110.130 132.207 139.166  0.00  0.00    +0.000 OA
ATOM      4  C   UNL     1     111.723 130.292 138.945  0.00  0.00    +0.000 A 
ATOM      5  C   UNL     1     111.731 129.833 138.259  0.00  0.00    +0.000 A 
ATOM      6  C   UNL     1     111.196 130.922 139.013  0.00  0.00    +0.000 A 
ATOM      7  C   UNL     1     111.212 130.004 137.642  0.00  0.00    +0.000 A 
ATOM      8  C   UNL     1     110.676 131.094 138.395  0.00  0.00    +0.000 A 
ATOM      9  C   UNL     1     110.684 130.634 137.710  0.00  0.00    +0.000 A 
ATOM     10  C   UNL     1     110.131 131.753 138.477  0.00  0.00    +0.000 A 
ATOM     11  C   UNL     1     109.595 131.458 137.124  0.00  0.00    +0.000 A 
ATOM     12  C   UNL     1     109.586 131.937 137.838  0.00  0.00    +0.000 A 
ENDROOT
BRANCH   4  17
ATOM     13  O   UNL     1     112.995 130.460 139.575  0.00  0.00    +0.000 OA
ATOM     14  O   UNL     1     111.259 129.269 140.153  0.00  0.00    +0.000 OA
ATOM     15  O   UNL     1     112.299 128.926 141.389  0.00  0.00    +0.000 OA
ATOM     16  O   UNL     1     113.801 129.606 141.414  0.00  0.00    +0.000 OA
ATOM     17  C   UNL     1     112.243 130.120 139.562  0.00  0.00    +0.000 C 
ATOM     18  C   UNL     1     112.011 129.609 140.166  0.00  0.00    +0.000 C 
ATOM     19  C   UNL     1     112.531 129.438 140.784  0.00  0.00    +0.000 C 
ATOM     20  C   UNL     1     113.282 129.778 140.797  0.00  0.00    +0.000 C 
ATOM     21  C   UNL     1     113.514 130.289 140.192  0.00  0.00    +0.000 C 
BRANCH  21  23
ATOM     22  O   UNL     1     114.527 131.077 139.564  0.00  0.00    +0.000 OA
ATOM     23  C   UNL     1     114.265 130.629 140.205  0.00  0.00    +0.000 C 
ENDBRANCH  21  23
ENDBRANCH   4  17
BRANCH  11  26
ATOM     24  O   UNL     1     107.047 131.136 135.873  0.00  0.00    +0.000 OA
ATOM     25  O   UNL     1     107.521 132.135 134.648  0.00  0.00    +0.000 OA
ATOM     26  C   UNL     1     109.076 131.627 136.505  0.00  0.00    +0.000 A 
ATOM     27  C   UNL     1     108.320 131.297 136.498  0.00  0.00    +0.000 A 
ATOM     28  C   UNL     1     109.314 132.127 135.893  0.00  0.00    +0.000 A 
ATOM     29  C   UNL     1     107.803 131.466 135.880  0.00  0.00    +0.000 A 
ATOM     30  C   UNL     1     108.796 132.297 135.274  0.00  0.00    +0.000 A 
ATOM     31  C   UNL     1     108.040 131.966 135.267  0.00  0.00    +0.000 A 
ENDBRANCH  11  26
BRANCH   5  32
ATOM     32  O   UNL     1     112.258 129.202 138.191  0.00  0.00    +0.000 OA
BRANCH  32  40
ATOM     33  O   UNL     1     113.018 129.587 137.043  0.00  0.00    +0.000 OA
ATOM     34  O   UNL     1     112.721 127.324 136.087  0.00  0.00    +0.000 OA
ATOM     35  O   UNL     1     112.060 127.693 137.553  0.00  0.00    +0.000 OA
ATOM     36  O   UNL     1     113.579 128.463 135.258  0.00  0.00    +0.000 OA
ATOM     37  C   UNL     1     112.820 128.078 136.406  0.00  0.00    +0.000 C 
ATOM     38  C   UNL     1     112.489 128.262 137.139  0.00  0.00    +0.000 C 
ATOM     39  C   UNL     1     113.249 128.647 135.992  0.00  0.00    +0.000 C 
ATOM     40  C   UNL     1     112.588 129.017 137.458  0.00  0.00    +0.000 C 
ATOM     41  C   UNL     1     113.348 129.402 136.310  0.00  0.00    +0.000 C 
BRANCH  41  43
ATOM     42  O   UNL     1     114.339 130.431 136.289  0.00  0.00    +0.000 OA
ATOM     43  C   UNL     1     113.778 129.972 135.896  0.00  0.00    +0.000 C 
ENDBRANCH  41  43
ENDBRANCH  32  40
ENDBRANCH   5  32
TORSDOF 6
ENDMDL
MODEL 6
REMARK VINA RESULT:      -9.9      1.775      3.902
REMARK  Name = 15592799
REMARK  6 active torsions:
REMARK  status: ('A' for Active; 'I' for Inactive)
REMARK    1  A    between atoms: O_3  and  C_26
REMARK    2  A    between atoms: O_3  and  C_28
REMARK    3  A    between atoms: C_17  and  C_22
REMARK    4  A    between atoms: C_21  and  C_29
REMARK    5  A    between atoms: C_27  and  C_31
REMARK    6  A    between atoms: C_36  and  C_38
REMARK                            x       y       z     vdW  Elec       q    Type
REMARK                         _______ _______ _______ _____ _____    ______ ____
ROOT
ATOM      1  O   UNL     1     112.692 126.912 135.990  0.00  0.00    +0.000 OA
ATOM      2  O   UNL     1     111.728 129.008 137.737  0.00  0.00    +0.000 OA
ATOM      3  O   UNL     1     112.490 128.235 135.450  0.00  0.00    +0.000 OA
ATOM      4  C   UNL     1     112.425 126.626 137.364  0.00  0.00    +0.000 A 
ATOM      5  C   UNL     1     112.177 126.876 138.111  0.00  0.00    +0.000 A 
ATOM      6  C   UNL     1     112.444 127.161 136.736  0.00  0.00    +0.000 A 
ATOM      7  C   UNL     1     111.948 127.659 138.229  0.00  0.00    +0.000 A 
ATOM      8  C   UNL     1     112.216 127.945 136.855  0.00  0.00    +0.000 A 
ATOM      9  C   UNL     1     111.968 128.194 137.601  0.00  0.00    +0.000 A 
ATOM     10  C   UNL     1     112.241 128.493 136.193  0.00  0.00    +0.000 A 
ATOM     11  C   UNL     1     111.746 129.570 137.087  0.00  0.00    +0.000 A 
ATOM     12  C   UNL     1     112.004 129.311 136.309  0.00  0.00    +0.000 A 
ENDROOT
BRANCH   4  17
ATOM     13  O   UNL     1     113.440 125.620 137.356  0.00  0.00    +0.000 OA
ATOM     14  O   UNL     1     111.307 125.502 136.908  0.00  0.00    +0.000 OA
ATOM     15  O   UNL     1     111.763 123.934 136.671  0.00  0.00    +0.000 OA
ATOM     16  O   UNL     1     113.337 123.491 136.890  0.00  0.00    +0.000 OA
ATOM     17  C   UNL     1     112.653 125.843 137.246  0.00  0.00    +0.000 C 
ATOM     18  C   UNL     1     112.094 125.281 137.018  0.00  0.00    +0.000 C 
ATOM     19  C   UNL     1     112.322 124.496 136.899  0.00  0.00    +0.000 C 
ATOM     20  C   UNL     1     113.109 124.275 137.009  0.00  0.00    +0.000 C 
ATOM     21  C   UNL     1     113.668 124.837 137.237  0.00  0.00    +0.000 C 
BRANCH  21  23
ATOM     22  O   UNL     1     114.960 125.092 137.793  0.00  0.00    +0.000 OA
ATOM     23  C   UNL     1     114.455 124.616 137.347  0.00  0.00    +0.000 C 
ENDBRANCH  21  23
ENDBRANCH   4  17
BRANCH  11  26
ATOM     24  O   UNL     1     109.687 131.527 137.397  0.00  0.00    +0.000 OA
ATOM     25  O   UNL     1     110.831 132.703 137.571  0.00  0.00    +0.000 OA
ATOM     26  C   UNL     1     111.517 130.354 137.208  0.00  0.00    +0.000 A 
ATOM     27  C   UNL     1     110.716 130.549 137.242  0.00  0.00    +0.000 A 
ATOM     28  C   UNL     1     112.090 130.941 137.295  0.00  0.00    +0.000 A 
ATOM     29  C   UNL     1     110.488 131.332 137.363  0.00  0.00    +0.000 A 
ATOM     30  C   UNL     1     111.861 131.725 137.417  0.00  0.00    +0.000 A 
ATOM     31  C   UNL     1     111.060 131.920 137.450  0.00  0.00    +0.000 A 
ENDBRANCH  11  26
BRANCH   5  32
ATOM     32  O   UNL     1     112.157 126.341 138.739  0.00  0.00    +0.000 OA
BRANCH  32  40
ATOM     33  O   UNL     1     113.006 126.970 139.701  0.00  0.00    +0.000 OA
ATOM     34  O   UNL     1     111.270 126.660 141.437  0.00  0.00    +0.000 OA
ATOM     35  O   UNL     1     110.999 126.135 139.896  0.00  0.00    +0.000 OA
ATOM     36  O   UNL     1     112.698 127.393 141.820  0.00  0.00    +0.000 OA
ATOM     37  C   UNL     1     111.849 126.764 140.858  0.00  0.00    +0.000 C 
ATOM     38  C   UNL     1     111.713 126.501 140.088  0.00  0.00    +0.000 C 
ATOM     39  C   UNL     1     112.562 127.130 141.049  0.00  0.00    +0.000 C 
ATOM     40  C   UNL     1     112.292 126.604 139.509  0.00  0.00    +0.000 C 
ATOM     41  C   UNL     1     113.141 127.233 140.471  0.00  0.00    +0.000 C 
BRANCH  41  43
ATOM     42  O   UNL     1     114.569 127.208 140.526  0.00  0.00    +0.000 OA
ATOM     43  C   UNL     1     113.855 127.600 140.662  0.00  0.00    +0.000 C 
ENDBRANCH  41  43
ENDBRANCH  32  40
ENDBRANCH   5  32
TORSDOF 6
ENDMDL
MODEL 7
REMARK VINA RESULT:      -9.8      2.407      4.692
REMARK  Name = 15592799
REMARK  6 active torsions:
REMARK  status: ('A' for Active; 'I' for Inactive)
REMARK    1  A    between atoms: O_3  and  C_26
REMARK    2  A    between atoms: O_3  and  C_28
REMARK    3  A    between atoms: C_17  and  C_22
REMARK    4  A    between atoms: C_21  and  C_29
REMARK    5  A    between atoms: C_27  and  C_31
REMARK    6  A    between atoms: C_36  and  C_38
REMARK                            x       y       z     vdW  Elec       q    Type
REMARK                         _______ _______ _______ _____ _____    ______ ____
ROOT
ATOM      1  O   UNL     1     109.502 126.563 136.464  0.00  0.00    +0.000 OA
ATOM      2  O   UNL     1     109.795 129.441 136.376  0.00  0.00    +0.000 OA
ATOM      3  O   UNL     1     108.504 127.346 135.779  0.00  0.00    +0.000 OA
ATOM      4  C   UNL     1     110.624 127.184 137.095  0.00  0.00    +0.000 A 
ATOM      5  C   UNL     1     111.046 127.865 137.291  0.00  0.00    +0.000 A 
ATOM      6  C   UNL     1     109.925 127.243 136.661  0.00  0.00    +0.000 A 
ATOM      7  C   UNL     1     110.771 128.605 137.053  0.00  0.00    +0.000 A 
ATOM      8  C   UNL     1     109.649 127.984 136.422  0.00  0.00    +0.000 A 
ATOM      9  C   UNL     1     110.072 128.664 136.619  0.00  0.00    +0.000 A 
ATOM     10  C   UNL     1     108.920 128.032 135.970  0.00  0.00    +0.000 A 
ATOM     11  C   UNL     1     109.067 129.509 135.923  0.00  0.00    +0.000 A 
ATOM     12  C   UNL     1     108.626 128.800 135.719  0.00  0.00    +0.000 A 
ENDROOT
BRANCH   4  17
ATOM     13  O   UNL     1     111.409 126.016 136.845  0.00  0.00    +0.000 OA
ATOM     14  O   UNL     1     110.158 126.559 138.549  0.00  0.00    +0.000 OA
ATOM     15  O   UNL     1     110.709 125.079 139.026  0.00  0.00    +0.000 OA
ATOM     16  O   UNL     1     111.727 124.224 138.049  0.00  0.00    +0.000 OA
ATOM     17  C   UNL     1     110.900 126.444 137.333  0.00  0.00    +0.000 C 
ATOM     18  C   UNL     1     110.667 126.132 138.060  0.00  0.00    +0.000 C 
ATOM     19  C   UNL     1     110.943 125.391 138.299  0.00  0.00    +0.000 C 
ATOM     20  C   UNL     1     111.452 124.964 137.810  0.00  0.00    +0.000 C 
ATOM     21  C   UNL     1     111.685 125.277 137.083  0.00  0.00    +0.000 C 
BRANCH  21  23
ATOM     22  O   UNL     1     112.786 125.239 136.173  0.00  0.00    +0.000 OA
ATOM     23  C   UNL     1     112.194 124.850 136.595  0.00  0.00    +0.000 C 
ENDBRANCH  21  23
ENDBRANCH   4  17
BRANCH  11  26
ATOM     24  O   UNL     1     107.350 131.758 136.324  0.00  0.00    +0.000 OA
ATOM     25  O   UNL     1     107.972 132.474 134.974  0.00  0.00    +0.000 OA
ATOM     26  C   UNL     1     108.793 130.251 135.686  0.00  0.00    +0.000 A 
ATOM     27  C   UNL     1     108.208 130.634 136.124  0.00  0.00    +0.000 A 
ATOM     28  C   UNL     1     109.105 130.608 135.011  0.00  0.00    +0.000 A 
ATOM     29  C   UNL     1     107.935 131.374 135.886  0.00  0.00    +0.000 A 
ATOM     30  C   UNL     1     108.831 131.350 134.774  0.00  0.00    +0.000 A 
ATOM     31  C   UNL     1     108.246 131.733 135.211  0.00  0.00    +0.000 A 
ENDBRANCH  11  26
BRANCH   5  32
ATOM     32  O   UNL     1     111.745 127.806 137.725  0.00  0.00    +0.000 OA
BRANCH  32  40
ATOM     33  O   UNL     1     112.690 128.463 136.878  0.00  0.00    +0.000 OA
ATOM     34  O   UNL     1     113.453 129.834 138.792  0.00  0.00    +0.000 OA
ATOM     35  O   UNL     1     112.254 128.720 139.001  0.00  0.00    +0.000 OA
ATOM     36  O   UNL     1     114.144 130.034 137.306  0.00  0.00    +0.000 OA
ATOM     37  C   UNL     1     113.199 129.377 138.154  0.00  0.00    +0.000 C 
ATOM     38  C   UNL     1     112.599 128.820 138.259  0.00  0.00    +0.000 C 
ATOM     39  C   UNL     1     113.544 129.477 137.412  0.00  0.00    +0.000 C 
ATOM     40  C   UNL     1     112.345 128.363 137.621  0.00  0.00    +0.000 C 
ATOM     41  C   UNL     1     113.289 129.020 136.774  0.00  0.00    +0.000 C 
BRANCH  41  43
ATOM     42  O   UNL     1     113.837 128.460 135.579  0.00  0.00    +0.000 OA
ATOM     43  C   UNL     1     113.635 129.120 136.031  0.00  0.00    +0.000 C 
ENDBRANCH  41  43
ENDBRANCH  32  40
ENDBRANCH   5  32
TORSDOF 6
ENDMDL
MODEL 8
REMARK VINA RESULT:      -9.8      2.557      6.003
REMARK  Name = 15592799
REMARK  6 active torsions:
REMARK  status: ('A' for Active; 'I' for Inactive)
REMARK    1  A    between atoms: O_3  and  C_26
REMARK    2  A    between atoms: O_3  and  C_28
REMARK    3  A    between atoms: C_17  and  C_22
REMARK    4  A    between atoms: C_21  and  C_29
REMARK    5  A    between atoms: C_27  and  C_31
REMARK    6  A    between atoms: C_36  and  C_38
REMARK                            x       y       z     vdW  Elec       q    Type
REMARK                         _______ _______ _______ _____ _____    ______ ____
ROOT
ATOM      1  O   UNL     1     110.136 129.056 135.115  0.00  0.00    +0.000 OA
ATOM      2  O   UNL     1     111.223 127.141 136.993  0.00  0.00    +0.000 OA
ATOM      3  O   UNL     1     110.900 127.940 134.612  0.00  0.00    +0.000 OA
ATOM      4  C   UNL     1     109.912 129.226 136.516  0.00  0.00    +0.000 A 
ATOM      5  C   UNL     1     110.016 128.968 137.293  0.00  0.00    +0.000 A 
ATOM      6  C   UNL     1     110.240 128.798 135.892  0.00  0.00    +0.000 A 
ATOM      7  C   UNL     1     110.447 128.282 137.445  0.00  0.00    +0.000 A 
ATOM      8  C   UNL     1     110.672 128.112 136.044  0.00  0.00    +0.000 A 
ATOM      9  C   UNL     1     110.776 127.854 136.821  0.00  0.00    +0.000 A 
ATOM     10  C   UNL     1     111.009 127.675 135.385  0.00  0.00    +0.000 A 
ATOM     11  C   UNL     1     111.568 126.690 136.346  0.00  0.00    +0.000 A 
ATOM     12  C   UNL     1     111.460 126.959 135.537  0.00  0.00    +0.000 A 
ENDROOT
BRANCH   4  17
ATOM     13  O   UNL     1     109.857 130.646 136.362  0.00  0.00    +0.000 OA
ATOM     14  O   UNL     1     108.292 129.131 136.214  0.00  0.00    +0.000 OA
ATOM     15  O   UNL     1     107.428 130.503 135.909  0.00  0.00    +0.000 OA
ATOM     16  O   UNL     1     108.183 131.970 135.906  0.00  0.00    +0.000 OA
ATOM     17  C   UNL     1     109.480 129.912 136.364  0.00  0.00    +0.000 C 
ATOM     18  C   UNL     1     108.670 129.864 136.213  0.00  0.00    +0.000 C 
ATOM     19  C   UNL     1     108.238 130.551 136.060  0.00  0.00    +0.000 C 
ATOM     20  C   UNL     1     108.616 131.284 136.059  0.00  0.00    +0.000 C 
ATOM     21  C   UNL     1     109.425 131.332 136.210  0.00  0.00    +0.000 C 
BRANCH  21  23
ATOM     22  O   UNL     1     110.569 132.136 136.504  0.00  0.00    +0.000 OA
ATOM     23  C   UNL     1     109.802 132.065 136.208  0.00  0.00    +0.000 C 
ENDBRANCH  21  23
ENDBRANCH   4  17
BRANCH  11  26
ATOM     24  O   UNL     1     111.650 123.881 136.865  0.00  0.00    +0.000 OA
ATOM     25  O   UNL     1     113.295 123.948 136.967  0.00  0.00    +0.000 OA
ATOM     26  C   UNL     1     112.000 126.004 136.501  0.00  0.00    +0.000 A 
ATOM     27  C   UNL     1     111.609 125.285 136.605  0.00  0.00    +0.000 A 
ATOM     28  C   UNL     1     112.823 126.038 136.553  0.00  0.00    +0.000 A 
ATOM     29  C   UNL     1     112.041 124.600 136.761  0.00  0.00    +0.000 A 
ATOM     30  C   UNL     1     113.255 125.352 136.708  0.00  0.00    +0.000 A 
ATOM     31  C   UNL     1     112.863 124.633 136.812  0.00  0.00    +0.000 A 
ENDBRANCH  11  26
BRANCH   5  32
ATOM     32  O   UNL     1     109.688 129.395 137.917  0.00  0.00    +0.000 OA
BRANCH  32  40
ATOM     33  O   UNL     1     110.842 129.725 138.692  0.00  0.00    +0.000 OA
ATOM     34  O   UNL     1     109.700 128.919 140.735  0.00  0.00    +0.000 OA
ATOM     35  O   UNL     1     108.926 128.858 139.279  0.00  0.00    +0.000 OA
ATOM     36  O   UNL     1     111.235 129.517 140.829  0.00  0.00    +0.000 OA
ATOM     37  C   UNL     1     110.081 129.187 140.054  0.00  0.00    +0.000 C 
ATOM     38  C   UNL     1     109.693 129.157 139.326  0.00  0.00    +0.000 C 
ATOM     39  C   UNL     1     110.848 129.486 140.101  0.00  0.00    +0.000 C 
ATOM     40  C   UNL     1     110.074 129.425 138.645  0.00  0.00    +0.000 C 
ATOM     41  C   UNL     1     111.228 129.755 139.420  0.00  0.00    +0.000 C 
BRANCH  41  43
ATOM     42  O   UNL     1     112.195 130.744 139.061  0.00  0.00    +0.000 OA
ATOM     43  C   UNL     1     111.996 130.054 139.467  0.00  0.00    +0.000 C 
ENDBRANCH  41  43
ENDBRANCH  32  40
ENDBRANCH   5  32
TORSDOF 6
ENDMDL
MODEL 9
REMARK VINA RESULT:      -9.7      2.122      5.182
REMARK  Name = 15592799
REMARK  6 active torsions:
REMARK  status: ('A' for Active; 'I' for Inactive)
REMARK    1  A    between atoms: O_3  and  C_26
REMARK    2  A    between atoms: O_3  and  C_28
REMARK    3  A    between atoms: C_17  and  C_22
REMARK    4  A    between atoms: C_21  and  C_29
REMARK    5  A    between atoms: C_27  and  C_31
REMARK    6  A    between atoms: C_36  and  C_38
REMARK                            x       y       z     vdW  Elec       q    Type
REMARK                         _______ _______ _______ _____ _____    ______ ____
ROOT
ATOM      1  O   UNL     1     113.568 127.803 141.374  0.00  0.00    +0.000 OA
ATOM      2  O   UNL     1     112.667 126.924 138.768  0.00  0.00    +0.000 OA
ATOM      3  O   UNL     1     114.371 126.856 140.639  0.00  0.00    +0.000 OA
ATOM      4  C   UNL     1     112.344 128.308 140.836  0.00  0.00    +0.000 A 
ATOM      5  C   UNL     1     111.788 128.332 140.227  0.00  0.00    +0.000 A 
ATOM      6  C   UNL     1     113.011 127.828 140.766  0.00  0.00    +0.000 A 
ATOM      7  C   UNL     1     111.897 127.875 139.550  0.00  0.00    +0.000 A 
ATOM      8  C   UNL     1     113.121 127.370 140.087  0.00  0.00    +0.000 A 
ATOM      9  C   UNL     1     112.564 127.395 139.480  0.00  0.00    +0.000 A 
ATOM     10  C   UNL     1     113.820 126.874 140.026  0.00  0.00    +0.000 A 
ATOM     11  C   UNL     1     113.360 126.421 138.689  0.00  0.00    +0.000 A 
ATOM     12  C   UNL     1     113.940 126.396 139.322  0.00  0.00    +0.000 A 
ENDROOT
BRANCH   4  17
ATOM     13  O   UNL     1     112.514 129.541 141.539  0.00  0.00    +0.000 OA
ATOM     14  O   UNL     1     111.566 127.670 142.143  0.00  0.00    +0.000 OA
ATOM     15  O   UNL     1     111.346 128.583 143.500  0.00  0.00    +0.000 OA
ATOM     16  O   UNL     1     111.905 130.134 143.549  0.00  0.00    +0.000 OA
ATOM     17  C   UNL     1     112.234 128.765 141.514  0.00  0.00    +0.000 C 
ATOM     18  C   UNL     1     111.845 128.445 142.167  0.00  0.00    +0.000 C 
ATOM     19  C   UNL     1     111.735 128.902 142.846  0.00  0.00    +0.000 C 
ATOM     20  C   UNL     1     112.015 129.678 142.871  0.00  0.00    +0.000 C 
ATOM     21  C   UNL     1     112.404 129.997 142.217  0.00  0.00    +0.000 C 
BRANCH  21  23
ATOM     22  O   UNL     1     113.195 131.046 141.656  0.00  0.00    +0.000 OA
ATOM     23  C   UNL     1     112.683 130.772 142.242  0.00  0.00    +0.000 C 
ENDBRANCH  21  23
ENDBRANCH   4  17
BRANCH  11  26
ATOM     24  O   UNL     1     112.702 124.126 137.118  0.00  0.00    +0.000 OA
ATOM     25  O   UNL     1     113.791 124.598 135.972  0.00  0.00    +0.000 OA
ATOM     26  C   UNL     1     113.468 125.965 138.010  0.00  0.00    +0.000 A 
ATOM     27  C   UNL     1     113.031 125.273 137.904  0.00  0.00    +0.000 A 
ATOM     28  C   UNL     1     114.012 126.202 137.436  0.00  0.00    +0.000 A 
ATOM     29  C   UNL     1     113.139 124.818 137.224  0.00  0.00    +0.000 A 
ATOM     30  C   UNL     1     114.120 125.746 136.757  0.00  0.00    +0.000 A 
ATOM     31  C   UNL     1     113.683 125.054 136.651  0.00  0.00    +0.000 A 
ENDBRANCH  11  26
BRANCH   5  32
ATOM     32  O   UNL     1     111.121 128.812 140.297  0.00  0.00    +0.000 OA
BRANCH  32  40
ATOM     33  O   UNL     1     111.292 129.694 139.186  0.00  0.00    +0.000 OA
ATOM     34  O   UNL     1     108.934 129.323 138.529  0.00  0.00    +0.000 OA
ATOM     35  O   UNL     1     109.549 128.565 139.859  0.00  0.00    +0.000 OA
ATOM     36  O   UNL     1     109.891 130.328 137.636  0.00  0.00    +0.000 OA
ATOM     37  C   UNL     1     109.720 129.447 138.748  0.00  0.00    +0.000 C 
ATOM     38  C   UNL     1     110.027 129.067 139.413  0.00  0.00    +0.000 C 
ATOM     39  C   UNL     1     110.198 129.949 138.302  0.00  0.00    +0.000 C 
ATOM     40  C   UNL     1     110.813 129.191 139.632  0.00  0.00    +0.000 C 
ATOM     41  C   UNL     1     110.984 130.072 138.521  0.00  0.00    +0.000 C 
BRANCH  41  43
ATOM     42  O   UNL     1     111.961 131.113 138.453  0.00  0.00    +0.000 OA
ATOM     43  C   UNL     1     111.463 130.575 138.074  0.00  0.00    +0.000 C 
ENDBRANCH  41  43
ENDBRANCH  32  40
ENDBRANCH   5  32
TORSDOF 6
ENDMDL
