MODEL 1
REMARK VINA RESULT:      -8.4      0.000      0.000
REMARK  Name = 44258041
REMARK  4 active torsions:
REMARK  status: ('A' for Active; 'I' for Inactive)
REMARK    1  A    between atoms: O_2  and  C_13
REMARK    2  A    between atoms: O_3  and  C_18
REMARK    3  A    between atoms: O_7  and  C_22
REMARK    4  A    between atoms: C_11  and  C_14
REMARK                            x       y       z     vdW  Elec       q    Type
REMARK                         _______ _______ _______ _____ _____    ______ ____
ROOT
ATOM      1  O   UNL     1     104.751 124.248 146.869  0.00  0.00    +0.000 OA
ATOM      2  O   UNL     1     102.053 125.089 147.467  0.00  0.00    +0.000 OA
ATOM      3  O   UNL     1     103.189 125.812 147.983  0.00  0.00    +0.000 OA
ATOM      4  O   UNL     1     102.505 122.739 145.793  0.00  0.00    +0.000 OA
ATOM      5  C   UNL     1     103.417 124.663 147.164  0.00  0.00    +0.000 A 
ATOM      6  C   UNL     1     105.046 124.876 147.316  0.00  0.00    +0.000 A 
ATOM      7  C   UNL     1     103.938 124.141 146.793  0.00  0.00    +0.000 A 
ATOM      8  C   UNL     1     104.525 125.397 147.688  0.00  0.00    +0.000 A 
ATOM      9  C   UNL     1     103.710 125.291 147.611  0.00  0.00    +0.000 A 
ATOM     10  C   UNL     1     102.566 124.563 147.093  0.00  0.00    +0.000 A 
ATOM     11  C   UNL     1     103.643 123.484 146.324  0.00  0.00    +0.000 A 
ATOM     12  C   UNL     1     102.254 123.911 146.628  0.00  0.00    +0.000 A 
ATOM     13  C   UNL     1     102.796 123.368 146.241  0.00  0.00    +0.000 A 
ENDROOT
BRANCH   6  16
ATOM     14  O   UNL     1     107.505 125.946 146.329  0.00  0.00    +0.000 OA
ATOM     15  O   UNL     1     108.304 125.303 147.621  0.00  0.00    +0.000 OA
ATOM     16  C   UNL     1     105.860 124.982 147.393  0.00  0.00    +0.000 A 
ATOM     17  C   UNL     1     106.260 124.661 148.039  0.00  0.00    +0.000 A 
ATOM     18  C   UNL     1     106.275 125.411 146.823  0.00  0.00    +0.000 A 
ATOM     19  C   UNL     1     107.074 124.767 148.115  0.00  0.00    +0.000 A 
ATOM     20  C   UNL     1     107.090 125.518 146.899  0.00  0.00    +0.000 A 
ATOM     21  C   UNL     1     107.489 125.196 147.545  0.00  0.00    +0.000 A 
BRANCH  19  22
ATOM     22  O   UNL     1     107.474 124.446 148.761  0.00  0.00    +0.000 OA
ATOM     23  C   UNL     1     107.050 124.173 149.414  0.00  0.00    +0.000 C 
ENDBRANCH  19  22
ENDBRANCH   6  16
BRANCH   8  24
ATOM     24  O   UNL     1     104.819 126.025 148.135  0.00  0.00    +0.000 OA
ATOM     25  C   UNL     1     104.329 126.661 148.325  0.00  0.00    +0.000 C 
ENDBRANCH   8  24
BRANCH  12  26
ATOM     26  O   UNL     1     101.439 123.807 146.554  0.00  0.00    +0.000 OA
ATOM     27  C   UNL     1     101.049 123.253 147.025  0.00  0.00    +0.000 C 
ENDBRANCH  12  26
TORSDOF 4
ENDMDL
MODEL 2
REMARK VINA RESULT:      -8.2      1.191      2.044
REMARK  Name = 44258041
REMARK  4 active torsions:
REMARK  status: ('A' for Active; 'I' for Inactive)
REMARK    1  A    between atoms: O_2  and  C_13
REMARK    2  A    between atoms: O_3  and  C_18
REMARK    3  A    between atoms: O_7  and  C_22
REMARK    4  A    between atoms: C_11  and  C_14
REMARK                            x       y       z     vdW  Elec       q    Type
REMARK                         _______ _______ _______ _____ _____    ______ ____
ROOT
ATOM      1  O   UNL     1     104.701 124.860 146.988  0.00  0.00    +0.000 OA
ATOM      2  O   UNL     1     103.299 123.023 145.255  0.00  0.00    +0.000 OA
ATOM      3  O   UNL     1     104.549 123.620 144.852  0.00  0.00    +0.000 OA
ATOM      4  O   UNL     1     102.182 123.694 147.868  0.00  0.00    +0.000 OA
ATOM      5  C   UNL     1     104.007 123.952 146.132  0.00  0.00    +0.000 A 
ATOM      6  C   UNL     1     105.295 124.943 146.421  0.00  0.00    +0.000 A 
ATOM      7  C   UNL     1     104.058 124.365 146.844  0.00  0.00    +0.000 A 
ATOM      8  C   UNL     1     105.244 124.529 145.709  0.00  0.00    +0.000 A 
ATOM      9  C   UNL     1     104.600 124.033 145.564  0.00  0.00    +0.000 A 
ATOM     10  C   UNL     1     103.341 123.432 145.969  0.00  0.00    +0.000 A 
ATOM     11  C   UNL     1     103.446 124.288 147.443  0.00  0.00    +0.000 A 
ATOM     12  C   UNL     1     102.721 123.343 146.556  0.00  0.00    +0.000 A 
ATOM     13  C   UNL     1     102.773 123.774 147.299  0.00  0.00    +0.000 A 
ENDROOT
BRANCH   6  16
ATOM     14  O   UNL     1     106.504 127.529 146.296  0.00  0.00    +0.000 OA
ATOM     15  O   UNL     1     107.869 126.925 146.998  0.00  0.00    +0.000 OA
ATOM     16  C   UNL     1     105.938 125.438 146.565  0.00  0.00    +0.000 A 
ATOM     17  C   UNL     1     106.621 125.136 146.917  0.00  0.00    +0.000 A 
ATOM     18  C   UNL     1     105.899 126.235 146.358  0.00  0.00    +0.000 A 
ATOM     19  C   UNL     1     107.264 125.631 147.061  0.00  0.00    +0.000 A 
ATOM     20  C   UNL     1     106.543 126.731 146.503  0.00  0.00    +0.000 A 
ATOM     21  C   UNL     1     107.225 126.429 146.854  0.00  0.00    +0.000 A 
BRANCH  19  22
ATOM     22  O   UNL     1     107.947 125.329 147.412  0.00  0.00    +0.000 OA
ATOM     23  C   UNL     1     107.895 124.909 148.120  0.00  0.00    +0.000 C 
ENDBRANCH  19  22
ENDBRANCH   6  16
BRANCH   8  24
ATOM     24  O   UNL     1     105.837 124.610 145.141  0.00  0.00    +0.000 OA
ATOM     25  C   UNL     1     105.662 124.500 144.343  0.00  0.00    +0.000 C 
ENDBRANCH   8  24
BRANCH  12  26
ATOM     26  O   UNL     1     102.078 122.847 146.409  0.00  0.00    +0.000 OA
ATOM     27  C   UNL     1     101.360 123.166 146.156  0.00  0.00    +0.000 C 
ENDBRANCH  12  26
TORSDOF 4
ENDMDL
MODEL 3
REMARK VINA RESULT:      -8.1      0.951      2.129
REMARK  Name = 44258041
REMARK  4 active torsions:
REMARK  status: ('A' for Active; 'I' for Inactive)
REMARK    1  A    between atoms: O_2  and  C_13
REMARK    2  A    between atoms: O_3  and  C_18
REMARK    3  A    between atoms: O_7  and  C_22
REMARK    4  A    between atoms: C_11  and  C_14
REMARK                            x       y       z     vdW  Elec       q    Type
REMARK                         _______ _______ _______ _____ _____    ______ ____
ROOT
ATOM      1  O   UNL     1     104.485 125.223 147.530  0.00  0.00    +0.000 OA
ATOM      2  O   UNL     1     102.488 123.856 145.953  0.00  0.00    +0.000 OA
ATOM      3  O   UNL     1     103.872 123.872 145.549  0.00  0.00    +0.000 OA
ATOM      4  O   UNL     1     101.709 125.232 148.408  0.00  0.00    +0.000 OA
ATOM      5  C   UNL     1     103.497 124.548 146.751  0.00  0.00    +0.000 A 
ATOM      6  C   UNL     1     105.066 124.999 146.988  0.00  0.00    +0.000 A 
ATOM      7  C   UNL     1     103.701 124.998 147.411  0.00  0.00    +0.000 A 
ATOM      8  C   UNL     1     104.862 124.549 146.328  0.00  0.00    +0.000 A 
ATOM      9  C   UNL     1     104.077 124.323 146.209  0.00  0.00    +0.000 A 
ATOM     10  C   UNL     1     102.683 124.306 146.616  0.00  0.00    +0.000 A 
ATOM     11  C   UNL     1     103.106 125.238 147.983  0.00  0.00    +0.000 A 
ATOM     12  C   UNL     1     102.074 124.537 147.176  0.00  0.00    +0.000 A 
ATOM     13  C   UNL     1     102.287 125.006 147.865  0.00  0.00    +0.000 A 
ENDROOT
BRANCH   6  16
ATOM     14  O   UNL     1     107.611 124.556 148.212  0.00  0.00    +0.000 OA
ATOM     15  O   UNL     1     108.205 125.901 147.463  0.00  0.00    +0.000 OA
ATOM     16  C   UNL     1     105.850 125.224 147.107  0.00  0.00    +0.000 A 
ATOM     17  C   UNL     1     106.148 125.897 146.733  0.00  0.00    +0.000 A 
ATOM     18  C   UNL     1     106.338 124.777 147.600  0.00  0.00    +0.000 A 
ATOM     19  C   UNL     1     106.932 126.122 146.851  0.00  0.00    +0.000 A 
ATOM     20  C   UNL     1     107.123 125.003 147.719  0.00  0.00    +0.000 A 
ATOM     21  C   UNL     1     107.420 125.675 147.344  0.00  0.00    +0.000 A 
BRANCH  19  22
ATOM     22  O   UNL     1     107.230 126.795 146.477  0.00  0.00    +0.000 OA
ATOM     23  C   UNL     1     106.804 127.501 146.500  0.00  0.00    +0.000 C 
ENDBRANCH  19  22
ENDBRANCH   6  16
BRANCH   8  24
ATOM     24  O   UNL     1     105.442 124.324 145.786  0.00  0.00    +0.000 OA
ATOM     25  C   UNL     1     105.234 124.153 145.006  0.00  0.00    +0.000 C 
ENDBRANCH   8  24
BRANCH  12  26
ATOM     26  O   UNL     1     101.290 124.310 147.055  0.00  0.00    +0.000 OA
ATOM     27  C   UNL     1     100.982 123.659 147.458  0.00  0.00    +0.000 C 
ENDBRANCH  12  26
TORSDOF 4
ENDMDL
MODEL 4
REMARK VINA RESULT:      -8.0      7.672      8.869
REMARK  Name = 44258041
REMARK  4 active torsions:
REMARK  status: ('A' for Active; 'I' for Inactive)
REMARK    1  A    between atoms: O_2  and  C_13
REMARK    2  A    between atoms: O_3  and  C_18
REMARK    3  A    between atoms: O_7  and  C_22
REMARK    4  A    between atoms: C_11  and  C_14
REMARK                            x       y       z     vdW  Elec       q    Type
REMARK                         _______ _______ _______ _____ _____    ______ ____
ROOT
ATOM      1  O   UNL     1     103.550 130.096 142.240  0.00  0.00    +0.000 OA
ATOM      2  O   UNL     1     104.293 127.639 140.914  0.00  0.00    +0.000 OA
ATOM      3  O   UNL     1     103.395 128.580 140.290  0.00  0.00    +0.000 OA
ATOM      4  O   UNL     1     105.369 128.244 143.561  0.00  0.00    +0.000 OA
ATOM      5  C   UNL     1     103.918 128.881 141.586  0.00  0.00    +0.000 A 
ATOM      6  C   UNL     1     103.078 130.301 141.595  0.00  0.00    +0.000 A 
ATOM      7  C   UNL     1     103.970 129.386 142.236  0.00  0.00    +0.000 A 
ATOM      8  C   UNL     1     103.026 129.796 140.945  0.00  0.00    +0.000 A 
ATOM      9  C   UNL     1     103.446 129.085 140.940  0.00  0.00    +0.000 A 
ATOM     10  C   UNL     1     104.351 128.138 141.568  0.00  0.00    +0.000 A 
ATOM     11  C   UNL     1     104.458 129.184 142.914  0.00  0.00    +0.000 A 
ATOM     12  C   UNL     1     104.844 127.919 142.237  0.00  0.00    +0.000 A 
ATOM     13  C   UNL     1     104.898 128.446 142.914  0.00  0.00    +0.000 A 
ENDROOT
BRANCH   6  16
ATOM     14  O   UNL     1     100.712 131.773 142.231  0.00  0.00    +0.000 OA
ATOM     15  O   UNL     1     101.397 133.141 141.614  0.00  0.00    +0.000 OA
ATOM     16  C   UNL     1     102.658 131.011 141.600  0.00  0.00    +0.000 A 
ATOM     17  C   UNL     1     103.001 131.695 141.292  0.00  0.00    +0.000 A 
ATOM     18  C   UNL     1     101.896 131.036 141.913  0.00  0.00    +0.000 A 
ATOM     19  C   UNL     1     102.581 132.405 141.297  0.00  0.00    +0.000 A 
ATOM     20  C   UNL     1     101.475 131.747 141.918  0.00  0.00    +0.000 A 
ATOM     21  C   UNL     1     101.818 132.431 141.610  0.00  0.00    +0.000 A 
BRANCH  19  22
ATOM     22  O   UNL     1     102.923 133.090 140.988  0.00  0.00    +0.000 OA
ATOM     23  C   UNL     1     103.705 133.278 141.173  0.00  0.00    +0.000 C 
ENDBRANCH  19  22
ENDBRANCH   6  16
BRANCH   8  24
ATOM     24  O   UNL     1     102.555 130.000 140.300  0.00  0.00    +0.000 OA
ATOM     25  C   UNL     1     102.282 129.415 139.786  0.00  0.00    +0.000 C 
ENDBRANCH   8  24
BRANCH  12  26
ATOM     26  O   UNL     1     105.263 127.209 142.229  0.00  0.00    +0.000 OA
ATOM     27  C   UNL     1     106.068 127.206 142.049  0.00  0.00    +0.000 C 
ENDBRANCH  12  26
TORSDOF 4
ENDMDL
MODEL 5
REMARK VINA RESULT:      -7.9     12.986     14.275
REMARK  Name = 44258041
REMARK  4 active torsions:
REMARK  status: ('A' for Active; 'I' for Inactive)
REMARK    1  A    between atoms: O_2  and  C_13
REMARK    2  A    between atoms: O_3  and  C_18
REMARK    3  A    between atoms: O_7  and  C_22
REMARK    4  A    between atoms: C_11  and  C_14
REMARK                            x       y       z     vdW  Elec       q    Type
REMARK                         _______ _______ _______ _____ _____    ______ ____
ROOT
ATOM      1  O   UNL     1     113.507 126.944 136.601  0.00  0.00    +0.000 OA
ATOM      2  O   UNL     1     111.334 125.141 135.992  0.00  0.00    +0.000 OA
ATOM      3  O   UNL     1     111.198 126.564 135.795  0.00  0.00    +0.000 OA
ATOM      4  O   UNL     1     113.852 124.084 137.025  0.00  0.00    +0.000 OA
ATOM      5  C   UNL     1     112.433 126.052 136.300  0.00  0.00    +0.000 A 
ATOM      6  C   UNL     1     113.043 127.584 136.364  0.00  0.00    +0.000 A 
ATOM      7  C   UNL     1     113.203 126.179 136.569  0.00  0.00    +0.000 A 
ATOM      8  C   UNL     1     112.273 127.457 136.096  0.00  0.00    +0.000 A 
ATOM      9  C   UNL     1     111.968 126.691 136.064  0.00  0.00    +0.000 A 
ATOM     10  C   UNL     1     112.104 125.258 136.262  0.00  0.00    +0.000 A 
ATOM     11  C   UNL     1     113.697 125.521 136.818  0.00  0.00    +0.000 A 
ATOM     12  C   UNL     1     112.583 124.589 136.507  0.00  0.00    +0.000 A 
ATOM     13  C   UNL     1     113.385 124.721 136.787  0.00  0.00    +0.000 A 
ENDROOT
BRANCH   6  16
ATOM     14  O   UNL     1     113.451 130.027 137.789  0.00  0.00    +0.000 OA
ATOM     15  O   UNL     1     114.261 130.648 136.493  0.00  0.00    +0.000 OA
ATOM     16  C   UNL     1     113.347 128.349 136.396  0.00  0.00    +0.000 A 
ATOM     17  C   UNL     1     113.753 128.660 135.748  0.00  0.00    +0.000 A 
ATOM     18  C   UNL     1     113.247 128.805 137.077  0.00  0.00    +0.000 A 
ATOM     19  C   UNL     1     114.057 129.426 135.780  0.00  0.00    +0.000 A 
ATOM     20  C   UNL     1     113.552 129.572 137.109  0.00  0.00    +0.000 A 
ATOM     21  C   UNL     1     113.957 129.881 136.461  0.00  0.00    +0.000 A 
BRANCH  19  22
ATOM     22  O   UNL     1     114.462 129.737 135.132  0.00  0.00    +0.000 OA
ATOM     23  C   UNL     1     114.902 129.239 134.643  0.00  0.00    +0.000 C 
ENDBRANCH  19  22
ENDBRANCH   6  16
BRANCH   8  24
ATOM     24  O   UNL     1     111.808 128.096 135.859  0.00  0.00    +0.000 OA
ATOM     25  C   UNL     1     111.179 127.978 135.339  0.00  0.00    +0.000 C 
ENDBRANCH   8  24
BRANCH  12  26
ATOM     26  O   UNL     1     112.276 123.824 136.474  0.00  0.00    +0.000 OA
ATOM     27  C   UNL     1     111.977 123.469 137.157  0.00  0.00    +0.000 C 
ENDBRANCH  12  26
TORSDOF 4
ENDMDL
MODEL 6
REMARK VINA RESULT:      -7.8     12.241     14.351
REMARK  Name = 44258041
REMARK  4 active torsions:
REMARK  status: ('A' for Active; 'I' for Inactive)
REMARK    1  A    between atoms: O_2  and  C_13
REMARK    2  A    between atoms: O_3  and  C_18
REMARK    3  A    between atoms: O_7  and  C_22
REMARK    4  A    between atoms: C_11  and  C_14
REMARK                            x       y       z     vdW  Elec       q    Type
REMARK                         _______ _______ _______ _____ _____    ______ ____
ROOT
ATOM      1  O   UNL     1     113.491 127.280 136.179  0.00  0.00    +0.000 OA
ATOM      2  O   UNL     1     113.324 129.803 137.575  0.00  0.00    +0.000 OA
ATOM      3  O   UNL     1     112.996 128.563 138.236  0.00  0.00    +0.000 OA
ATOM      4  O   UNL     1     114.169 129.743 134.781  0.00  0.00    +0.000 OA
ATOM      5  C   UNL     1     113.409 128.528 136.868  0.00  0.00    +0.000 A 
ATOM      6  C   UNL     1     113.244 126.886 136.860  0.00  0.00    +0.000 A 
ATOM      7  C   UNL     1     113.574 128.100 136.183  0.00  0.00    +0.000 A 
ATOM      8  C   UNL     1     113.078 127.314 137.546  0.00  0.00    +0.000 A 
ATOM      9  C   UNL     1     113.161 128.136 137.550  0.00  0.00    +0.000 A 
ATOM     10  C   UNL     1     113.491 129.384 136.886  0.00  0.00    +0.000 A 
ATOM     11  C   UNL     1     113.833 128.498 135.466  0.00  0.00    +0.000 A 
ATOM     12  C   UNL     1     113.749 129.799 136.179  0.00  0.00    +0.000 A 
ATOM     13  C   UNL     1     113.921 129.353 135.464  0.00  0.00    +0.000 A 
ENDROOT
BRANCH   6  16
ATOM     14  O   UNL     1     114.339 124.286 137.316  0.00  0.00    +0.000 OA
ATOM     15  O   UNL     1     112.913 123.603 136.845  0.00  0.00    +0.000 OA
ATOM     16  C   UNL     1     113.161 126.066 136.856  0.00  0.00    +0.000 A 
ATOM     17  C   UNL     1     112.448 125.723 136.621  0.00  0.00    +0.000 A 
ATOM     18  C   UNL     1     113.791 125.587 137.088  0.00  0.00    +0.000 A 
ATOM     19  C   UNL     1     112.365 124.903 136.617  0.00  0.00    +0.000 A 
ATOM     20  C   UNL     1     113.709 124.765 137.084  0.00  0.00    +0.000 A 
ATOM     21  C   UNL     1     112.996 124.424 136.849  0.00  0.00    +0.000 A 
BRANCH  19  22
ATOM     22  O   UNL     1     111.652 124.561 136.381  0.00  0.00    +0.000 OA
ATOM     23  C   UNL     1     111.147 124.970 135.874  0.00  0.00    +0.000 C 
ENDBRANCH  19  22
ENDBRANCH   6  16
BRANCH   8  24
ATOM     24  O   UNL     1     112.831 126.922 138.228  0.00  0.00    +0.000 OA
ATOM     25  C   UNL     1     112.438 127.336 138.824  0.00  0.00    +0.000 C 
ENDBRANCH   8  24
BRANCH  12  26
ATOM     26  O   UNL     1     113.830 130.620 136.186  0.00  0.00    +0.000 OA
ATOM     27  C   UNL     1     114.582 130.959 136.193  0.00  0.00    +0.000 C 
ENDBRANCH  12  26
TORSDOF 4
ENDMDL
MODEL 7
REMARK VINA RESULT:      -7.8      2.485      3.529
REMARK  Name = 44258041
REMARK  4 active torsions:
REMARK  status: ('A' for Active; 'I' for Inactive)
REMARK    1  A    between atoms: O_2  and  C_13
REMARK    2  A    between atoms: O_3  and  C_18
REMARK    3  A    between atoms: O_7  and  C_22
REMARK    4  A    between atoms: C_11  and  C_14
REMARK                            x       y       z     vdW  Elec       q    Type
REMARK                         _______ _______ _______ _____ _____    ______ ____
ROOT
ATOM      1  O   UNL     1     106.294 124.915 145.981  0.00  0.00    +0.000 OA
ATOM      2  O   UNL     1     106.263 126.975 143.955  0.00  0.00    +0.000 OA
ATOM      3  O   UNL     1     106.739 127.249 145.289  0.00  0.00    +0.000 OA
ATOM      4  O   UNL     1     105.321 124.288 143.309  0.00  0.00    +0.000 OA
ATOM      5  C   UNL     1     106.278 125.933 144.978  0.00  0.00    +0.000 A 
ATOM      6  C   UNL     1     106.606 125.453 146.523  0.00  0.00    +0.000 A 
ATOM      7  C   UNL     1     106.130 125.154 145.209  0.00  0.00    +0.000 A 
ATOM      8  C   UNL     1     106.755 126.231 146.292  0.00  0.00    +0.000 A 
ATOM      9  C   UNL     1     106.590 126.471 145.520  0.00  0.00    +0.000 A 
ATOM     10  C   UNL     1     106.112 126.195 144.176  0.00  0.00    +0.000 A 
ATOM     11  C   UNL     1     105.805 124.584 144.654  0.00  0.00    +0.000 A 
ATOM     12  C   UNL     1     105.787 125.639 143.608  0.00  0.00    +0.000 A 
ATOM     13  C   UNL     1     105.633 124.828 143.848  0.00  0.00    +0.000 A 
ENDROOT
BRANCH   6  16
ATOM     14  O   UNL     1     108.485 124.620 148.509  0.00  0.00    +0.000 OA
ATOM     15  O   UNL     1     107.263 124.494 149.612  0.00  0.00    +0.000 OA
ATOM     16  C   UNL     1     106.770 125.213 147.294  0.00  0.00    +0.000 A 
ATOM     17  C   UNL     1     106.160 125.150 147.846  0.00  0.00    +0.000 A 
ATOM     18  C   UNL     1     107.545 125.037 147.515  0.00  0.00    +0.000 A 
ATOM     19  C   UNL     1     106.324 124.911 148.618  0.00  0.00    +0.000 A 
ATOM     20  C   UNL     1     107.710 124.797 148.288  0.00  0.00    +0.000 A 
ATOM     21  C   UNL     1     107.099 124.734 148.839  0.00  0.00    +0.000 A 
BRANCH  19  22
ATOM     22  O   UNL     1     105.713 124.847 149.169  0.00  0.00    +0.000 OA
ATOM     23  C   UNL     1     104.928 124.892 148.921  0.00  0.00    +0.000 C 
ENDBRANCH  19  22
ENDBRANCH   6  16
BRANCH   8  24
ATOM     24  O   UNL     1     107.067 126.770 146.833  0.00  0.00    +0.000 OA
ATOM     25  C   UNL     1     107.041 127.579 146.673  0.00  0.00    +0.000 C 
ENDBRANCH   8  24
BRANCH  12  26
ATOM     26  O   UNL     1     105.624 125.882 142.837  0.00  0.00    +0.000 OA
ATOM     27  C   UNL     1     106.139 125.681 142.224  0.00  0.00    +0.000 C 
ENDBRANCH  12  26
TORSDOF 4
ENDMDL
MODEL 8
REMARK VINA RESULT:      -7.7      9.781     10.962
REMARK  Name = 44258041
REMARK  4 active torsions:
REMARK  status: ('A' for Active; 'I' for Inactive)
REMARK    1  A    between atoms: O_2  and  C_13
REMARK    2  A    between atoms: O_3  and  C_18
REMARK    3  A    between atoms: O_7  and  C_22
REMARK    4  A    between atoms: C_11  and  C_14
REMARK                            x       y       z     vdW  Elec       q    Type
REMARK                         _______ _______ _______ _____ _____    ______ ____
ROOT
ATOM      1  O   UNL     1     111.472 131.708 145.243  0.00  0.00    +0.000 OA
ATOM      2  O   UNL     1     112.117 132.242 142.479  0.00  0.00    +0.000 OA
ATOM      3  O   UNL     1     111.993 133.315 143.434  0.00  0.00    +0.000 OA
ATOM      4  O   UNL     1     111.707 129.491 143.369  0.00  0.00    +0.000 OA
ATOM      5  C   UNL     1     111.791 131.971 143.876  0.00  0.00    +0.000 A 
ATOM      6  C   UNL     1     111.500 132.517 145.406  0.00  0.00    +0.000 A 
ATOM      7  C   UNL     1     111.617 131.435 144.479  0.00  0.00    +0.000 A 
ATOM      8  C   UNL     1     111.674 133.052 144.803  0.00  0.00    +0.000 A 
ATOM      9  C   UNL     1     111.819 132.779 144.037  0.00  0.00    +0.000 A 
ATOM     10  C   UNL     1     111.945 131.699 143.074  0.00  0.00    +0.000 A 
ATOM     11  C   UNL     1     111.585 130.590 144.323  0.00  0.00    +0.000 A 
ATOM     12  C   UNL     1     111.917 130.859 142.900  0.00  0.00    +0.000 A 
ATOM     13  C   UNL     1     111.736 130.300 143.528  0.00  0.00    +0.000 A 
ENDROOT
BRANCH   6  16
ATOM     14  O   UNL     1     109.720 133.655 147.331  0.00  0.00    +0.000 OA
ATOM     15  O   UNL     1     110.918 133.609 148.465  0.00  0.00    +0.000 OA
ATOM     16  C   UNL     1     111.355 132.790 146.170  0.00  0.00    +0.000 A 
ATOM     17  C   UNL     1     111.953 132.767 146.738  0.00  0.00    +0.000 A 
ATOM     18  C   UNL     1     110.610 133.085 146.368  0.00  0.00    +0.000 A 
ATOM     19  C   UNL     1     111.808 133.040 147.502  0.00  0.00    +0.000 A 
ATOM     20  C   UNL     1     110.465 133.359 147.133  0.00  0.00    +0.000 A 
ATOM     21  C   UNL     1     111.064 133.336 147.700  0.00  0.00    +0.000 A 
BRANCH  19  22
ATOM     22  O   UNL     1     112.406 133.018 148.070  0.00  0.00    +0.000 OA
ATOM     23  C   UNL     1     112.948 132.395 148.073  0.00  0.00    +0.000 C 
ENDBRANCH  19  22
ENDBRANCH   6  16
BRANCH   8  24
ATOM     24  O   UNL     1     111.702 133.861 144.964  0.00  0.00    +0.000 OA
ATOM     25  C   UNL     1     111.982 134.386 144.393  0.00  0.00    +0.000 C 
ENDBRANCH   8  24
BRANCH  12  26
ATOM     26  O   UNL     1     112.063 130.589 142.134  0.00  0.00    +0.000 OA
ATOM     27  C   UNL     1     112.794 130.255 141.947  0.00  0.00    +0.000 C 
ENDBRANCH  12  26
TORSDOF 4
ENDMDL
MODEL 9
REMARK VINA RESULT:      -7.7      9.832     12.145
REMARK  Name = 44258041
REMARK  4 active torsions:
REMARK  status: ('A' for Active; 'I' for Inactive)
REMARK    1  A    between atoms: O_2  and  C_13
REMARK    2  A    between atoms: O_3  and  C_18
REMARK    3  A    between atoms: O_7  and  C_22
REMARK    4  A    between atoms: C_11  and  C_14
REMARK                            x       y       z     vdW  Elec       q    Type
REMARK                         _______ _______ _______ _____ _____    ______ ____
ROOT
ATOM      1  O   UNL     1     113.146 126.673 139.302  0.00  0.00    +0.000 OA
ATOM      2  O   UNL     1     110.607 126.234 140.607  0.00  0.00    +0.000 OA
ATOM      3  O   UNL     1     110.892 125.651 139.319  0.00  0.00    +0.000 OA
ATOM      4  O   UNL     1     112.640 127.881 141.903  0.00  0.00    +0.000 OA
ATOM      5  C   UNL     1     111.891 126.457 139.948  0.00  0.00    +0.000 A 
ATOM      6  C   UNL     1     112.900 126.209 138.666  0.00  0.00    +0.000 A 
ATOM      7  C   UNL     1     112.642 126.797 139.943  0.00  0.00    +0.000 A 
ATOM      8  C   UNL     1     112.148 125.868 138.672  0.00  0.00    +0.000 A 
ATOM      9  C   UNL     1     111.643 125.992 139.313  0.00  0.00    +0.000 A 
ATOM     10  C   UNL     1     111.356 126.578 140.611  0.00  0.00    +0.000 A 
ATOM     11  C   UNL     1     112.911 127.284 140.599  0.00  0.00    +0.000 A 
ATOM     12  C   UNL     1     111.607 127.061 141.275  0.00  0.00    +0.000 A 
ATOM     13  C   UNL     1     112.390 127.416 141.269  0.00  0.00    +0.000 A 
ENDROOT
BRANCH   6  16
ATOM     14  O   UNL     1     114.924 124.660 137.373  0.00  0.00    +0.000 OA
ATOM     15  O   UNL     1     114.917 125.712 136.102  0.00  0.00    +0.000 OA
ATOM     16  C   UNL     1     113.404 126.085 138.026  0.00  0.00    +0.000 A 
ATOM     17  C   UNL     1     113.400 126.611 137.390  0.00  0.00    +0.000 A 
ATOM     18  C   UNL     1     113.911 125.435 138.020  0.00  0.00    +0.000 A 
ATOM     19  C   UNL     1     113.904 126.487 136.749  0.00  0.00    +0.000 A 
ATOM     20  C   UNL     1     114.416 125.310 137.379  0.00  0.00    +0.000 A 
ATOM     21  C   UNL     1     114.412 125.837 136.744  0.00  0.00    +0.000 A 
BRANCH  19  22
ATOM     22  O   UNL     1     113.901 127.012 136.113  0.00  0.00    +0.000 OA
ATOM     23  C   UNL     1     113.715 127.807 136.236  0.00  0.00    +0.000 C 
ENDBRANCH  19  22
ENDBRANCH   6  16
BRANCH   8  24
ATOM     24  O   UNL     1     111.901 125.404 138.037  0.00  0.00    +0.000 OA
ATOM     25  C   UNL     1     111.096 125.297 137.892  0.00  0.00    +0.000 C 
ENDBRANCH   8  24
BRANCH  12  26
ATOM     26  O   UNL     1     111.101 127.183 141.915  0.00  0.00    +0.000 OA
ATOM     27  C   UNL     1     110.702 127.901 141.994  0.00  0.00    +0.000 C 
ENDBRANCH  12  26
TORSDOF 4
ENDMDL
MODEL 10
REMARK VINA RESULT:      -7.7     12.500     13.792
REMARK  Name = 44258041
REMARK  4 active torsions:
REMARK  status: ('A' for Active; 'I' for Inactive)
REMARK    1  A    between atoms: O_2  and  C_13
REMARK    2  A    between atoms: O_3  and  C_18
REMARK    3  A    between atoms: O_7  and  C_22
REMARK    4  A    between atoms: C_11  and  C_14
REMARK                            x       y       z     vdW  Elec       q    Type
REMARK                         _______ _______ _______ _____ _____    ______ ____
ROOT
ATOM      1  O   UNL     1     112.594 127.402 136.234  0.00  0.00    +0.000 OA
ATOM      2  O   UNL     1     110.024 127.281 134.922  0.00  0.00    +0.000 OA
ATOM      3  O   UNL     1     110.629 126.098 135.482  0.00  0.00    +0.000 OA
ATOM      4  O   UNL     1     111.432 129.831 135.126  0.00  0.00    +0.000 OA
ATOM      5  C   UNL     1     111.323 127.343 135.585  0.00  0.00    +0.000 A 
ATOM      6  C   UNL     1     112.556 126.591 136.383  0.00  0.00    +0.000 A 
ATOM      7  C   UNL     1     111.978 127.778 135.836  0.00  0.00    +0.000 A 
ATOM      8  C   UNL     1     111.901 126.156 136.132  0.00  0.00    +0.000 A 
ATOM      9  C   UNL     1     111.284 126.533 135.733  0.00  0.00    +0.000 A 
ATOM     10  C   UNL     1     110.674 127.723 135.169  0.00  0.00    +0.000 A 
ATOM     11  C   UNL     1     112.030 128.623 135.687  0.00  0.00    +0.000 A 
ATOM     12  C   UNL     1     110.708 128.567 135.011  0.00  0.00    +0.000 A 
ATOM     13  C   UNL     1     111.391 129.020 135.273  0.00  0.00    +0.000 A 
ENDROOT
BRANCH   6  16
ATOM     14  O   UNL     1     114.966 125.055 136.328  0.00  0.00    +0.000 OA
ATOM     15  O   UNL     1     115.023 125.085 137.977  0.00  0.00    +0.000 OA
ATOM     16  C   UNL     1     113.172 126.215 136.781  0.00  0.00    +0.000 A 
ATOM     17  C   UNL     1     113.201 126.229 137.605  0.00  0.00    +0.000 A 
ATOM     18  C   UNL     1     113.761 125.823 136.355  0.00  0.00    +0.000 A 
ATOM     19  C   UNL     1     113.817 125.853 138.004  0.00  0.00    +0.000 A 
ATOM     20  C   UNL     1     114.378 125.446 136.754  0.00  0.00    +0.000 A 
ATOM     21  C   UNL     1     114.405 125.462 137.578  0.00  0.00    +0.000 A 
BRANCH  19  22
ATOM     22  O   UNL     1     113.846 125.868 138.828  0.00  0.00    +0.000 OA
ATOM     23  C   UNL     1     113.566 126.526 139.239  0.00  0.00    +0.000 C 
ENDBRANCH  19  22
ENDBRANCH   6  16
BRANCH   8  24
ATOM     24  O   UNL     1     111.862 125.346 136.280  0.00  0.00    +0.000 OA
ATOM     25  C   UNL     1     111.159 124.935 136.148  0.00  0.00    +0.000 C 
ENDBRANCH   8  24
BRANCH  12  26
ATOM     26  O   UNL     1     110.090 128.941 134.613  0.00  0.00    +0.000 OA
ATOM     27  C   UNL     1     109.552 129.407 135.030  0.00  0.00    +0.000 C 
ENDBRANCH  12  26
TORSDOF 4
ENDMDL
