MODEL 1
REMARK VINA RESULT:      -8.0      0.000      0.000
REMARK  Name = 44259870
REMARK  5 active torsions:
REMARK  status: ('A' for Active; 'I' for Inactive)
REMARK    1  A    between atoms: O_2  and  C_12
REMARK    2  A    between atoms: O_3  and  C_13
REMARK    3  A    between atoms: O_4  and  C_16
REMARK    4  A    between atoms: O_7  and  C_21
REMARK    5  A    between atoms: C_11  and  C_15
REMARK                            x       y       z     vdW  Elec       q    Type
REMARK                         _______ _______ _______ _____ _____    ______ ____
ROOT
ATOM      1  O   UNL     1     104.934 124.201 146.695  0.00  0.00    +0.000 OA
ATOM      2  O   UNL     1     103.314 124.769 148.477  0.00  0.00    +0.000 OA
ATOM      3  O   UNL     1     102.840 122.839 145.198  0.00  0.00    +0.000 OA
ATOM      4  C   UNL     1     103.607 124.152 147.223  0.00  0.00    +0.000 A 
ATOM      5  C   UNL     1     104.147 123.963 146.629  0.00  0.00    +0.000 A 
ATOM      6  C   UNL     1     105.181 124.629 147.356  0.00  0.00    +0.000 A 
ATOM      7  C   UNL     1     102.784 123.909 147.164  0.00  0.00    +0.000 A 
ATOM      8  C   UNL     1     104.641 124.818 147.951  0.00  0.00    +0.000 A 
ATOM      9  C   UNL     1     103.854 124.579 147.883  0.00  0.00    +0.000 A 
ATOM     10  C   UNL     1     102.522 123.464 146.479  0.00  0.00    +0.000 A 
ATOM     11  C   UNL     1     103.902 123.518 145.935  0.00  0.00    +0.000 A 
ATOM     12  C   UNL     1     103.084 123.267 145.860  0.00  0.00    +0.000 A 
ENDROOT
BRANCH   6  14
ATOM     13  O   UNL     1     108.330 125.579 147.623  0.00  0.00    +0.000 OA
ATOM     14  C   UNL     1     105.968 124.867 147.423  0.00  0.00    +0.000 A 
ATOM     15  C   UNL     1     106.256 125.479 146.950  0.00  0.00    +0.000 A 
ATOM     16  C   UNL     1     106.468 124.492 147.962  0.00  0.00    +0.000 A 
ATOM     17  C   UNL     1     107.043 125.716 147.018  0.00  0.00    +0.000 A 
ATOM     18  C   UNL     1     107.255 124.730 148.028  0.00  0.00    +0.000 A 
ATOM     19  C   UNL     1     107.543 125.342 147.556  0.00  0.00    +0.000 A 
BRANCH  17  20
ATOM     20  O   UNL     1     107.331 126.329 146.546  0.00  0.00    +0.000 OA
ATOM     21  C   UNL     1     106.895 127.024 146.460  0.00  0.00    +0.000 C 
ENDBRANCH  17  20
ENDBRANCH   6  14
BRANCH   7  22
ATOM     22  O   UNL     1     102.251 124.103 147.764  0.00  0.00    +0.000 OA
ATOM     23  C   UNL     1     102.119 123.575 148.384  0.00  0.00    +0.000 C 
ENDBRANCH   7  22
BRANCH   8  24
ATOM     24  O   UNL     1     104.888 125.245 148.611  0.00  0.00    +0.000 OA
ATOM     25  C   UNL     1     104.383 125.800 148.955  0.00  0.00    +0.000 C 
ENDBRANCH   8  24
BRANCH  10  26
ATOM     26  O   UNL     1     101.734 123.227 146.414  0.00  0.00    +0.000 OA
ATOM     27  C   UNL     1     101.266 123.512 145.798  0.00  0.00    +0.000 C 
ENDBRANCH  10  26
TORSDOF 5
ENDMDL
MODEL 2
REMARK VINA RESULT:      -7.7      1.076      4.724
REMARK  Name = 44259870
REMARK  5 active torsions:
REMARK  status: ('A' for Active; 'I' for Inactive)
REMARK    1  A    between atoms: O_2  and  C_12
REMARK    2  A    between atoms: O_3  and  C_13
REMARK    3  A    between atoms: O_4  and  C_16
REMARK    4  A    between atoms: O_7  and  C_21
REMARK    5  A    between atoms: C_11  and  C_15
REMARK                            x       y       z     vdW  Elec       q    Type
REMARK                         _______ _______ _______ _____ _____    ______ ____
ROOT
ATOM      1  O   UNL     1     104.850 124.112 147.179  0.00  0.00    +0.000 OA
ATOM      2  O   UNL     1     106.038 125.292 145.356  0.00  0.00    +0.000 OA
ATOM      3  O   UNL     1     107.043 124.688 149.006  0.00  0.00    +0.000 OA
ATOM      4  C   UNL     1     105.984 124.846 146.711  0.00  0.00    +0.000 A 
ATOM      5  C   UNL     1     105.588 124.452 147.319  0.00  0.00    +0.000 A 
ATOM      6  C   UNL     1     104.508 124.165 146.429  0.00  0.00    +0.000 A 
ATOM      7  C   UNL     1     106.754 125.204 146.846  0.00  0.00    +0.000 A 
ATOM      8  C   UNL     1     104.904 124.558 145.821  0.00  0.00    +0.000 A 
ATOM      9  C   UNL     1     105.642 124.898 145.963  0.00  0.00    +0.000 A 
ATOM     10  C   UNL     1     107.115 125.152 147.624  0.00  0.00    +0.000 A 
ATOM     11  C   UNL     1     105.935 124.391 148.103  0.00  0.00    +0.000 A 
ATOM     12  C   UNL     1     106.703 124.743 148.256  0.00  0.00    +0.000 A 
ENDROOT
BRANCH   6  14
ATOM     13  O   UNL     1     101.556 122.801 145.866  0.00  0.00    +0.000 OA
ATOM     14  C   UNL     1     103.770 123.825 146.289  0.00  0.00    +0.000 A 
ATOM     15  C   UNL     1     103.082 124.228 146.500  0.00  0.00    +0.000 A 
ATOM     16  C   UNL     1     103.720 123.080 145.936  0.00  0.00    +0.000 A 
ATOM     17  C   UNL     1     102.344 123.886 146.359  0.00  0.00    +0.000 A 
ATOM     18  C   UNL     1     102.982 122.739 145.796  0.00  0.00    +0.000 A 
ATOM     19  C   UNL     1     102.294 123.143 146.007  0.00  0.00    +0.000 A 
BRANCH  17  20
ATOM     20  O   UNL     1     101.656 124.290 146.571  0.00  0.00    +0.000 OA
ATOM     21  C   UNL     1     101.580 124.608 147.328  0.00  0.00    +0.000 C 
ENDBRANCH  17  20
ENDBRANCH   6  14
BRANCH   7  22
ATOM     22  O   UNL     1     107.142 125.595 146.232  0.00  0.00    +0.000 OA
ATOM     23  C   UNL     1     107.011 126.401 146.108  0.00  0.00    +0.000 C 
ENDBRANCH   7  22
BRANCH   8  24
ATOM     24  O   UNL     1     104.561 124.611 145.073  0.00  0.00    +0.000 OA
ATOM     25  C   UNL     1     105.032 124.546 144.399  0.00  0.00    +0.000 C 
ENDBRANCH   8  24
BRANCH  10  26
ATOM     26  O   UNL     1     107.854 125.493 147.762  0.00  0.00    +0.000 OA
ATOM     27  C   UNL     1     108.487 125.024 148.002  0.00  0.00    +0.000 C 
ENDBRANCH  10  26
TORSDOF 5
ENDMDL
MODEL 3
REMARK VINA RESULT:      -7.5      0.969      1.975
REMARK  Name = 44259870
REMARK  5 active torsions:
REMARK  status: ('A' for Active; 'I' for Inactive)
REMARK    1  A    between atoms: O_2  and  C_12
REMARK    2  A    between atoms: O_3  and  C_13
REMARK    3  A    between atoms: O_4  and  C_16
REMARK    4  A    between atoms: O_7  and  C_21
REMARK    5  A    between atoms: C_11  and  C_15
REMARK                            x       y       z     vdW  Elec       q    Type
REMARK                         _______ _______ _______ _____ _____    ______ ____
ROOT
ATOM      1  O   UNL     1     104.727 125.067 147.283  0.00  0.00    +0.000 OA
ATOM      2  O   UNL     1     104.329 123.874 145.151  0.00  0.00    +0.000 OA
ATOM      3  O   UNL     1     102.027 124.427 148.168  0.00  0.00    +0.000 OA
ATOM      4  C   UNL     1     103.865 124.311 146.430  0.00  0.00    +0.000 A 
ATOM      5  C   UNL     1     103.998 124.709 147.140  0.00  0.00    +0.000 A 
ATOM      6  C   UNL     1     105.324 125.028 146.714  0.00  0.00    +0.000 A 
ATOM      7  C   UNL     1     103.109 123.934 146.270  0.00  0.00    +0.000 A 
ATOM      8  C   UNL     1     105.191 124.630 146.004  0.00  0.00    +0.000 A 
ATOM      9  C   UNL     1     104.461 124.272 145.862  0.00  0.00    +0.000 A 
ATOM     10  C   UNL     1     102.484 123.972 146.858  0.00  0.00    +0.000 A 
ATOM     11  C   UNL     1     103.384 124.757 147.740  0.00  0.00    +0.000 A 
ATOM     12  C   UNL     1     102.622 124.386 147.598  0.00  0.00    +0.000 A 
ENDROOT
BRANCH   6  14
ATOM     13  O   UNL     1     108.241 126.460 147.286  0.00  0.00    +0.000 OA
ATOM     14  C   UNL     1     106.053 125.386 146.857  0.00  0.00    +0.000 A 
ATOM     15  C   UNL     1     106.172 126.176 146.651  0.00  0.00    +0.000 A 
ATOM     16  C   UNL     1     106.663 124.954 147.206  0.00  0.00    +0.000 A 
ATOM     17  C   UNL     1     106.902 126.534 146.794  0.00  0.00    +0.000 A 
ATOM     18  C   UNL     1     107.392 125.312 147.349  0.00  0.00    +0.000 A 
ATOM     19  C   UNL     1     107.512 126.102 147.143  0.00  0.00    +0.000 A 
BRANCH  17  20
ATOM     20  O   UNL     1     107.021 127.323 146.588  0.00  0.00    +0.000 OA
ATOM     21  C   UNL     1     106.426 127.879 146.720  0.00  0.00    +0.000 C 
ENDBRANCH  17  20
ENDBRANCH   6  14
BRANCH   7  22
ATOM     22  O   UNL     1     102.986 123.538 145.557  0.00  0.00    +0.000 OA
ATOM     23  C   UNL     1     103.183 122.740 145.488  0.00  0.00    +0.000 C 
ENDBRANCH   7  22
BRANCH   8  24
ATOM     24  O   UNL     1     105.787 124.591 145.436  0.00  0.00    +0.000 OA
ATOM     25  C   UNL     1     105.593 124.584 144.634  0.00  0.00    +0.000 C 
ENDBRANCH   8  24
BRANCH  10  26
ATOM     26  O   UNL     1     101.756 123.612 146.713  0.00  0.00    +0.000 OA
ATOM     27  C   UNL     1     101.065 124.063 146.716  0.00  0.00    +0.000 C 
ENDBRANCH  10  26
TORSDOF 5
ENDMDL
MODEL 4
REMARK VINA RESULT:      -7.5     12.603     14.343
REMARK  Name = 44259870
REMARK  5 active torsions:
REMARK  status: ('A' for Active; 'I' for Inactive)
REMARK    1  A    between atoms: O_2  and  C_12
REMARK    2  A    between atoms: O_3  and  C_13
REMARK    3  A    between atoms: O_4  and  C_16
REMARK    4  A    between atoms: O_7  and  C_21
REMARK    5  A    between atoms: C_11  and  C_15
REMARK                            x       y       z     vdW  Elec       q    Type
REMARK                         _______ _______ _______ _____ _____    ______ ____
ROOT
ATOM      1  O   UNL     1     113.826 127.483 136.486  0.00  0.00    +0.000 OA
ATOM      2  O   UNL     1     111.464 127.201 135.804  0.00  0.00    +0.000 OA
ATOM      3  O   UNL     1     113.895 124.737 137.454  0.00  0.00    +0.000 OA
ATOM      4  C   UNL     1     112.657 126.668 136.381  0.00  0.00    +0.000 A 
ATOM      5  C   UNL     1     113.445 126.762 136.608  0.00  0.00    +0.000 A 
ATOM      6  C   UNL     1     113.420 128.111 136.136  0.00  0.00    +0.000 A 
ATOM      7  C   UNL     1     112.249 125.921 136.504  0.00  0.00    +0.000 A 
ATOM      8  C   UNL     1     112.632 128.016 135.908  0.00  0.00    +0.000 A 
ATOM      9  C   UNL     1     112.251 127.295 136.031  0.00  0.00    +0.000 A 
ATOM     10  C   UNL     1     112.667 125.265 136.867  0.00  0.00    +0.000 A 
ATOM     11  C   UNL     1     113.878 126.116 136.974  0.00  0.00    +0.000 A 
ATOM     12  C   UNL     1     113.487 125.363 137.104  0.00  0.00    +0.000 A 
ENDROOT
BRANCH   6  14
ATOM     13  O   UNL     1     114.948 130.994 135.644  0.00  0.00    +0.000 OA
ATOM     14  C   UNL     1     113.802 128.831 136.013  0.00  0.00    +0.000 A 
ATOM     15  C   UNL     1     113.743 129.431 136.577  0.00  0.00    +0.000 A 
ATOM     16  C   UNL     1     114.243 128.953 135.326  0.00  0.00    +0.000 A 
ATOM     17  C   UNL     1     114.125 130.152 136.453  0.00  0.00    +0.000 A 
ATOM     18  C   UNL     1     114.625 129.673 135.204  0.00  0.00    +0.000 A 
ATOM     19  C   UNL     1     114.566 130.273 135.767  0.00  0.00    +0.000 A 
BRANCH  17  20
ATOM     20  O   UNL     1     114.066 130.751 137.017  0.00  0.00    +0.000 OA
ATOM     21  C   UNL     1     114.087 130.566 137.820  0.00  0.00    +0.000 C 
ENDBRANCH  17  20
ENDBRANCH   6  14
BRANCH   7  22
ATOM     22  O   UNL     1     111.461 125.837 136.273  0.00  0.00    +0.000 OA
ATOM     23  C   UNL     1     110.856 125.970 136.818  0.00  0.00    +0.000 C 
ENDBRANCH   7  22
BRANCH   8  24
ATOM     24  O   UNL     1     112.227 128.643 135.559  0.00  0.00    +0.000 OA
ATOM     25  C   UNL     1     111.665 128.495 134.973  0.00  0.00    +0.000 C 
ENDBRANCH   8  24
BRANCH  10  26
ATOM     26  O   UNL     1     112.283 124.545 136.989  0.00  0.00    +0.000 OA
ATOM     27  C   UNL     1     112.575 123.857 136.640  0.00  0.00    +0.000 C 
ENDBRANCH  10  26
TORSDOF 5
ENDMDL
MODEL 5
REMARK VINA RESULT:      -7.5     12.279     13.588
REMARK  Name = 44259870
REMARK  5 active torsions:
REMARK  status: ('A' for Active; 'I' for Inactive)
REMARK    1  A    between atoms: O_2  and  C_12
REMARK    2  A    between atoms: O_3  and  C_13
REMARK    3  A    between atoms: O_4  and  C_16
REMARK    4  A    between atoms: O_7  and  C_21
REMARK    5  A    between atoms: C_11  and  C_15
REMARK                            x       y       z     vdW  Elec       q    Type
REMARK                         _______ _______ _______ _____ _____    ______ ____
ROOT
ATOM      1  O   UNL     1     112.578 126.995 136.159  0.00  0.00    +0.000 OA
ATOM      2  O   UNL     1     110.481 125.700 135.932  0.00  0.00    +0.000 OA
ATOM      3  O   UNL     1     111.362 129.246 134.768  0.00  0.00    +0.000 OA
ATOM      4  C   UNL     1     111.227 126.897 135.704  0.00  0.00    +0.000 A 
ATOM      5  C   UNL     1     111.926 127.329 135.780  0.00  0.00    +0.000 A 
ATOM      6  C   UNL     1     112.531 126.229 136.464  0.00  0.00    +0.000 A 
ATOM      7  C   UNL     1     110.541 127.234 135.310  0.00  0.00    +0.000 A 
ATOM      8  C   UNL     1     111.832 125.797 136.388  0.00  0.00    +0.000 A 
ATOM      9  C   UNL     1     111.180 126.132 136.008  0.00  0.00    +0.000 A 
ATOM     10  C   UNL     1     110.584 128.031 134.992  0.00  0.00    +0.000 A 
ATOM     11  C   UNL     1     111.987 128.127 135.467  0.00  0.00    +0.000 A 
ATOM     12  C   UNL     1     111.312 128.480 135.071  0.00  0.00    +0.000 A 
ENDROOT
BRANCH   6  14
ATOM     13  O   UNL     1     115.141 124.894 137.980  0.00  0.00    +0.000 OA
ATOM     14  C   UNL     1     113.183 125.896 136.843  0.00  0.00    +0.000 A 
ATOM     15  C   UNL     1     113.357 126.102 137.623  0.00  0.00    +0.000 A 
ATOM     16  C   UNL     1     113.662 125.356 136.442  0.00  0.00    +0.000 A 
ATOM     17  C   UNL     1     114.010 125.768 138.001  0.00  0.00    +0.000 A 
ATOM     18  C   UNL     1     114.314 125.023 136.821  0.00  0.00    +0.000 A 
ATOM     19  C   UNL     1     114.488 125.229 137.601  0.00  0.00    +0.000 A 
BRANCH  17  20
ATOM     20  O   UNL     1     114.184 125.973 138.781  0.00  0.00    +0.000 OA
ATOM     21  C   UNL     1     113.677 126.472 139.200  0.00  0.00    +0.000 C 
ENDBRANCH  17  20
ENDBRANCH   6  14
BRANCH   7  22
ATOM     22  O   UNL     1     109.847 126.795 135.239  0.00  0.00    +0.000 OA
ATOM     23  C   UNL     1     109.763 126.253 134.622  0.00  0.00    +0.000 C 
ENDBRANCH   7  22
BRANCH   8  24
ATOM     24  O   UNL     1     111.785 125.033 136.691  0.00  0.00    +0.000 OA
ATOM     25  C   UNL     1     111.122 124.800 137.123  0.00  0.00    +0.000 C 
ENDBRANCH   8  24
BRANCH  10  26
ATOM     26  O   UNL     1     109.931 128.362 134.613  0.00  0.00    +0.000 OA
ATOM     27  C   UNL     1     109.605 129.067 134.891  0.00  0.00    +0.000 C 
ENDBRANCH  10  26
TORSDOF 5
ENDMDL
MODEL 6
REMARK VINA RESULT:      -7.4     12.301     14.316
REMARK  Name = 44259870
REMARK  5 active torsions:
REMARK  status: ('A' for Active; 'I' for Inactive)
REMARK    1  A    between atoms: O_2  and  C_12
REMARK    2  A    between atoms: O_3  and  C_13
REMARK    3  A    between atoms: O_4  and  C_16
REMARK    4  A    between atoms: O_7  and  C_21
REMARK    5  A    between atoms: C_11  and  C_15
REMARK                            x       y       z     vdW  Elec       q    Type
REMARK                         _______ _______ _______ _____ _____    ______ ____
ROOT
ATOM      1  O   UNL     1     113.372 127.250 136.134  0.00  0.00    +0.000 OA
ATOM      2  O   UNL     1     112.944 128.443 138.259  0.00  0.00    +0.000 OA
ATOM      3  O   UNL     1     114.255 129.733 134.895  0.00  0.00    +0.000 OA
ATOM      4  C   UNL     1     113.373 128.458 136.897  0.00  0.00    +0.000 A 
ATOM      5  C   UNL     1     113.516 128.060 136.189  0.00  0.00    +0.000 A 
ATOM      6  C   UNL     1     113.085 126.837 136.789  0.00  0.00    +0.000 A 
ATOM      7  C   UNL     1     113.520 129.302 136.966  0.00  0.00    +0.000 A 
ATOM      8  C   UNL     1     112.942 127.235 137.497  0.00  0.00    +0.000 A 
ATOM      9  C   UNL     1     113.087 128.045 137.551  0.00  0.00    +0.000 A 
ATOM     10  C   UNL     1     113.819 129.737 136.289  0.00  0.00    +0.000 A 
ATOM     11  C   UNL     1     113.815 128.479 135.500  0.00  0.00    +0.000 A 
ATOM     12  C   UNL     1     113.968 129.323 135.551  0.00  0.00    +0.000 A 
ENDROOT
BRANCH   6  14
ATOM     13  O   UNL     1     112.511 123.595 136.569  0.00  0.00    +0.000 OA
ATOM     14  C   UNL     1     112.941 126.027 136.734  0.00  0.00    +0.000 A 
ATOM     15  C   UNL     1     112.200 125.754 136.492  0.00  0.00    +0.000 A 
ATOM     16  C   UNL     1     113.538 125.488 136.921  0.00  0.00    +0.000 A 
ATOM     17  C   UNL     1     112.057 124.943 136.437  0.00  0.00    +0.000 A 
ATOM     18  C   UNL     1     113.394 124.678 136.866  0.00  0.00    +0.000 A 
ATOM     19  C   UNL     1     112.653 124.406 136.624  0.00  0.00    +0.000 A 
BRANCH  17  20
ATOM     20  O   UNL     1     111.317 124.671 136.195  0.00  0.00    +0.000 OA
ATOM     21  C   UNL     1     110.860 125.122 135.678  0.00  0.00    +0.000 C 
ENDBRANCH  17  20
ENDBRANCH   6  14
BRANCH   7  22
ATOM     22  O   UNL     1     113.374 129.691 137.679  0.00  0.00    +0.000 OA
ATOM     23  C   UNL     1     112.643 130.051 137.811  0.00  0.00    +0.000 C 
ENDBRANCH   7  22
BRANCH   8  24
ATOM     24  O   UNL     1     112.655 126.822 138.151  0.00  0.00    +0.000 OA
ATOM     25  C   UNL     1     112.900 127.031 138.910  0.00  0.00    +0.000 C 
ENDBRANCH   8  24
BRANCH  10  26
ATOM     26  O   UNL     1     113.963 130.548 136.346  0.00  0.00    +0.000 OA
ATOM     27  C   UNL     1     114.716 130.845 136.192  0.00  0.00    +0.000 C 
ENDBRANCH  10  26
TORSDOF 5
ENDMDL
MODEL 7
REMARK VINA RESULT:      -7.4      2.527      3.776
REMARK  Name = 44259870
REMARK  5 active torsions:
REMARK  status: ('A' for Active; 'I' for Inactive)
REMARK    1  A    between atoms: O_2  and  C_12
REMARK    2  A    between atoms: O_3  and  C_13
REMARK    3  A    between atoms: O_4  and  C_16
REMARK    4  A    between atoms: O_7  and  C_21
REMARK    5  A    between atoms: C_11  and  C_15
REMARK                            x       y       z     vdW  Elec       q    Type
REMARK                         _______ _______ _______ _____ _____    ______ ____
ROOT
ATOM      1  O   UNL     1     106.390 124.884 146.038  0.00  0.00    +0.000 OA
ATOM      2  O   UNL     1     106.793 127.224 145.341  0.00  0.00    +0.000 OA
ATOM      3  O   UNL     1     105.283 124.273 143.414  0.00  0.00    +0.000 OA
ATOM      4  C   UNL     1     106.321 125.909 145.045  0.00  0.00    +0.000 A 
ATOM      5  C   UNL     1     106.186 125.129 145.277  0.00  0.00    +0.000 A 
ATOM      6  C   UNL     1     106.728 125.420 146.567  0.00  0.00    +0.000 A 
ATOM      7  C   UNL     1     106.113 126.176 144.254  0.00  0.00    +0.000 A 
ATOM      8  C   UNL     1     106.862 126.200 146.335  0.00  0.00    +0.000 A 
ATOM      9  C   UNL     1     106.658 126.444 145.574  0.00  0.00    +0.000 A 
ATOM     10  C   UNL     1     105.761 125.623 143.699  0.00  0.00    +0.000 A 
ATOM     11  C   UNL     1     105.835 124.562 144.735  0.00  0.00    +0.000 A 
ATOM     12  C   UNL     1     105.621 124.811 143.941  0.00  0.00    +0.000 A 
ENDROOT
BRANCH   6  14
ATOM     13  O   UNL     1     107.544 124.438 149.611  0.00  0.00    +0.000 OA
ATOM     14  C   UNL     1     106.931 125.174 147.328  0.00  0.00    +0.000 A 
ATOM     15  C   UNL     1     106.342 125.047 147.892  0.00  0.00    +0.000 A 
ATOM     16  C   UNL     1     107.724 125.056 147.525  0.00  0.00    +0.000 A 
ATOM     17  C   UNL     1     106.547 124.802 148.653  0.00  0.00    +0.000 A 
ATOM     18  C   UNL     1     107.927 124.811 148.286  0.00  0.00    +0.000 A 
ATOM     19  C   UNL     1     107.339 124.684 148.850  0.00  0.00    +0.000 A 
BRANCH  17  20
ATOM     20  O   UNL     1     105.959 124.674 149.217  0.00  0.00    +0.000 OA
ATOM     21  C   UNL     1     105.276 125.137 149.213  0.00  0.00    +0.000 C 
ENDBRANCH  17  20
ENDBRANCH   6  14
BRANCH   7  22
ATOM     22  O   UNL     1     106.251 126.958 144.031  0.00  0.00    +0.000 OA
ATOM     23  C   UNL     1     105.638 127.510 144.060  0.00  0.00    +0.000 C 
ENDBRANCH   7  22
BRANCH   8  24
ATOM     24  O   UNL     1     107.200 126.735 146.864  0.00  0.00    +0.000 OA
ATOM     25  C   UNL     1     107.059 127.543 146.778  0.00  0.00    +0.000 C 
ENDBRANCH   8  24
BRANCH  10  26
ATOM     26  O   UNL     1     105.558 125.871 142.939  0.00  0.00    +0.000 OA
ATOM     27  C   UNL     1     105.927 125.533 142.283  0.00  0.00    +0.000 C 
ENDBRANCH  10  26
TORSDOF 5
ENDMDL
MODEL 8
REMARK VINA RESULT:      -7.3     12.468     13.505
REMARK  Name = 44259870
REMARK  5 active torsions:
REMARK  status: ('A' for Active; 'I' for Inactive)
REMARK    1  A    between atoms: O_2  and  C_12
REMARK    2  A    between atoms: O_3  and  C_13
REMARK    3  A    between atoms: O_4  and  C_16
REMARK    4  A    between atoms: O_7  and  C_21
REMARK    5  A    between atoms: C_11  and  C_15
REMARK                            x       y       z     vdW  Elec       q    Type
REMARK                         _______ _______ _______ _____ _____    ______ ____
ROOT
ATOM      1  O   UNL     1     111.253 127.010 136.711  0.00  0.00    +0.000 OA
ATOM      2  O   UNL     1     111.103 124.782 135.643  0.00  0.00    +0.000 OA
ATOM      3  O   UNL     1     113.687 126.204 138.093  0.00  0.00    +0.000 OA
ATOM      4  C   UNL     1     111.774 125.694 136.514  0.00  0.00    +0.000 A 
ATOM      5  C   UNL     1     111.824 126.436 136.870  0.00  0.00    +0.000 A 
ATOM      6  C   UNL     1     110.631 126.840 136.196  0.00  0.00    +0.000 A 
ATOM      7  C   UNL     1     112.364 125.088 136.672  0.00  0.00    +0.000 A 
ATOM      8  C   UNL     1     110.581 126.097 135.840  0.00  0.00    +0.000 A 
ATOM      9  C   UNL     1     111.153 125.525 135.999  0.00  0.00    +0.000 A 
ATOM     10  C   UNL     1     113.014 125.259 137.207  0.00  0.00    +0.000 A 
ATOM     11  C   UNL     1     112.468 126.625 137.408  0.00  0.00    +0.000 A 
ATOM     12  C   UNL     1     113.066 126.032 137.578  0.00  0.00    +0.000 A 
ENDROOT
BRANCH   6  14
ATOM     13  O   UNL     1     108.343 129.133 135.563  0.00  0.00    +0.000 OA
ATOM     14  C   UNL     1     110.060 127.413 136.037  0.00  0.00    +0.000 A 
ATOM     15  C   UNL     1     110.211 128.005 135.483  0.00  0.00    +0.000 A 
ATOM     16  C   UNL     1     109.335 127.394 136.433  0.00  0.00    +0.000 A 
ATOM     17  C   UNL     1     109.639 128.578 135.325  0.00  0.00    +0.000 A 
ATOM     18  C   UNL     1     108.764 127.968 136.275  0.00  0.00    +0.000 A 
ATOM     19  C   UNL     1     108.916 128.560 135.721  0.00  0.00    +0.000 A 
BRANCH  17  20
ATOM     20  O   UNL     1     109.791 129.171 134.771  0.00  0.00    +0.000 OA
ATOM     21  C   UNL     1     110.513 129.569 134.780  0.00  0.00    +0.000 C 
ENDBRANCH  17  20
ENDBRANCH   6  14
BRANCH   7  22
ATOM     22  O   UNL     1     112.306 124.349 136.311  0.00  0.00    +0.000 OA
ATOM     23  C   UNL     1     111.919 123.731 136.698  0.00  0.00    +0.000 C 
ENDBRANCH   7  22
BRANCH   8  24
ATOM     24  O   UNL     1     109.959 125.928 135.325  0.00  0.00    +0.000 OA
ATOM     25  C   UNL     1     110.108 125.541 134.612  0.00  0.00    +0.000 C 
ENDBRANCH   8  24
BRANCH  10  26
ATOM     26  O   UNL     1     113.584 124.684 137.365  0.00  0.00    +0.000 OA
ATOM     27  C   UNL     1     114.380 124.841 137.217  0.00  0.00    +0.000 C 
ENDBRANCH  10  26
TORSDOF 5
ENDMDL
MODEL 9
REMARK VINA RESULT:      -7.2     11.120     13.228
REMARK  Name = 44259870
REMARK  5 active torsions:
REMARK  status: ('A' for Active; 'I' for Inactive)
REMARK    1  A    between atoms: O_2  and  C_12
REMARK    2  A    between atoms: O_3  and  C_13
REMARK    3  A    between atoms: O_4  and  C_16
REMARK    4  A    between atoms: O_7  and  C_21
REMARK    5  A    between atoms: C_11  and  C_15
REMARK                            x       y       z     vdW  Elec       q    Type
REMARK                         _______ _______ _______ _____ _____    ______ ____
ROOT
ATOM      1  O   UNL     1     110.014 126.944 136.246  0.00  0.00    +0.000 OA
ATOM      2  O   UNL     1     111.721 128.633 135.648  0.00  0.00    +0.000 OA
ATOM      3  O   UNL     1     107.897 128.882 135.757  0.00  0.00    +0.000 OA
ATOM      4  C   UNL     1     110.352 128.267 135.826  0.00  0.00    +0.000 A 
ATOM      5  C   UNL     1     109.783 127.704 136.025  0.00  0.00    +0.000 A 
ATOM      6  C   UNL     1     110.816 126.746 136.267  0.00  0.00    +0.000 A 
ATOM      7  C   UNL     1     110.123 129.063 135.594  0.00  0.00    +0.000 A 
ATOM      8  C   UNL     1     111.385 127.309 136.068  0.00  0.00    +0.000 A 
ATOM      9  C   UNL     1     111.152 128.070 135.847  0.00  0.00    +0.000 A 
ATOM     10  C   UNL     1     109.291 129.274 135.570  0.00  0.00    +0.000 A 
ATOM     11  C   UNL     1     108.946 127.898 136.006  0.00  0.00    +0.000 A 
ATOM     12  C   UNL     1     108.698 128.688 135.777  0.00  0.00    +0.000 A 
ENDROOT
BRANCH   6  14
ATOM     13  O   UNL     1     111.740 123.703 137.148  0.00  0.00    +0.000 OA
ATOM     14  C   UNL     1     111.047 125.986 136.488  0.00  0.00    +0.000 A 
ATOM     15  C   UNL     1     111.079 125.779 137.286  0.00  0.00    +0.000 A 
ATOM     16  C   UNL     1     111.246 125.431 135.909  0.00  0.00    +0.000 A 
ATOM     17  C   UNL     1     111.310 125.018 137.505  0.00  0.00    +0.000 A 
ATOM     18  C   UNL     1     111.477 124.671 136.130  0.00  0.00    +0.000 A 
ATOM     19  C   UNL     1     111.509 124.464 136.928  0.00  0.00    +0.000 A 
BRANCH  17  20
ATOM     20  O   UNL     1     111.342 124.811 138.303  0.00  0.00    +0.000 OA
ATOM     21  C   UNL     1     111.020 125.313 138.873  0.00  0.00    +0.000 C 
ENDBRANCH  17  20
ENDBRANCH   6  14
BRANCH   7  22
ATOM     22  O   UNL     1     110.699 129.619 135.396  0.00  0.00    +0.000 OA
ATOM     23  C   UNL     1     110.943 129.699 134.612  0.00  0.00    +0.000 C 
ENDBRANCH   7  22
BRANCH   8  24
ATOM     24  O   UNL     1     112.185 127.112 136.089  0.00  0.00    +0.000 OA
ATOM     25  C   UNL     1     112.740 127.670 136.337  0.00  0.00    +0.000 C 
ENDBRANCH   8  24
BRANCH  10  26
ATOM     26  O   UNL     1     109.062 130.035 135.349  0.00  0.00    +0.000 OA
ATOM     27  C   UNL     1     108.638 130.508 135.875  0.00  0.00    +0.000 C 
ENDBRANCH  10  26
TORSDOF 5
ENDMDL
MODEL 10
REMARK VINA RESULT:      -7.1     12.571     14.535
REMARK  Name = 44259870
REMARK  5 active torsions:
REMARK  status: ('A' for Active; 'I' for Inactive)
REMARK    1  A    between atoms: O_2  and  C_12
REMARK    2  A    between atoms: O_3  and  C_13
REMARK    3  A    between atoms: O_4  and  C_16
REMARK    4  A    between atoms: O_7  and  C_21
REMARK    5  A    between atoms: C_11  and  C_15
REMARK                            x       y       z     vdW  Elec       q    Type
REMARK                         _______ _______ _______ _____ _____    ______ ____
ROOT
ATOM      1  O   UNL     1     112.364 127.921 135.442  0.00  0.00    +0.000 OA
ATOM      2  O   UNL     1     111.687 129.270 137.403  0.00  0.00    +0.000 OA
ATOM      3  O   UNL     1     114.892 129.360 135.300  0.00  0.00    +0.000 OA
ATOM      4  C   UNL     1     112.644 128.951 136.392  0.00  0.00    +0.000 A 
ATOM      5  C   UNL     1     112.870 128.501 135.738  0.00  0.00    +0.000 A 
ATOM      6  C   UNL     1     111.632 127.790 135.800  0.00  0.00    +0.000 A 
ATOM      7  C   UNL     1     113.162 129.559 136.709  0.00  0.00    +0.000 A 
ATOM      8  C   UNL     1     111.406 128.240 136.454  0.00  0.00    +0.000 A 
ATOM      9  C   UNL     1     111.913 128.820 136.749  0.00  0.00    +0.000 A 
ATOM     10  C   UNL     1     113.925 129.700 136.340  0.00  0.00    +0.000 A 
ATOM     11  C   UNL     1     113.630 128.629 135.356  0.00  0.00    +0.000 A 
ATOM     12  C   UNL     1     114.160 129.232 135.660  0.00  0.00    +0.000 A 
ENDROOT
BRANCH   6  14
ATOM     13  O   UNL     1     109.609 125.469 134.613  0.00  0.00    +0.000 OA
ATOM     14  C   UNL     1     111.127 127.209 135.504  0.00  0.00    +0.000 A 
ATOM     15  C   UNL     1     111.168 126.438 135.794  0.00  0.00    +0.000 A 
ATOM     16  C   UNL     1     110.578 127.400 134.917  0.00  0.00    +0.000 A 
ATOM     17  C   UNL     1     110.662 125.858 135.497  0.00  0.00    +0.000 A 
ATOM     18  C   UNL     1     110.073 126.820 134.620  0.00  0.00    +0.000 A 
ATOM     19  C   UNL     1     110.115 126.049 134.910  0.00  0.00    +0.000 A 
BRANCH  17  20
ATOM     20  O   UNL     1     110.704 125.087 135.787  0.00  0.00    +0.000 OA
ATOM     21  C   UNL     1     111.399 124.815 136.138  0.00  0.00    +0.000 C 
ENDBRANCH  17  20
ENDBRANCH   6  14
BRANCH   7  22
ATOM     22  O   UNL     1     112.928 130.004 137.363  0.00  0.00    +0.000 OA
ATOM     23  C   UNL     1     113.139 129.761 138.124  0.00  0.00    +0.000 C 
ENDBRANCH   7  22
BRANCH   8  24
ATOM     24  O   UNL     1     110.675 128.109 136.811  0.00  0.00    +0.000 OA
ATOM     25  C   UNL     1     110.263 128.738 137.149  0.00  0.00    +0.000 C 
ENDBRANCH   8  24
BRANCH  10  26
ATOM     26  O   UNL     1     114.429 130.281 136.638  0.00  0.00    +0.000 OA
ATOM     27  C   UNL     1     114.670 130.906 136.157  0.00  0.00    +0.000 C 
ENDBRANCH  10  26
TORSDOF 5
ENDMDL
