MODEL 1
REMARK VINA RESULT:      -7.5      0.000      0.000
REMARK  Name = 3084508
REMARK  5 active torsions:
REMARK  status: ('A' for Active; 'I' for Inactive)
REMARK    1  A    between atoms: O_2  and  C_12
REMARK    2  A    between atoms: O_3  and  C_15
REMARK    3  A    between atoms: O_4  and  C_17
REMARK    4  A    between atoms: O_7  and  C_24
REMARK    5  A    between atoms: C_13  and  C_18
REMARK                            x       y       z     vdW  Elec       q    Type
REMARK                         _______ _______ _______ _____ _____    ______ ____
ROOT
ATOM      1  O   UNL     1     110.581 127.552 136.504  0.00  0.00    +0.000 OA
ATOM      2  O   UNL     1     108.150 128.977 135.843  0.00  0.00    +0.000 OA
ATOM      3  O   UNL     1     108.104 127.541 135.979  0.00  0.00    +0.000 OA
ATOM      4  C   UNL     1     109.351 128.275 136.169  0.00  0.00    +0.000 A 
ATOM      5  C   UNL     1     110.158 128.282 136.340  0.00  0.00    +0.000 A 
ATOM      6  C   UNL     1     110.571 128.997 136.356  0.00  0.00    +0.000 A 
ATOM      7  C   UNL     1     110.156 126.805 136.489  0.00  0.00    +0.000 A 
ATOM      8  C   UNL     1     108.957 128.984 136.014  0.00  0.00    +0.000 A 
ATOM      9  C   UNL     1     110.176 129.704 136.200  0.00  0.00    +0.000 A 
ATOM     10  C   UNL     1     108.911 127.538 136.150  0.00  0.00    +0.000 A 
ATOM     11  C   UNL     1     109.369 129.698 136.030  0.00  0.00    +0.000 A 
ATOM     12  C   UNL     1     109.316 126.798 136.311  0.00  0.00    +0.000 A 
ENDROOT
BRANCH   7  15
ATOM     13  O   UNL     1     111.434 124.426 135.552  0.00  0.00    +0.000 OA
ATOM     14  O   UNL     1     111.266 124.948 138.357  0.00  0.00    +0.000 OA
ATOM     15  C   UNL     1     110.555 126.099 136.645  0.00  0.00    +0.000 A 
ATOM     16  C   UNL     1     110.712 125.876 137.423  0.00  0.00    +0.000 A 
ATOM     17  C   UNL     1     110.796 125.615 136.021  0.00  0.00    +0.000 A 
ATOM     18  C   UNL     1     111.194 124.909 136.176  0.00  0.00    +0.000 A 
ATOM     19  C   UNL     1     111.109 125.171 137.579  0.00  0.00    +0.000 A 
ATOM     20  C   UNL     1     111.351 124.687 136.955  0.00  0.00    +0.000 A 
BRANCH  20  21
ATOM     21  O   UNL     1     111.748 123.982 137.110  0.00  0.00    +0.000 OA
ATOM     22  C   UNL     1     112.568 123.944 137.031  0.00  0.00    +0.000 C 
ENDBRANCH  20  21
ENDBRANCH   7  15
BRANCH   6  23
ATOM     23  O   UNL     1     111.378 129.004 136.527  0.00  0.00    +0.000 OA
ATOM     24  C   UNL     1     111.928 129.076 135.916  0.00  0.00    +0.000 C 
ENDBRANCH   6  23
BRANCH   9  25
ATOM     25  O   UNL     1     110.589 130.419 136.216  0.00  0.00    +0.000 OA
ATOM     26  C   UNL     1     110.629 130.856 136.915  0.00  0.00    +0.000 C 
ENDBRANCH   9  25
BRANCH  11  27
ATOM     27  O   UNL     1     108.975 130.406 135.874  0.00  0.00    +0.000 OA
ATOM     28  C   UNL     1     108.839 130.641 135.096  0.00  0.00    +0.000 C 
ENDBRANCH  11  27
TORSDOF 5
ENDMDL
MODEL 2
REMARK VINA RESULT:      -7.5      6.321      7.409
REMARK  Name = 3084508
REMARK  5 active torsions:
REMARK  status: ('A' for Active; 'I' for Inactive)
REMARK    1  A    between atoms: O_2  and  C_12
REMARK    2  A    between atoms: O_3  and  C_15
REMARK    3  A    between atoms: O_4  and  C_17
REMARK    4  A    between atoms: O_7  and  C_24
REMARK    5  A    between atoms: C_13  and  C_18
REMARK                            x       y       z     vdW  Elec       q    Type
REMARK                         _______ _______ _______ _____ _____    ______ ____
ROOT
ATOM      1  O   UNL     1     105.782 125.773 141.318  0.00  0.00    +0.000 OA
ATOM      2  O   UNL     1     108.465 126.461 142.156  0.00  0.00    +0.000 OA
ATOM      3  O   UNL     1     108.275 125.332 141.277  0.00  0.00    +0.000 OA
ATOM      4  C   UNL     1     107.139 126.123 141.743  0.00  0.00    +0.000 A 
ATOM      5  C   UNL     1     106.327 126.269 141.758  0.00  0.00    +0.000 A 
ATOM      6  C   UNL     1     106.029 126.899 142.201  0.00  0.00    +0.000 A 
ATOM      7  C   UNL     1     106.086 125.115 140.855  0.00  0.00    +0.000 A 
ATOM      8  C   UNL     1     107.653 126.607 142.171  0.00  0.00    +0.000 A 
ATOM      9  C   UNL     1     106.543 127.382 142.629  0.00  0.00    +0.000 A 
ATOM     10  C   UNL     1     107.462 125.471 141.286  0.00  0.00    +0.000 A 
ATOM     11  C   UNL     1     107.355 127.236 142.613  0.00  0.00    +0.000 A 
ATOM     12  C   UNL     1     106.931 124.964 140.839  0.00  0.00    +0.000 A 
ENDROOT
BRANCH   7  15
ATOM     13  O   UNL     1     104.364 122.838 140.727  0.00  0.00    +0.000 OA
ATOM     14  O   UNL     1     104.706 124.503 138.428  0.00  0.00    +0.000 OA
ATOM     15  C   UNL     1     105.568 124.634 140.428  0.00  0.00    +0.000 A 
ATOM     16  C   UNL     1     105.395 124.809 139.641  0.00  0.00    +0.000 A 
ATOM     17  C   UNL     1     105.225 123.977 140.790  0.00  0.00    +0.000 A 
ATOM     18  C   UNL     1     104.708 123.495 140.365  0.00  0.00    +0.000 A 
ATOM     19  C   UNL     1     104.879 124.328 139.215  0.00  0.00    +0.000 A 
ATOM     20  C   UNL     1     104.534 123.670 139.577  0.00  0.00    +0.000 A 
BRANCH  20  21
ATOM     21  O   UNL     1     104.018 123.189 139.152  0.00  0.00    +0.000 OA
ATOM     22  C   UNL     1     103.238 123.426 139.031  0.00  0.00    +0.000 C 
ENDBRANCH  20  21
ENDBRANCH   7  15
BRANCH   6  23
ATOM     23  O   UNL     1     105.217 127.044 142.217  0.00  0.00    +0.000 OA
ATOM     24  C   UNL     1     104.902 127.665 141.775  0.00  0.00    +0.000 C 
ENDBRANCH   6  23
BRANCH   9  25
ATOM     25  O   UNL     1     106.245 128.011 143.072  0.00  0.00    +0.000 OA
ATOM     26  C   UNL     1     106.051 127.901 143.865  0.00  0.00    +0.000 C 
ENDBRANCH   9  25
BRANCH  11  27
ATOM     27  O   UNL     1     107.869 127.720 143.041  0.00  0.00    +0.000 OA
ATOM     28  C   UNL     1     108.334 128.277 142.650  0.00  0.00    +0.000 C 
ENDBRANCH  11  27
TORSDOF 5
ENDMDL
MODEL 3
REMARK VINA RESULT:      -7.4     11.736     13.082
REMARK  Name = 3084508
REMARK  5 active torsions:
REMARK  status: ('A' for Active; 'I' for Inactive)
REMARK    1  A    between atoms: O_2  and  C_12
REMARK    2  A    between atoms: O_3  and  C_15
REMARK    3  A    between atoms: O_4  and  C_17
REMARK    4  A    between atoms: O_7  and  C_24
REMARK    5  A    between atoms: C_13  and  C_18
REMARK                            x       y       z     vdW  Elec       q    Type
REMARK                         _______ _______ _______ _____ _____    ______ ____
ROOT
ATOM      1  O   UNL     1     104.121 124.770 147.132  0.00  0.00    +0.000 OA
ATOM      2  O   UNL     1     102.329 122.740 146.112  0.00  0.00    +0.000 OA
ATOM      3  O   UNL     1     103.402 123.212 145.270  0.00  0.00    +0.000 OA
ATOM      4  C   UNL     1     103.213 123.742 146.618  0.00  0.00    +0.000 A 
ATOM      5  C   UNL     1     103.445 124.249 147.226  0.00  0.00    +0.000 A 
ATOM      6  C   UNL     1     103.026 124.260 147.937  0.00  0.00    +0.000 A 
ATOM      7  C   UNL     1     104.562 124.764 146.394  0.00  0.00    +0.000 A 
ATOM      8  C   UNL     1     102.561 123.247 146.721  0.00  0.00    +0.000 A 
ATOM      9  C   UNL     1     102.374 123.764 148.039  0.00  0.00    +0.000 A 
ATOM     10  C   UNL     1     103.641 123.722 145.873  0.00  0.00    +0.000 A 
ATOM     11  C   UNL     1     102.142 123.257 147.431  0.00  0.00    +0.000 A 
ATOM     12  C   UNL     1     104.320 124.236 145.760  0.00  0.00    +0.000 A 
ENDROOT
BRANCH   7  15
ATOM     13  O   UNL     1     105.653 127.282 145.596  0.00  0.00    +0.000 OA
ATOM     14  O   UNL     1     107.374 125.231 146.598  0.00  0.00    +0.000 OA
ATOM     15  C   UNL     1     105.213 125.261 146.295  0.00  0.00    +0.000 A 
ATOM     16  C   UNL     1     105.969 124.998 146.496  0.00  0.00    +0.000 A 
ATOM     17  C   UNL     1     105.108 126.022 145.995  0.00  0.00    +0.000 A 
ATOM     18  C   UNL     1     105.758 126.520 145.896  0.00  0.00    +0.000 A 
ATOM     19  C   UNL     1     106.619 125.495 146.397  0.00  0.00    +0.000 A 
ATOM     20  C   UNL     1     106.514 126.257 146.097  0.00  0.00    +0.000 A 
BRANCH  20  21
ATOM     21  O   UNL     1     107.164 126.754 145.998  0.00  0.00    +0.000 OA
ATOM     22  C   UNL     1     107.343 127.318 146.572  0.00  0.00    +0.000 C 
ENDBRANCH  20  21
ENDBRANCH   7  15
BRANCH   6  23
ATOM     23  O   UNL     1     103.258 124.767 148.545  0.00  0.00    +0.000 OA
ATOM     24  C   UNL     1     102.848 125.470 148.674  0.00  0.00    +0.000 C 
ENDBRANCH   6  23
BRANCH   9  25
ATOM     25  O   UNL     1     101.955 123.775 148.750  0.00  0.00    +0.000 OA
ATOM     26  C   UNL     1     102.152 123.247 149.352  0.00  0.00    +0.000 C 
ENDBRANCH   9  25
BRANCH  11  27
ATOM     27  O   UNL     1     101.491 122.761 147.534  0.00  0.00    +0.000 OA
ATOM     28  C   UNL     1     100.780 122.929 147.151  0.00  0.00    +0.000 C 
ENDBRANCH  11  27
TORSDOF 5
ENDMDL
MODEL 4
REMARK VINA RESULT:      -7.4     11.762     13.134
REMARK  Name = 3084508
REMARK  5 active torsions:
REMARK  status: ('A' for Active; 'I' for Inactive)
REMARK    1  A    between atoms: O_2  and  C_12
REMARK    2  A    between atoms: O_3  and  C_15
REMARK    3  A    between atoms: O_4  and  C_17
REMARK    4  A    between atoms: O_7  and  C_24
REMARK    5  A    between atoms: C_13  and  C_18
REMARK                            x       y       z     vdW  Elec       q    Type
REMARK                         _______ _______ _______ _____ _____    ______ ____
ROOT
ATOM      1  O   UNL     1     103.824 124.539 146.486  0.00  0.00    +0.000 OA
ATOM      2  O   UNL     1     102.499 124.334 149.050  0.00  0.00    +0.000 OA
ATOM      3  O   UNL     1     103.658 125.186 148.928  0.00  0.00    +0.000 OA
ATOM      4  C   UNL     1     103.152 124.434 147.783  0.00  0.00    +0.000 A 
ATOM      5  C   UNL     1     103.204 124.221 146.988  0.00  0.00    +0.000 A 
ATOM      6  C   UNL     1     102.655 123.696 146.664  0.00  0.00    +0.000 A 
ATOM      7  C   UNL     1     104.399 125.085 146.817  0.00  0.00    +0.000 A 
ATOM      8  C   UNL     1     102.551 124.121 148.255  0.00  0.00    +0.000 A 
ATOM      9  C   UNL     1     102.054 123.385 147.136  0.00  0.00    +0.000 A 
ATOM     10  C   UNL     1     103.717 124.978 148.132  0.00  0.00    +0.000 A 
ATOM     11  C   UNL     1     102.003 123.597 147.931  0.00  0.00    +0.000 A 
ATOM     12  C   UNL     1     104.345 125.307 147.645  0.00  0.00    +0.000 A 
ENDROOT
BRANCH   7  15
ATOM     13  O   UNL     1     107.060 124.943 145.784  0.00  0.00    +0.000 OA
ATOM     14  O   UNL     1     105.336 127.085 145.002  0.00  0.00    +0.000 OA
ATOM     15  C   UNL     1     104.999 125.396 146.342  0.00  0.00    +0.000 A 
ATOM     16  C   UNL     1     104.868 126.086 145.909  0.00  0.00    +0.000 A 
ATOM     17  C   UNL     1     105.730 125.015 146.300  0.00  0.00    +0.000 A 
ATOM     18  C   UNL     1     106.329 125.324 145.825  0.00  0.00    +0.000 A 
ATOM     19  C   UNL     1     105.467 126.395 145.435  0.00  0.00    +0.000 A 
ATOM     20  C   UNL     1     106.198 126.014 145.393  0.00  0.00    +0.000 A 
BRANCH  20  21
ATOM     21  O   UNL     1     106.797 126.323 144.918  0.00  0.00    +0.000 OA
ATOM     22  C   UNL     1     106.694 126.370 144.102  0.00  0.00    +0.000 C 
ENDBRANCH  20  21
ENDBRANCH   7  15
BRANCH   6  23
ATOM     23  O   UNL     1     102.707 123.484 145.868  0.00  0.00    +0.000 OA
ATOM     24  C   UNL     1     103.055 122.768 145.655  0.00  0.00    +0.000 C 
ENDBRANCH   6  23
BRANCH   9  25
ATOM     25  O   UNL     1     101.505 122.860 146.812  0.00  0.00    +0.000 OA
ATOM     26  C   UNL     1     100.800 123.146 146.494  0.00  0.00    +0.000 C 
ENDBRANCH   9  25
BRANCH  11  27
ATOM     27  O   UNL     1     101.402 123.285 148.403  0.00  0.00    +0.000 OA
ATOM     28  C   UNL     1     101.582 122.739 148.994  0.00  0.00    +0.000 C 
ENDBRANCH  11  27
TORSDOF 5
ENDMDL
MODEL 5
REMARK VINA RESULT:      -7.4      2.834      3.466
REMARK  Name = 3084508
REMARK  5 active torsions:
REMARK  status: ('A' for Active; 'I' for Inactive)
REMARK    1  A    between atoms: O_2  and  C_12
REMARK    2  A    between atoms: O_3  and  C_15
REMARK    3  A    between atoms: O_4  and  C_17
REMARK    4  A    between atoms: O_7  and  C_24
REMARK    5  A    between atoms: C_13  and  C_18
REMARK                            x       y       z     vdW  Elec       q    Type
REMARK                         _______ _______ _______ _____ _____    ______ ____
ROOT
ATOM      1  O   UNL     1     112.653 127.282 137.430  0.00  0.00    +0.000 OA
ATOM      2  O   UNL     1     113.920 129.692 136.450  0.00  0.00    +0.000 OA
ATOM      3  O   UNL     1     114.092 128.463 135.713  0.00  0.00    +0.000 OA
ATOM      4  C   UNL     1     113.294 128.504 136.936  0.00  0.00    +0.000 A 
ATOM      5  C   UNL     1     112.825 128.121 137.496  0.00  0.00    +0.000 A 
ATOM      6  C   UNL     1     112.514 128.546 138.133  0.00  0.00    +0.000 A 
ATOM      7  C   UNL     1     112.975 126.835 136.770  0.00  0.00    +0.000 A 
ATOM      8  C   UNL     1     113.451 129.310 137.011  0.00  0.00    +0.000 A 
ATOM      9  C   UNL     1     112.672 129.352 138.207  0.00  0.00    +0.000 A 
ATOM     10  C   UNL     1     113.624 128.073 136.269  0.00  0.00    +0.000 A 
ATOM     11  C   UNL     1     113.141 129.734 137.646  0.00  0.00    +0.000 A 
ATOM     12  C   UNL     1     113.463 127.233 136.186  0.00  0.00    +0.000 A 
ENDROOT
BRANCH   7  15
ATOM     13  O   UNL     1     113.776 124.113 137.116  0.00  0.00    +0.000 OA
ATOM     14  O   UNL     1     111.217 124.719 135.994  0.00  0.00    +0.000 OA
ATOM     15  C   UNL     1     112.815 126.028 136.698  0.00  0.00    +0.000 A 
ATOM     16  C   UNL     1     112.096 125.776 136.382  0.00  0.00    +0.000 A 
ATOM     17  C   UNL     1     113.375 125.474 136.943  0.00  0.00    +0.000 A 
ATOM     18  C   UNL     1     113.216 124.668 136.871  0.00  0.00    +0.000 A 
ATOM     19  C   UNL     1     111.936 124.971 136.310  0.00  0.00    +0.000 A 
ATOM     20  C   UNL     1     112.496 124.416 136.555  0.00  0.00    +0.000 A 
BRANCH  20  21
ATOM     21  O   UNL     1     112.337 123.610 136.484  0.00  0.00    +0.000 OA
ATOM     22  C   UNL     1     111.976 123.204 137.104  0.00  0.00    +0.000 C 
ENDBRANCH  20  21
ENDBRANCH   7  15
BRANCH   6  23
ATOM     23  O   UNL     1     112.045 128.163 138.694  0.00  0.00    +0.000 OA
ATOM     24  C   UNL     1     112.367 127.946 139.421  0.00  0.00    +0.000 C 
ENDBRANCH   6  23
BRANCH   9  25
ATOM     25  O   UNL     1     112.360 129.776 138.843  0.00  0.00    +0.000 OA
ATOM     26  C   UNL     1     111.639 130.168 138.763  0.00  0.00    +0.000 C 
ENDBRANCH   9  25
BRANCH  11  27
ATOM     27  O   UNL     1     113.298 130.540 137.721  0.00  0.00    +0.000 OA
ATOM     28  C   UNL     1     114.046 130.795 137.957  0.00  0.00    +0.000 C 
ENDBRANCH  11  27
TORSDOF 5
ENDMDL
MODEL 6
REMARK VINA RESULT:      -7.3      8.797      9.959
REMARK  Name = 3084508
REMARK  5 active torsions:
REMARK  status: ('A' for Active; 'I' for Inactive)
REMARK    1  A    between atoms: O_2  and  C_12
REMARK    2  A    between atoms: O_3  and  C_15
REMARK    3  A    between atoms: O_4  and  C_17
REMARK    4  A    between atoms: O_7  and  C_24
REMARK    5  A    between atoms: C_13  and  C_18
REMARK                            x       y       z     vdW  Elec       q    Type
REMARK                         _______ _______ _______ _____ _____    ______ ____
ROOT
ATOM      1  O   UNL     1     103.203 131.607 141.602  0.00  0.00    +0.000 OA
ATOM      2  O   UNL     1     100.728 133.094 141.802  0.00  0.00    +0.000 OA
ATOM      3  O   UNL     1     100.710 131.671 142.044  0.00  0.00    +0.000 OA
ATOM      4  C   UNL     1     101.951 132.362 141.703  0.00  0.00    +0.000 A 
ATOM      5  C   UNL     1     102.763 132.344 141.558  0.00  0.00    +0.000 A 
ATOM      6  C   UNL     1     103.164 133.040 141.368  0.00  0.00    +0.000 A 
ATOM      7  C   UNL     1     102.791 130.879 141.799  0.00  0.00    +0.000 A 
ATOM      8  C   UNL     1     101.540 133.076 141.657  0.00  0.00    +0.000 A 
ATOM      9  C   UNL     1     102.753 133.753 141.323  0.00  0.00    +0.000 A 
ATOM     10  C   UNL     1     101.522 131.645 141.901  0.00  0.00    +0.000 A 
ATOM     11  C   UNL     1     101.941 133.771 141.468  0.00  0.00    +0.000 A 
ATOM     12  C   UNL     1     101.945 130.897 141.950  0.00  0.00    +0.000 A 
ENDROOT
BRANCH   7  15
ATOM     13  O   UNL     1     103.720 128.476 140.561  0.00  0.00    +0.000 OA
ATOM     14  O   UNL     1     104.347 129.009 143.299  0.00  0.00    +0.000 OA
ATOM     15  C   UNL     1     103.205 130.166 141.843  0.00  0.00    +0.000 A 
ATOM     16  C   UNL     1     103.569 129.943 142.549  0.00  0.00    +0.000 A 
ATOM     17  C   UNL     1     103.256 129.677 141.181  0.00  0.00    +0.000 A 
ATOM     18  C   UNL     1     103.670 128.965 141.224  0.00  0.00    +0.000 A 
ATOM     19  C   UNL     1     103.983 129.232 142.593  0.00  0.00    +0.000 A 
ATOM     20  C   UNL     1     104.034 128.742 141.930  0.00  0.00    +0.000 A 
BRANCH  20  21
ATOM     21  O   UNL     1     104.448 128.031 141.974  0.00  0.00    +0.000 OA
ATOM     22  C   UNL     1     105.259 128.015 141.825  0.00  0.00    +0.000 C 
ENDBRANCH  20  21
ENDBRANCH   7  15
BRANCH   6  23
ATOM     23  O   UNL     1     103.976 133.022 141.224  0.00  0.00    +0.000 OA
ATOM     24  C   UNL     1     104.504 133.266 141.808  0.00  0.00    +0.000 C 
ENDBRANCH   6  23
BRANCH   9  25
ATOM     25  O   UNL     1     103.154 134.450 141.134  0.00  0.00    +0.000 OA
ATOM     26  C   UNL     1     103.201 134.697 140.348  0.00  0.00    +0.000 C 
ENDBRANCH   9  25
BRANCH  11  27
ATOM     27  O   UNL     1     101.530 134.486 141.423  0.00  0.00    +0.000 OA
ATOM     28  C   UNL     1     101.265 134.854 142.111  0.00  0.00    +0.000 C 
ENDBRANCH  11  27
TORSDOF 5
ENDMDL
MODEL 7
REMARK VINA RESULT:      -7.3      2.189      5.322
REMARK  Name = 3084508
REMARK  5 active torsions:
REMARK  status: ('A' for Active; 'I' for Inactive)
REMARK    1  A    between atoms: O_2  and  C_12
REMARK    2  A    between atoms: O_3  and  C_15
REMARK    3  A    between atoms: O_4  and  C_17
REMARK    4  A    between atoms: O_7  and  C_24
REMARK    5  A    between atoms: C_13  and  C_18
REMARK                            x       y       z     vdW  Elec       q    Type
REMARK                         _______ _______ _______ _____ _____    ______ ____
ROOT
ATOM      1  O   UNL     1     112.631 127.517 136.101  0.00  0.00    +0.000 OA
ATOM      2  O   UNL     1     113.228 124.763 136.759  0.00  0.00    +0.000 OA
ATOM      3  O   UNL     1     114.289 125.740 136.811  0.00  0.00    +0.000 OA
ATOM      4  C   UNL     1     112.931 126.122 136.434  0.00  0.00    +0.000 A 
ATOM      5  C   UNL     1     112.389 126.699 136.203  0.00  0.00    +0.000 A 
ATOM      6  C   UNL     1     111.601 126.494 136.065  0.00  0.00    +0.000 A 
ATOM      7  C   UNL     1     113.450 127.737 136.243  0.00  0.00    +0.000 A 
ATOM      8  C   UNL     1     112.685 125.340 136.528  0.00  0.00    +0.000 A 
ATOM      9  C   UNL     1     111.357 125.712 136.159  0.00  0.00    +0.000 A 
ATOM     10  C   UNL     1     113.753 126.323 136.580  0.00  0.00    +0.000 A 
ATOM     11  C   UNL     1     111.899 125.135 136.391  0.00  0.00    +0.000 A 
ATOM     12  C   UNL     1     114.015 127.136 136.483  0.00  0.00    +0.000 A 
ENDROOT
BRANCH   7  15
ATOM     13  O   UNL     1     113.787 130.369 137.306  0.00  0.00    +0.000 OA
ATOM     14  O   UNL     1     114.562 129.805 134.612  0.00  0.00    +0.000 OA
ATOM     15  C   UNL     1     113.692 128.521 136.148  0.00  0.00    +0.000 A 
ATOM     16  C   UNL     1     114.006 128.772 135.427  0.00  0.00    +0.000 A 
ATOM     17  C   UNL     1     113.619 129.053 136.774  0.00  0.00    +0.000 A 
ATOM     18  C   UNL     1     113.860 129.836 136.679  0.00  0.00    +0.000 A 
ATOM     19  C   UNL     1     114.247 129.554 135.333  0.00  0.00    +0.000 A 
ATOM     20  C   UNL     1     114.175 130.087 135.959  0.00  0.00    +0.000 A 
BRANCH  20  21
ATOM     21  O   UNL     1     114.416 130.870 135.864  0.00  0.00    +0.000 OA
ATOM     22  C   UNL     1     115.215 131.046 135.767  0.00  0.00    +0.000 C 
ENDBRANCH  20  21
ENDBRANCH   7  15
BRANCH   6  23
ATOM     23  O   UNL     1     111.059 127.072 135.834  0.00  0.00    +0.000 OA
ATOM     24  C   UNL     1     110.540 127.394 136.387  0.00  0.00    +0.000 C 
ENDBRANCH   6  23
BRANCH   9  25
ATOM     25  O   UNL     1     110.569 125.507 136.022  0.00  0.00    +0.000 OA
ATOM     26  C   UNL     1     110.318 125.326 135.257  0.00  0.00    +0.000 C 
ENDBRANCH   9  25
BRANCH  11  27
ATOM     27  O   UNL     1     111.653 124.353 136.485  0.00  0.00    +0.000 OA
ATOM     28  C   UNL     1     111.650 124.008 137.233  0.00  0.00    +0.000 C 
ENDBRANCH  11  27
TORSDOF 5
ENDMDL
MODEL 8
REMARK VINA RESULT:      -7.3      3.109      3.629
REMARK  Name = 3084508
REMARK  5 active torsions:
REMARK  status: ('A' for Active; 'I' for Inactive)
REMARK    1  A    between atoms: O_2  and  C_12
REMARK    2  A    between atoms: O_3  and  C_15
REMARK    3  A    between atoms: O_4  and  C_17
REMARK    4  A    between atoms: O_7  and  C_24
REMARK    5  A    between atoms: C_13  and  C_18
REMARK                            x       y       z     vdW  Elec       q    Type
REMARK                         _______ _______ _______ _____ _____    ______ ____
ROOT
ATOM      1  O   UNL     1     113.596 127.885 136.409  0.00  0.00    +0.000 OA
ATOM      2  O   UNL     1     113.172 130.136 138.177  0.00  0.00    +0.000 OA
ATOM      3  O   UNL     1     112.775 128.819 138.615  0.00  0.00    +0.000 OA
ATOM      4  C   UNL     1     113.382 129.026 137.302  0.00  0.00    +0.000 A 
ATOM      5  C   UNL     1     113.651 128.724 136.583  0.00  0.00    +0.000 A 
ATOM      6  C   UNL     1     113.977 129.231 136.019  0.00  0.00    +0.000 A 
ATOM      7  C   UNL     1     113.258 127.352 136.993  0.00  0.00    +0.000 A 
ATOM      8  C   UNL     1     113.440 129.834 137.457  0.00  0.00    +0.000 A 
ATOM      9  C   UNL     1     114.034 130.039 136.175  0.00  0.00    +0.000 A 
ATOM     10  C   UNL     1     113.041 128.509 137.898  0.00  0.00    +0.000 A 
ATOM     11  C   UNL     1     113.766 130.341 136.894  0.00  0.00    +0.000 A 
ATOM     12  C   UNL     1     112.978 127.666 137.742  0.00  0.00    +0.000 A 
ENDROOT
BRANCH   7  15
ATOM     13  O   UNL     1     111.773 125.124 135.992  0.00  0.00    +0.000 OA
ATOM     14  O   UNL     1     114.404 124.734 137.038  0.00  0.00    +0.000 OA
ATOM     15  C   UNL     1     113.202 126.544 136.833  0.00  0.00    +0.000 A 
ATOM     16  C   UNL     1     113.831 126.042 137.015  0.00  0.00    +0.000 A 
ATOM     17  C   UNL     1     112.516 126.238 136.493  0.00  0.00    +0.000 A 
ATOM     18  C   UNL     1     112.459 125.430 136.333  0.00  0.00    +0.000 A 
ATOM     19  C   UNL     1     113.775 125.236 136.856  0.00  0.00    +0.000 A 
ATOM     20  C   UNL     1     113.088 124.929 136.515  0.00  0.00    +0.000 A 
BRANCH  20  21
ATOM     21  O   UNL     1     113.032 124.122 136.356  0.00  0.00    +0.000 OA
ATOM     22  C   UNL     1     112.661 123.620 136.895  0.00  0.00    +0.000 C 
ENDBRANCH  20  21
ENDBRANCH   7  15
BRANCH   6  23
ATOM     23  O   UNL     1     114.245 128.929 135.299  0.00  0.00    +0.000 OA
ATOM     24  C   UNL     1     113.805 129.050 134.612  0.00  0.00    +0.000 C 
ENDBRANCH   6  23
BRANCH   9  25
ATOM     25  O   UNL     1     114.360 130.546 135.610  0.00  0.00    +0.000 OA
ATOM     26  C   UNL     1     115.166 130.719 135.630  0.00  0.00    +0.000 C 
ENDBRANCH   9  25
BRANCH  11  27
ATOM     27  O   UNL     1     113.824 131.149 137.049  0.00  0.00    +0.000 OA
ATOM     28  C   UNL     1     113.151 131.624 137.019  0.00  0.00    +0.000 C 
ENDBRANCH  11  27
TORSDOF 5
ENDMDL
MODEL 9
REMARK VINA RESULT:      -7.3      8.901     10.542
REMARK  Name = 3084508
REMARK  5 active torsions:
REMARK  status: ('A' for Active; 'I' for Inactive)
REMARK    1  A    between atoms: O_2  and  C_12
REMARK    2  A    between atoms: O_3  and  C_15
REMARK    3  A    between atoms: O_4  and  C_17
REMARK    4  A    between atoms: O_7  and  C_24
REMARK    5  A    between atoms: C_13  and  C_18
REMARK                            x       y       z     vdW  Elec       q    Type
REMARK                         _______ _______ _______ _____ _____    ______ ____
ROOT
ATOM      1  O   UNL     1     111.869 131.513 145.239  0.00  0.00    +0.000 OA
ATOM      2  O   UNL     1     111.698 132.332 142.469  0.00  0.00    +0.000 OA
ATOM      3  O   UNL     1     111.966 133.329 143.478  0.00  0.00    +0.000 OA
ATOM      4  C   UNL     1     111.782 131.925 143.836  0.00  0.00    +0.000 A 
ATOM      5  C   UNL     1     111.750 131.331 144.408  0.00  0.00    +0.000 A 
ATOM      6  C   UNL     1     111.602 130.551 144.185  0.00  0.00    +0.000 A 
ATOM      7  C   UNL     1     112.024 132.324 145.478  0.00  0.00    +0.000 A 
ATOM      8  C   UNL     1     111.666 131.738 143.041  0.00  0.00    +0.000 A 
ATOM      9  C   UNL     1     111.486 130.365 143.389  0.00  0.00    +0.000 A 
ATOM     10  C   UNL     1     111.936 132.741 144.056  0.00  0.00    +0.000 A 
ATOM     11  C   UNL     1     111.518 130.959 142.817  0.00  0.00    +0.000 A 
ATOM     12  C   UNL     1     112.058 132.942 144.883  0.00  0.00    +0.000 A 
ENDROOT
BRANCH   7  15
ATOM     13  O   UNL     1     113.641 132.212 147.833  0.00  0.00    +0.000 OA
ATOM     14  O   UNL     1     111.105 133.530 147.901  0.00  0.00    +0.000 OA
ATOM     15  C   UNL     1     112.140 132.507 146.275  0.00  0.00    +0.000 A 
ATOM     16  C   UNL     1     111.564 132.927 146.690  0.00  0.00    +0.000 A 
ATOM     17  C   UNL     1     112.832 132.268 146.656  0.00  0.00    +0.000 A 
ATOM     18  C   UNL     1     112.949 132.451 147.452  0.00  0.00    +0.000 A 
ATOM     19  C   UNL     1     111.680 133.110 147.485  0.00  0.00    +0.000 A 
ATOM     20  C   UNL     1     112.373 132.871 147.867  0.00  0.00    +0.000 A 
BRANCH  20  21
ATOM     21  O   UNL     1     112.489 133.054 148.662  0.00  0.00    +0.000 OA
ATOM     22  C   UNL     1     112.335 132.488 149.242  0.00  0.00    +0.000 C 
ENDBRANCH  20  21
ENDBRANCH   7  15
BRANCH   6  23
ATOM     23  O   UNL     1     111.570 129.957 144.756  0.00  0.00    +0.000 OA
ATOM     24  C   UNL     1     110.840 129.672 145.014  0.00  0.00    +0.000 C 
ENDBRANCH   6  23
BRANCH   9  25
ATOM     25  O   UNL     1     111.337 129.584 143.166  0.00  0.00    +0.000 OA
ATOM     26  C   UNL     1     111.960 129.099 142.925  0.00  0.00    +0.000 C 
ENDBRANCH   9  25
BRANCH  11  27
ATOM     27  O   UNL     1     111.402 130.772 142.022  0.00  0.00    +0.000 OA
ATOM     28  C   UNL     1     110.702 130.989 141.645  0.00  0.00    +0.000 C 
ENDBRANCH  11  27
TORSDOF 5
ENDMDL
MODEL 10
REMARK VINA RESULT:      -7.2      1.451      4.972
REMARK  Name = 3084508
REMARK  5 active torsions:
REMARK  status: ('A' for Active; 'I' for Inactive)
REMARK    1  A    between atoms: O_2  and  C_12
REMARK    2  A    between atoms: O_3  and  C_15
REMARK    3  A    between atoms: O_4  and  C_17
REMARK    4  A    between atoms: O_7  and  C_24
REMARK    5  A    between atoms: C_13  and  C_18
REMARK                            x       y       z     vdW  Elec       q    Type
REMARK                         _______ _______ _______ _____ _____    ______ ____
ROOT
ATOM      1  O   UNL     1     112.111 126.794 136.509  0.00  0.00    +0.000 OA
ATOM      2  O   UNL     1     111.532 124.014 135.953  0.00  0.00    +0.000 OA
ATOM      3  O   UNL     1     110.673 125.032 135.396  0.00  0.00    +0.000 OA
ATOM      4  C   UNL     1     111.819 125.386 136.229  0.00  0.00    +0.000 A 
ATOM      5  C   UNL     1     112.289 125.958 136.593  0.00  0.00    +0.000 A 
ATOM      6  C   UNL     1     112.942 125.731 137.044  0.00  0.00    +0.000 A 
ATOM      7  C   UNL     1     111.432 127.038 136.040  0.00  0.00    +0.000 A 
ATOM      8  C   UNL     1     112.002 124.586 136.317  0.00  0.00    +0.000 A 
ATOM      9  C   UNL     1     113.123 124.931 137.131  0.00  0.00    +0.000 A 
ATOM     10  C   UNL     1     111.138 125.611 135.757  0.00  0.00    +0.000 A 
ATOM     11  C   UNL     1     112.653 124.359 136.768  0.00  0.00    +0.000 A 
ATOM     12  C   UNL     1     110.943 126.443 135.662  0.00  0.00    +0.000 A 
ENDROOT
BRANCH   7  15
ATOM     13  O   UNL     1     111.767 129.514 134.653  0.00  0.00    +0.000 OA
ATOM     14  O   UNL     1     110.025 129.367 136.914  0.00  0.00    +0.000 OA
ATOM     15  C   UNL     1     111.253 127.840 135.955  0.00  0.00    +0.000 A 
ATOM     16  C   UNL     1     110.729 128.203 136.477  0.00  0.00    +0.000 A 
ATOM     17  C   UNL     1     111.600 128.276 135.347  0.00  0.00    +0.000 A 
ATOM     18  C   UNL     1     111.421 129.077 135.261  0.00  0.00    +0.000 A 
ATOM     19  C   UNL     1     110.550 129.003 136.392  0.00  0.00    +0.000 A 
ATOM     20  C   UNL     1     110.896 129.441 135.783  0.00  0.00    +0.000 A 
BRANCH  20  21
ATOM     21  O   UNL     1     110.718 130.241 135.698  0.00  0.00    +0.000 OA
ATOM     22  C   UNL     1     110.028 130.471 135.308  0.00  0.00    +0.000 C 
ENDBRANCH  20  21
ENDBRANCH   7  15
BRANCH   6  23
ATOM     23  O   UNL     1     113.412 126.303 137.408  0.00  0.00    +0.000 OA
ATOM     24  C   UNL     1     113.350 126.432 138.220  0.00  0.00    +0.000 C 
ENDBRANCH   6  23
BRANCH   9  25
ATOM     25  O   UNL     1     113.776 124.703 137.583  0.00  0.00    +0.000 OA
ATOM     26  C   UNL     1     114.515 124.622 137.227  0.00  0.00    +0.000 C 
ENDBRANCH   9  25
BRANCH  11  27
ATOM     27  O   UNL     1     112.836 123.559 136.855  0.00  0.00    +0.000 OA
ATOM     28  C   UNL     1     112.315 123.057 137.252  0.00  0.00    +0.000 C 
ENDBRANCH  11  27
TORSDOF 5
ENDMDL
