MODEL 1
REMARK VINA RESULT:     -10.2      0.000      0.000
REMARK  Name = 44259098
REMARK  7 active torsions:
REMARK  status: ('A' for Active; 'I' for Inactive)
REMARK    1  A    between atoms: O_3  and  C_23
REMARK    2  A    between atoms: O_3  and  C_28
REMARK    3  A    between atoms: O_6  and  C_27
REMARK    4  A    between atoms: O_6  and  C_30
REMARK    5  A    between atoms: C_18  and  C_28
REMARK    6  A    between atoms: C_26  and  C_29
REMARK    7  A    between atoms: C_31  and  C_34
REMARK                            x       y       z     vdW  Elec       q    Type
REMARK                         _______ _______ _______ _____ _____    ______ ____
ROOT
ATOM      1  O   UNL     1     112.623 128.320 135.789  0.00  0.00    +0.000 OA
ENDROOT
BRANCH   1   6
ATOM      2  O   UNL     1     111.139 126.198 136.330  0.00  0.00    +0.000 OA
ATOM      3  O   UNL     1     114.037 126.959 136.173  0.00  0.00    +0.000 OA
ATOM      4  O   UNL     1     114.522 125.338 136.612  0.00  0.00    +0.000 OA
ATOM      5  O   UNL     1     112.028 122.900 137.221  0.00  0.00    +0.000 OA
ATOM      6  C   UNL     1     112.364 127.386 136.033  0.00  0.00    +0.000 A 
ATOM      7  C   UNL     1     111.398 127.133 136.085  0.00  0.00    +0.000 A 
ATOM      8  C   UNL     1     113.071 126.705 136.225  0.00  0.00    +0.000 A 
ATOM      9  C   UNL     1     112.811 125.771 136.470  0.00  0.00    +0.000 A 
ATOM     10  C   UNL     1     111.845 125.518 136.522  0.00  0.00    +0.000 A 
ATOM     11  C   UNL     1     113.559 125.073 136.667  0.00  0.00    +0.000 A 
ATOM     12  C   UNL     1     111.560 124.548 136.776  0.00  0.00    +0.000 A 
ATOM     13  C   UNL     1     113.297 124.098 136.923  0.00  0.00    +0.000 A 
ATOM     14  C   UNL     1     112.290 123.834 136.977  0.00  0.00    +0.000 A 
BRANCH   7  17
ATOM     15  O   UNL     1     108.913 129.274 137.199  0.00  0.00    +0.000 OA
ATOM     16  O   UNL     1     108.571 129.856 135.316  0.00  0.00    +0.000 OA
ATOM     17  C   UNL     1     110.691 127.814 135.893  0.00  0.00    +0.000 A 
ATOM     18  C   UNL     1     110.155 128.203 136.642  0.00  0.00    +0.000 A 
ATOM     19  C   UNL     1     110.520 128.105 134.952  0.00  0.00    +0.000 A 
ATOM     20  C   UNL     1     109.449 128.884 136.450  0.00  0.00    +0.000 A 
ATOM     21  C   UNL     1     109.814 128.785 134.759  0.00  0.00    +0.000 A 
ATOM     22  C   UNL     1     109.278 129.175 135.508  0.00  0.00    +0.000 A 
ENDBRANCH   7  17
ENDBRANCH   1   6
BRANCH   1  31
ATOM     23  O   UNL     1     112.911 128.717 137.450  0.00  0.00    +0.000 OA
ATOM     24  O   UNL     1     114.213 130.742 138.547  0.00  0.00    +0.000 OA
ATOM     25  O   UNL     1     114.433 131.160 136.603  0.00  0.00    +0.000 OA
ATOM     26  O   UNL     1     113.638 129.949 135.224  0.00  0.00    +0.000 OA
ATOM     27  C   UNL     1     113.309 129.322 138.139  0.00  0.00    +0.000 C 
ATOM     28  C   UNL     1     113.816 130.136 137.857  0.00  0.00    +0.000 C 
ATOM     29  C   UNL     1     113.925 130.345 136.886  0.00  0.00    +0.000 C 
ATOM     30  C   UNL     1     113.528 129.740 136.196  0.00  0.00    +0.000 C 
ATOM     31  C   UNL     1     113.021 128.926 136.478  0.00  0.00    +0.000 C 
BRANCH  27  32
ATOM     32  C   UNL     1     113.199 129.113 139.111  0.00  0.00    +0.000 C 
BRANCH  32  33
ATOM     33  O   UNL     1     112.898 128.203 139.396  0.00  0.00    +0.000 OA
BRANCH  33  39
ATOM     34  O   UNL     1     112.344 128.840 140.908  0.00  0.00    +0.000 OA
ATOM     35  O   UNL     1     111.977 126.472 139.787  0.00  0.00    +0.000 OA
ATOM     36  O   UNL     1     110.962 126.243 141.495  0.00  0.00    +0.000 OA
ATOM     37  O   UNL     1     110.869 127.745 142.812  0.00  0.00    +0.000 OA
ATOM     38  C   UNL     1     111.930 127.223 140.446  0.00  0.00    +0.000 C 
ATOM     39  C   UNL     1     112.391 128.089 140.250  0.00  0.00    +0.000 C 
ATOM     40  C   UNL     1     111.423 127.108 141.300  0.00  0.00    +0.000 C 
ATOM     41  C   UNL     1     111.376 127.860 141.958  0.00  0.00    +0.000 C 
ATOM     42  C   UNL     1     111.837 128.725 141.762  0.00  0.00    +0.000 C 
BRANCH  42  44
ATOM     43  O   UNL     1     112.512 130.168 142.442  0.00  0.00    +0.000 OA
ATOM     44  C   UNL     1     111.790 129.476 142.421  0.00  0.00    +0.000 C 
ENDBRANCH  42  44
ENDBRANCH  33  39
ENDBRANCH  32  33
ENDBRANCH  27  32
ENDBRANCH   1  31
TORSDOF 7
ENDMDL
MODEL 2
REMARK VINA RESULT:     -10.2      1.793      3.402
REMARK  Name = 44259098
REMARK  7 active torsions:
REMARK  status: ('A' for Active; 'I' for Inactive)
REMARK    1  A    between atoms: O_3  and  C_23
REMARK    2  A    between atoms: O_3  and  C_28
REMARK    3  A    between atoms: O_6  and  C_27
REMARK    4  A    between atoms: O_6  and  C_30
REMARK    5  A    between atoms: C_18  and  C_28
REMARK    6  A    between atoms: C_26  and  C_29
REMARK    7  A    between atoms: C_31  and  C_34
REMARK                            x       y       z     vdW  Elec       q    Type
REMARK                         _______ _______ _______ _____ _____    ______ ____
ROOT
ATOM      1  O   UNL     1     111.492 128.518 135.461  0.00  0.00    +0.000 OA
ENDROOT
BRANCH   1   6
ATOM      2  O   UNL     1     113.365 126.941 136.462  0.00  0.00    +0.000 OA
ATOM      3  O   UNL     1     110.536 126.761 135.481  0.00  0.00    +0.000 OA
ATOM      4  O   UNL     1     110.490 125.046 135.819  0.00  0.00    +0.000 OA
ATOM      5  O   UNL     1     113.362 123.484 137.177  0.00  0.00    +0.000 OA
ATOM      6  C   UNL     1     111.957 127.699 135.798  0.00  0.00    +0.000 A 
ATOM      7  C   UNL     1     112.900 127.759 136.125  0.00  0.00    +0.000 A 
ATOM      8  C   UNL     1     111.479 126.821 135.808  0.00  0.00    +0.000 A 
ATOM      9  C   UNL     1     111.944 126.003 136.145  0.00  0.00    +0.000 A 
ATOM     10  C   UNL     1     112.887 126.063 136.472  0.00  0.00    +0.000 A 
ATOM     11  C   UNL     1     111.433 125.095 136.149  0.00  0.00    +0.000 A 
ATOM     12  C   UNL     1     113.385 125.219 136.826  0.00  0.00    +0.000 A 
ATOM     13  C   UNL     1     111.911 124.238 136.499  0.00  0.00    +0.000 A 
ATOM     14  C   UNL     1     112.894 124.300 136.840  0.00  0.00    +0.000 A 
BRANCH   7  17
ATOM     15  O   UNL     1     114.061 130.562 137.798  0.00  0.00    +0.000 OA
ATOM     16  O   UNL     1     114.811 131.273 136.086  0.00  0.00    +0.000 OA
ATOM     17  C   UNL     1     113.378 128.638 136.116  0.00  0.00    +0.000 A 
ATOM     18  C   UNL     1     113.480 129.161 136.962  0.00  0.00    +0.000 A 
ATOM     19  C   UNL     1     113.753 128.993 135.260  0.00  0.00    +0.000 A 
ATOM     20  C   UNL     1     113.958 130.039 136.952  0.00  0.00    +0.000 A 
ATOM     21  C   UNL     1     114.230 129.872 135.250  0.00  0.00    +0.000 A 
ATOM     22  C   UNL     1     114.333 130.395 136.096  0.00  0.00    +0.000 A 
ENDBRANCH   7  17
ENDBRANCH   1   6
BRANCH   1  31
ATOM     23  O   UNL     1     110.631 128.677 136.956  0.00  0.00    +0.000 OA
ATOM     24  O   UNL     1     108.541 130.166 137.601  0.00  0.00    +0.000 OA
ATOM     25  O   UNL     1     108.788 130.672 135.682  0.00  0.00    +0.000 OA
ATOM     26  O   UNL     1     110.263 129.848 134.612  0.00  0.00    +0.000 OA
ATOM     27  C   UNL     1     109.893 129.089 137.491  0.00  0.00    +0.000 C 
ATOM     28  C   UNL     1     109.279 129.754 137.066  0.00  0.00    +0.000 C 
ATOM     29  C   UNL     1     109.402 130.007 136.107  0.00  0.00    +0.000 C 
ATOM     30  C   UNL     1     110.140 129.595 135.572  0.00  0.00    +0.000 C 
ATOM     31  C   UNL     1     110.754 128.930 135.996  0.00  0.00    +0.000 C 
BRANCH  27  32
ATOM     32  C   UNL     1     109.770 128.835 138.450  0.00  0.00    +0.000 C 
BRANCH  32  33
ATOM     33  O   UNL     1     110.049 127.929 138.768  0.00  0.00    +0.000 OA
BRANCH  33  39
ATOM     34  O   UNL     1     109.081 128.128 140.190  0.00  0.00    +0.000 OA
ATOM     35  O   UNL     1     110.505 126.068 139.339  0.00  0.00    +0.000 OA
ATOM     36  O   UNL     1     109.766 125.336 141.047  0.00  0.00    +0.000 OA
ATOM     37  O   UNL     1     108.570 126.465 142.184  0.00  0.00    +0.000 OA
ATOM     38  C   UNL     1     109.907 126.632 139.907  0.00  0.00    +0.000 C 
ATOM     39  C   UNL     1     109.679 127.563 139.622  0.00  0.00    +0.000 C 
ATOM     40  C   UNL     1     109.537 126.266 140.761  0.00  0.00    +0.000 C 
ATOM     41  C   UNL     1     108.939 126.831 141.330  0.00  0.00    +0.000 C 
ATOM     42  C   UNL     1     108.711 127.762 141.044  0.00  0.00    +0.000 C 
BRANCH  42  44
ATOM     43  O   UNL     1     107.524 129.015 141.189  0.00  0.00    +0.000 OA
ATOM     44  C   UNL     1     108.113 128.327 141.613  0.00  0.00    +0.000 C 
ENDBRANCH  42  44
ENDBRANCH  33  39
ENDBRANCH  32  33
ENDBRANCH  27  32
ENDBRANCH   1  31
TORSDOF 7
ENDMDL
MODEL 3
REMARK VINA RESULT:     -10.0      1.616      5.373
REMARK  Name = 44259098
REMARK  7 active torsions:
REMARK  status: ('A' for Active; 'I' for Inactive)
REMARK    1  A    between atoms: O_3  and  C_23
REMARK    2  A    between atoms: O_3  and  C_28
REMARK    3  A    between atoms: O_6  and  C_27
REMARK    4  A    between atoms: O_6  and  C_30
REMARK    5  A    between atoms: C_18  and  C_28
REMARK    6  A    between atoms: C_26  and  C_29
REMARK    7  A    between atoms: C_31  and  C_34
REMARK                            x       y       z     vdW  Elec       q    Type
REMARK                         _______ _______ _______ _____ _____    ______ ____
ROOT
ATOM      1  O   UNL     1     112.559 127.129 138.546  0.00  0.00    +0.000 OA
ENDROOT
BRANCH   1   6
ATOM      2  O   UNL     1     113.399 127.783 136.124  0.00  0.00    +0.000 OA
ATOM      3  O   UNL     1     113.137 129.020 138.844  0.00  0.00    +0.000 OA
ATOM      4  O   UNL     1     113.805 130.527 138.262  0.00  0.00    +0.000 OA
ATOM      5  O   UNL     1     114.757 130.787 134.862  0.00  0.00    +0.000 OA
ATOM      6  C   UNL     1     112.936 127.662 137.789  0.00  0.00    +0.000 A 
ATOM      7  C   UNL     1     113.023 127.250 136.882  0.00  0.00    +0.000 A 
ATOM      8  C   UNL     1     113.224 128.608 137.938  0.00  0.00    +0.000 A 
ATOM      9  C   UNL     1     113.601 129.141 137.180  0.00  0.00    +0.000 A 
ATOM     10  C   UNL     1     113.688 128.729 136.273  0.00  0.00    +0.000 A 
ATOM     11  C   UNL     1     113.897 130.125 137.351  0.00  0.00    +0.000 A 
ATOM     12  C   UNL     1     114.078 129.271 135.474  0.00  0.00    +0.000 A 
ATOM     13  C   UNL     1     114.290 130.687 136.567  0.00  0.00    +0.000 A 
ATOM     14  C   UNL     1     114.381 130.257 135.622  0.00  0.00    +0.000 A 
BRANCH   7  17
ATOM     15  O   UNL     1     110.721 124.975 135.646  0.00  0.00    +0.000 OA
ATOM     16  O   UNL     1     111.868 123.467 136.285  0.00  0.00    +0.000 OA
ATOM     17  C   UNL     1     112.734 126.304 136.733  0.00  0.00    +0.000 A 
ATOM     18  C   UNL     1     111.872 126.112 136.264  0.00  0.00    +0.000 A 
ATOM     19  C   UNL     1     113.308 125.550 137.053  0.00  0.00    +0.000 A 
ATOM     20  C   UNL     1     111.584 125.167 136.115  0.00  0.00    +0.000 A 
ATOM     21  C   UNL     1     113.019 124.604 136.903  0.00  0.00    +0.000 A 
ATOM     22  C   UNL     1     112.157 124.413 136.435  0.00  0.00    +0.000 A 
ENDBRANCH   7  17
ENDBRANCH   1   6
BRANCH   1  31
ATOM     23  O   UNL     1     111.076 128.018 138.445  0.00  0.00    +0.000 OA
ATOM     24  O   UNL     1     108.938 128.003 140.003  0.00  0.00    +0.000 OA
ATOM     25  O   UNL     1     110.094 126.663 140.934  0.00  0.00    +0.000 OA
ATOM     26  O   UNL     1     111.904 126.226 140.206  0.00  0.00    +0.000 OA
ATOM     27  C   UNL     1     110.171 128.236 138.809  0.00  0.00    +0.000 C 
ATOM     28  C   UNL     1     109.843 127.785 139.639  0.00  0.00    +0.000 C 
ATOM     29  C   UNL     1     110.421 127.114 140.104  0.00  0.00    +0.000 C 
ATOM     30  C   UNL     1     111.327 126.896 139.740  0.00  0.00    +0.000 C 
ATOM     31  C   UNL     1     111.654 127.348 138.910  0.00  0.00    +0.000 C 
BRANCH  27  32
ATOM     32  C   UNL     1     109.593 128.907 138.343  0.00  0.00    +0.000 C 
BRANCH  32  33
ATOM     33  O   UNL     1     109.603 128.967 137.345  0.00  0.00    +0.000 OA
BRANCH  33  39
ATOM     34  O   UNL     1     110.123 130.604 137.122  0.00  0.00    +0.000 OA
ATOM     35  O   UNL     1     108.149 129.246 136.000  0.00  0.00    +0.000 OA
ATOM     36  O   UNL     1     107.942 131.022 135.105  0.00  0.00    +0.000 OA
ATOM     37  O   UNL     1     109.190 132.520 135.554  0.00  0.00    +0.000 OA
ATOM     38  C   UNL     1     108.773 129.995 136.225  0.00  0.00    +0.000 C 
ATOM     39  C   UNL     1     109.499 129.855 136.897  0.00  0.00    +0.000 C 
ATOM     40  C   UNL     1     108.669 130.883 135.777  0.00  0.00    +0.000 C 
ATOM     41  C   UNL     1     109.293 131.632 136.002  0.00  0.00    +0.000 C 
ATOM     42  C   UNL     1     110.020 131.492 136.674  0.00  0.00    +0.000 C 
BRANCH  42  44
ATOM     43  O   UNL     1     111.057 132.292 137.808  0.00  0.00    +0.000 OA
ATOM     44  C   UNL     1     110.644 132.241 136.899  0.00  0.00    +0.000 C 
ENDBRANCH  42  44
ENDBRANCH  33  39
ENDBRANCH  32  33
ENDBRANCH  27  32
ENDBRANCH   1  31
TORSDOF 7
ENDMDL
MODEL 4
REMARK VINA RESULT:      -9.8      0.995      1.096
REMARK  Name = 44259098
REMARK  7 active torsions:
REMARK  status: ('A' for Active; 'I' for Inactive)
REMARK    1  A    between atoms: O_3  and  C_23
REMARK    2  A    between atoms: O_3  and  C_28
REMARK    3  A    between atoms: O_6  and  C_27
REMARK    4  A    between atoms: O_6  and  C_30
REMARK    5  A    between atoms: C_18  and  C_28
REMARK    6  A    between atoms: C_26  and  C_29
REMARK    7  A    between atoms: C_31  and  C_34
REMARK                            x       y       z     vdW  Elec       q    Type
REMARK                         _______ _______ _______ _____ _____    ______ ____
ROOT
ATOM      1  O   UNL     1     112.579 128.602 136.196  0.00  0.00    +0.000 OA
ENDROOT
BRANCH   1   6
ATOM      2  O   UNL     1     111.098 126.413 136.093  0.00  0.00    +0.000 OA
ATOM      3  O   UNL     1     113.922 127.213 136.714  0.00  0.00    +0.000 OA
ATOM      4  O   UNL     1     114.360 125.552 137.034  0.00  0.00    +0.000 OA
ATOM      5  O   UNL     1     111.894 123.031 136.721  0.00  0.00    +0.000 OA
ATOM      6  C   UNL     1     112.309 127.641 136.248  0.00  0.00    +0.000 A 
ATOM      7  C   UNL     1     111.368 127.374 136.041  0.00  0.00    +0.000 A 
ATOM      8  C   UNL     1     112.981 126.946 136.507  0.00  0.00    +0.000 A 
ATOM      9  C   UNL     1     112.711 125.985 136.559  0.00  0.00    +0.000 A 
ATOM     10  C   UNL     1     111.769 125.718 136.352  0.00  0.00    +0.000 A 
ATOM     11  C   UNL     1     113.421 125.273 136.830  0.00  0.00    +0.000 A 
ATOM     12  C   UNL     1     111.473 124.720 136.401  0.00  0.00    +0.000 A 
ATOM     13  C   UNL     1     113.148 124.270 136.886  0.00  0.00    +0.000 A 
ATOM     14  C   UNL     1     112.167 123.991 136.670  0.00  0.00    +0.000 A 
BRANCH   7  17
ATOM     15  O   UNL     1     108.622 129.333 136.830  0.00  0.00    +0.000 OA
ATOM     16  O   UNL     1     108.683 130.152 135.006  0.00  0.00    +0.000 OA
ATOM     17  C   UNL     1     110.697 128.068 135.783  0.00  0.00    +0.000 A 
ATOM     18  C   UNL     1     109.995 128.354 136.436  0.00  0.00    +0.000 A 
ATOM     19  C   UNL     1     110.727 128.478 134.871  0.00  0.00    +0.000 A 
ATOM     20  C   UNL     1     109.324 129.048 136.177  0.00  0.00    +0.000 A 
ATOM     21  C   UNL     1     110.055 129.172 134.612  0.00  0.00    +0.000 A 
ATOM     22  C   UNL     1     109.354 129.457 135.265  0.00  0.00    +0.000 A 
ENDBRANCH   7  17
ENDBRANCH   1   6
BRANCH   1  31
ATOM     23  O   UNL     1     112.428 128.767 137.914  0.00  0.00    +0.000 OA
ATOM     24  O   UNL     1     113.255 130.674 139.551  0.00  0.00    +0.000 OA
ATOM     25  O   UNL     1     113.894 131.381 137.793  0.00  0.00    +0.000 OA
ATOM     26  O   UNL     1     113.556 130.346 136.116  0.00  0.00    +0.000 OA
ATOM     27  C   UNL     1     112.597 129.284 138.753  0.00  0.00    +0.000 C 
ATOM     28  C   UNL     1     113.086 130.156 138.712  0.00  0.00    +0.000 C 
ATOM     29  C   UNL     1     113.405 130.510 137.833  0.00  0.00    +0.000 C 
ATOM     30  C   UNL     1     113.236 129.992 136.995  0.00  0.00    +0.000 C 
ATOM     31  C   UNL     1     112.748 129.120 137.035  0.00  0.00    +0.000 C 
BRANCH  27  32
ATOM     32  C   UNL     1     112.278 128.931 139.632  0.00  0.00    +0.000 C 
BRANCH  32  33
ATOM     33  O   UNL     1     112.038 127.964 139.724  0.00  0.00    +0.000 OA
BRANCH  33  39
ATOM     34  O   UNL     1     110.761 128.384 140.816  0.00  0.00    +0.000 OA
ATOM     35  O   UNL     1     111.624 126.025 139.986  0.00  0.00    +0.000 OA
ATOM     36  O   UNL     1     110.139 125.476 141.208  0.00  0.00    +0.000 OA
ATOM     37  O   UNL     1     109.069 126.865 142.169  0.00  0.00    +0.000 OA
ATOM     38  C   UNL     1     111.089 126.720 140.466  0.00  0.00    +0.000 C 
ATOM     39  C   UNL     1     111.296 127.690 140.336  0.00  0.00    +0.000 C 
ATOM     40  C   UNL     1     110.346 126.445 141.077  0.00  0.00    +0.000 C 
ATOM     41  C   UNL     1     109.811 127.140 141.558  0.00  0.00    +0.000 C 
ATOM     42  C   UNL     1     110.018 128.110 141.427  0.00  0.00    +0.000 C 
BRANCH  42  44
ATOM     43  O   UNL     1     109.241 129.657 141.445  0.00  0.00    +0.000 OA
ATOM     44  C   UNL     1     109.483 128.804 141.908  0.00  0.00    +0.000 C 
ENDBRANCH  42  44
ENDBRANCH  33  39
ENDBRANCH  32  33
ENDBRANCH  27  32
ENDBRANCH   1  31
TORSDOF 7
ENDMDL
MODEL 5
REMARK VINA RESULT:      -9.8      1.570      4.328
REMARK  Name = 44259098
REMARK  7 active torsions:
REMARK  status: ('A' for Active; 'I' for Inactive)
REMARK    1  A    between atoms: O_3  and  C_23
REMARK    2  A    between atoms: O_3  and  C_28
REMARK    3  A    between atoms: O_6  and  C_27
REMARK    4  A    between atoms: O_6  and  C_30
REMARK    5  A    between atoms: C_18  and  C_28
REMARK    6  A    between atoms: C_26  and  C_29
REMARK    7  A    between atoms: C_31  and  C_34
REMARK                            x       y       z     vdW  Elec       q    Type
REMARK                         _______ _______ _______ _____ _____    ______ ____
ROOT
ATOM      1  O   UNL     1     112.909 127.672 139.655  0.00  0.00    +0.000 OA
ENDROOT
BRANCH   1   6
ATOM      2  O   UNL     1     111.357 125.713 138.788  0.00  0.00    +0.000 OA
ATOM      3  O   UNL     1     114.026 126.934 138.170  0.00  0.00    +0.000 OA
ATOM      4  O   UNL     1     114.287 125.793 136.871  0.00  0.00    +0.000 OA
ATOM      5  O   UNL     1     111.799 123.369 136.185  0.00  0.00    +0.000 OA
ATOM      6  C   UNL     1     112.578 126.896 139.119  0.00  0.00    +0.000 A 
ATOM      7  C   UNL     1     111.688 126.488 139.324  0.00  0.00    +0.000 A 
ATOM      8  C   UNL     1     113.137 126.527 138.376  0.00  0.00    +0.000 A 
ATOM      9  C   UNL     1     112.805 125.751 137.839  0.00  0.00    +0.000 A 
ATOM     10  C   UNL     1     111.916 125.344 138.045  0.00  0.00    +0.000 A 
ATOM     11  C   UNL     1     113.399 125.378 137.068  0.00  0.00    +0.000 A 
ATOM     12  C   UNL     1     111.557 124.535 137.495  0.00  0.00    +0.000 A 
ATOM     13  C   UNL     1     113.061 124.570 136.505  0.00  0.00    +0.000 A 
ATOM     14  C   UNL     1     112.133 124.145 136.719  0.00  0.00    +0.000 A 
BRANCH   7  17
ATOM     15  O   UNL     1     108.895 128.236 140.394  0.00  0.00    +0.000 OA
ATOM     16  O   UNL     1     109.453 127.964 142.296  0.00  0.00    +0.000 OA
ATOM     17  C   UNL     1     111.129 126.857 140.067  0.00  0.00    +0.000 A 
ATOM     18  C   UNL     1     110.292 127.362 139.859  0.00  0.00    +0.000 A 
ATOM     19  C   UNL     1     111.408 126.721 141.018  0.00  0.00    +0.000 A 
ATOM     20  C   UNL     1     109.733 127.731 140.602  0.00  0.00    +0.000 A 
ATOM     21  C   UNL     1     110.849 127.090 141.761  0.00  0.00    +0.000 A 
ATOM     22  C   UNL     1     110.012 127.595 141.553  0.00  0.00    +0.000 A 
ENDBRANCH   7  17
ENDBRANCH   1   6
BRANCH   1  31
ATOM     23  O   UNL     1     112.390 128.800 138.448  0.00  0.00    +0.000 OA
ATOM     24  O   UNL     1     113.098 131.310 138.005  0.00  0.00    +0.000 OA
ATOM     25  O   UNL     1     114.231 130.873 139.594  0.00  0.00    +0.000 OA
ATOM     26  O   UNL     1     114.136 129.054 140.419  0.00  0.00    +0.000 OA
ATOM     27  C   UNL     1     112.437 129.710 138.036  0.00  0.00    +0.000 C 
ATOM     28  C   UNL     1     113.050 130.401 138.418  0.00  0.00    +0.000 C 
ATOM     29  C   UNL     1     113.617 130.182 139.212  0.00  0.00    +0.000 C 
ATOM     30  C   UNL     1     113.570 129.272 139.625  0.00  0.00    +0.000 C 
ATOM     31  C   UNL     1     112.956 128.581 139.243  0.00  0.00    +0.000 C 
BRANCH  27  32
ATOM     32  C   UNL     1     111.870 129.928 137.241  0.00  0.00    +0.000 C 
BRANCH  32  33
ATOM     33  O   UNL     1     111.234 129.248 136.878  0.00  0.00    +0.000 OA
BRANCH  33  39
ATOM     34  O   UNL     1     110.080 130.494 136.539  0.00  0.00    +0.000 OA
ATOM     35  O   UNL     1     109.876 127.860 136.397  0.00  0.00    +0.000 OA
ATOM     36  O   UNL     1     108.044 128.413 135.818  0.00  0.00    +0.000 OA
ATOM     37  O   UNL     1     107.569 130.353 135.719  0.00  0.00    +0.000 OA
ATOM     38  C   UNL     1     109.639 128.830 136.348  0.00  0.00    +0.000 C 
ATOM     39  C   UNL     1     110.318 129.524 136.588  0.00  0.00    +0.000 C 
ATOM     40  C   UNL     1     108.723 129.107 136.058  0.00  0.00    +0.000 C 
ATOM     41  C   UNL     1     108.485 130.077 136.009  0.00  0.00    +0.000 C 
ATOM     42  C   UNL     1     109.164 130.770 136.250  0.00  0.00    +0.000 C 
BRANCH  42  44
ATOM     43  O   UNL     1     109.647 132.427 136.104  0.00  0.00    +0.000 OA
ATOM     44  C   UNL     1     108.926 131.741 136.200  0.00  0.00    +0.000 C 
ENDBRANCH  42  44
ENDBRANCH  33  39
ENDBRANCH  32  33
ENDBRANCH  27  32
ENDBRANCH   1  31
TORSDOF 7
ENDMDL
MODEL 6
REMARK VINA RESULT:      -9.7      2.325      3.153
REMARK  Name = 44259098
REMARK  7 active torsions:
REMARK  status: ('A' for Active; 'I' for Inactive)
REMARK    1  A    between atoms: O_3  and  C_23
REMARK    2  A    between atoms: O_3  and  C_28
REMARK    3  A    between atoms: O_6  and  C_27
REMARK    4  A    between atoms: O_6  and  C_30
REMARK    5  A    between atoms: C_18  and  C_28
REMARK    6  A    between atoms: C_26  and  C_29
REMARK    7  A    between atoms: C_31  and  C_34
REMARK                            x       y       z     vdW  Elec       q    Type
REMARK                         _______ _______ _______ _____ _____    ______ ____
ROOT
ATOM      1  O   UNL     1     111.559 129.171 137.608  0.00  0.00    +0.000 OA
ENDROOT
BRANCH   1   6
ATOM      2  O   UNL     1     110.886 127.063 136.159  0.00  0.00    +0.000 OA
ATOM      3  O   UNL     1     112.689 127.755 138.455  0.00  0.00    +0.000 OA
ATOM      4  O   UNL     1     113.244 126.100 138.563  0.00  0.00    +0.000 OA
ATOM      5  O   UNL     1     111.950 123.700 136.306  0.00  0.00    +0.000 OA
ATOM      6  C   UNL     1     111.523 128.232 137.266  0.00  0.00    +0.000 A 
ATOM      7  C   UNL     1     110.922 128.002 136.501  0.00  0.00    +0.000 A 
ATOM      8  C   UNL     1     112.088 127.524 137.689  0.00  0.00    +0.000 A 
ATOM      9  C   UNL     1     112.052 126.585 137.347  0.00  0.00    +0.000 A 
ATOM     10  C   UNL     1     111.451 126.354 136.582  0.00  0.00    +0.000 A 
ATOM     11  C   UNL     1     112.647 125.858 137.799  0.00  0.00    +0.000 A 
ATOM     12  C   UNL     1     111.403 125.381 136.215  0.00  0.00    +0.000 A 
ATOM     13  C   UNL     1     112.615 124.878 137.448  0.00  0.00    +0.000 A 
ATOM     14  C   UNL     1     111.988 124.637 136.651  0.00  0.00    +0.000 A 
BRANCH   7  17
ATOM     15  O   UNL     1     107.832 129.497 136.041  0.00  0.00    +0.000 OA
ATOM     16  O   UNL     1     108.663 130.835 134.808  0.00  0.00    +0.000 OA
ATOM     17  C   UNL     1     110.357 128.710 136.078  0.00  0.00    +0.000 A 
ATOM     18  C   UNL     1     109.377 128.749 136.271  0.00  0.00    +0.000 A 
ATOM     19  C   UNL     1     110.773 129.379 135.461  0.00  0.00    +0.000 A 
ATOM     20  C   UNL     1     108.812 129.458 135.848  0.00  0.00    +0.000 A 
ATOM     21  C   UNL     1     110.208 130.087 135.038  0.00  0.00    +0.000 A 
ATOM     22  C   UNL     1     109.228 130.126 135.231  0.00  0.00    +0.000 A 
ENDBRANCH   7  17
ENDBRANCH   1   6
BRANCH   1  31
ATOM     23  O   UNL     1     110.540 128.746 138.942  0.00  0.00    +0.000 OA
ATOM     24  O   UNL     1     109.931 130.074 141.148  0.00  0.00    +0.000 OA
ATOM     25  O   UNL     1     111.155 131.376 140.249  0.00  0.00    +0.000 OA
ATOM     26  O   UNL     1     111.969 130.924 138.479  0.00  0.00    +0.000 OA
ATOM     27  C   UNL     1     110.133 128.972 139.827  0.00  0.00    +0.000 C 
ATOM     28  C   UNL     1     110.338 129.849 140.263  0.00  0.00    +0.000 C 
ATOM     29  C   UNL     1     110.950 130.499 139.814  0.00  0.00    +0.000 C 
ATOM     30  C   UNL     1     111.357 130.273 138.929  0.00  0.00    +0.000 C 
ATOM     31  C   UNL     1     111.152 129.397 138.493  0.00  0.00    +0.000 C 
BRANCH  27  32
ATOM     32  C   UNL     1     109.521 128.322 140.277  0.00  0.00    +0.000 C 
BRANCH  32  33
ATOM     33  O   UNL     1     109.505 127.365 139.984  0.00  0.00    +0.000 OA
BRANCH  33  39
ATOM     34  O   UNL     1     108.074 126.993 140.885  0.00  0.00    +0.000 OA
ATOM     35  O   UNL     1     110.094 125.460 140.131  0.00  0.00    +0.000 OA
ATOM     36  O   UNL     1     108.957 124.134 141.105  0.00  0.00    +0.000 OA
ATOM     37  O   UNL     1     107.231 124.714 141.933  0.00  0.00    +0.000 OA
ATOM     38  C   UNL     1     109.231 125.750 140.545  0.00  0.00    +0.000 C 
ATOM     39  C   UNL     1     108.937 126.703 140.471  0.00  0.00    +0.000 C 
ATOM     40  C   UNL     1     108.662 125.087 141.032  0.00  0.00    +0.000 C 
ATOM     41  C   UNL     1     107.800 125.377 141.445  0.00  0.00    +0.000 C 
ATOM     42  C   UNL     1     107.505 126.330 141.372  0.00  0.00    +0.000 C 
BRANCH  42  44
ATOM     43  O   UNL     1     106.253 127.512 141.557  0.00  0.00    +0.000 OA
ATOM     44  C   UNL     1     106.642 126.620 141.786  0.00  0.00    +0.000 C 
ENDBRANCH  42  44
ENDBRANCH  33  39
ENDBRANCH  32  33
ENDBRANCH  27  32
ENDBRANCH   1  31
TORSDOF 7
ENDMDL
MODEL 7
REMARK VINA RESULT:      -9.6      1.743      4.764
REMARK  Name = 44259098
REMARK  7 active torsions:
REMARK  status: ('A' for Active; 'I' for Inactive)
REMARK    1  A    between atoms: O_3  and  C_23
REMARK    2  A    between atoms: O_3  and  C_28
REMARK    3  A    between atoms: O_6  and  C_27
REMARK    4  A    between atoms: O_6  and  C_30
REMARK    5  A    between atoms: C_18  and  C_28
REMARK    6  A    between atoms: C_26  and  C_29
REMARK    7  A    between atoms: C_31  and  C_34
REMARK                            x       y       z     vdW  Elec       q    Type
REMARK                         _______ _______ _______ _____ _____    ______ ____
ROOT
ATOM      1  O   UNL     1     113.138 131.115 137.478  0.00  0.00    +0.000 OA
ENDROOT
BRANCH   1   6
ATOM      2  O   UNL     1     111.319 130.272 139.203  0.00  0.00    +0.000 OA
ATOM      3  O   UNL     1     114.304 130.359 138.916  0.00  0.00    +0.000 OA
ATOM      4  O   UNL     1     114.510 129.567 140.461  0.00  0.00    +0.000 OA
ATOM      5  O   UNL     1     111.642 128.670 142.332  0.00  0.00    +0.000 OA
ATOM      6  C   UNL     1     112.726 130.708 138.292  0.00  0.00    +0.000 A 
ATOM      7  C   UNL     1     111.731 130.679 138.388  0.00  0.00    +0.000 A 
ATOM      8  C   UNL     1     113.309 130.330 139.012  0.00  0.00    +0.000 A 
ATOM      9  C   UNL     1     112.896 129.922 139.827  0.00  0.00    +0.000 A 
ATOM     10  C   UNL     1     111.901 129.893 139.922  0.00  0.00    +0.000 A 
ATOM     11  C   UNL     1     113.516 129.532 140.567  0.00  0.00    +0.000 A 
ATOM     12  C   UNL     1     111.457 129.472 140.765  0.00  0.00    +0.000 A 
ATOM     13  C   UNL     1     113.094 129.106 141.419  0.00  0.00    +0.000 A 
ATOM     14  C   UNL     1     112.057 129.076 141.519  0.00  0.00    +0.000 A 
BRANCH   7  17
ATOM     15  O   UNL     1     110.412 133.417 136.726  0.00  0.00    +0.000 OA
ATOM     16  O   UNL     1     109.401 132.192 135.511  0.00  0.00    +0.000 OA
ATOM     17  C   UNL     1     111.148 131.057 137.669  0.00  0.00    +0.000 A 
ATOM     18  C   UNL     1     111.072 132.048 137.557  0.00  0.00    +0.000 A 
ATOM     19  C   UNL     1     110.643 130.445 137.061  0.00  0.00    +0.000 A 
ATOM     20  C   UNL     1     110.489 132.426 136.838  0.00  0.00    +0.000 A 
ATOM     21  C   UNL     1     110.060 130.823 136.342  0.00  0.00    +0.000 A 
ATOM     22  C   UNL     1     109.983 131.814 136.230  0.00  0.00    +0.000 A 
ENDBRANCH   7  17
ENDBRANCH   1   6
BRANCH   1  31
ATOM     23  O   UNL     1     113.407 129.550 136.786  0.00  0.00    +0.000 OA
ATOM     24  O   UNL     1     114.944 128.786 134.773  0.00  0.00    +0.000 OA
ATOM     25  O   UNL     1     115.310 130.752 134.803  0.00  0.00    +0.000 OA
ATOM     26  O   UNL     1     114.407 131.917 136.156  0.00  0.00    +0.000 OA
ATOM     27  C   UNL     1     113.858 128.968 136.110  0.00  0.00    +0.000 C 
ATOM     28  C   UNL     1     114.492 129.368 135.449  0.00  0.00    +0.000 C 
ATOM     29  C   UNL     1     114.676 130.351 135.464  0.00  0.00    +0.000 C 
ATOM     30  C   UNL     1     114.224 130.934 136.140  0.00  0.00    +0.000 C 
ATOM     31  C   UNL     1     113.590 130.533 136.801  0.00  0.00    +0.000 C 
BRANCH  27  32
ATOM     32  C   UNL     1     113.675 127.985 136.095  0.00  0.00    +0.000 C 
BRANCH  32  33
ATOM     33  O   UNL     1     112.799 127.634 136.425  0.00  0.00    +0.000 OA
BRANCH  33  39
ATOM     34  O   UNL     1     113.317 126.013 136.748  0.00  0.00    +0.000 OA
ATOM     35  O   UNL     1     111.045 126.941 135.759  0.00  0.00    +0.000 OA
ATOM     36  O   UNL     1     110.687 124.973 135.748  0.00  0.00    +0.000 OA
ATOM     37  O   UNL     1     112.082 123.699 136.403  0.00  0.00    +0.000 OA
ATOM     38  C   UNL     1     111.743 126.304 136.086  0.00  0.00    +0.000 C 
ATOM     39  C   UNL     1     112.619 126.650 136.420  0.00  0.00    +0.000 C 
ATOM     40  C   UNL     1     111.564 125.320 136.081  0.00  0.00    +0.000 C 
ATOM     41  C   UNL     1     112.261 124.683 136.409  0.00  0.00    +0.000 C 
ATOM     42  C   UNL     1     113.138 125.030 136.742  0.00  0.00    +0.000 C 
BRANCH  42  44
ATOM     43  O   UNL     1     114.734 124.734 137.347  0.00  0.00    +0.000 OA
ATOM     44  C   UNL     1     113.835 124.392 137.070  0.00  0.00    +0.000 C 
ENDBRANCH  42  44
ENDBRANCH  33  39
ENDBRANCH  32  33
ENDBRANCH  27  32
ENDBRANCH   1  31
TORSDOF 7
ENDMDL
MODEL 8
REMARK VINA RESULT:      -9.5      1.675      4.832
REMARK  Name = 44259098
REMARK  7 active torsions:
REMARK  status: ('A' for Active; 'I' for Inactive)
REMARK    1  A    between atoms: O_3  and  C_23
REMARK    2  A    between atoms: O_3  and  C_28
REMARK    3  A    between atoms: O_6  and  C_27
REMARK    4  A    between atoms: O_6  and  C_30
REMARK    5  A    between atoms: C_18  and  C_28
REMARK    6  A    between atoms: C_26  and  C_29
REMARK    7  A    between atoms: C_31  and  C_34
REMARK                            x       y       z     vdW  Elec       q    Type
REMARK                         _______ _______ _______ _____ _____    ______ ____
ROOT
ATOM      1  O   UNL     1     110.483 127.216 138.179  0.00  0.00    +0.000 OA
ENDROOT
BRANCH   1   6
ATOM      2  O   UNL     1     112.756 128.014 137.085  0.00  0.00    +0.000 OA
ATOM      3  O   UNL     1     110.416 129.178 138.559  0.00  0.00    +0.000 OA
ATOM      4  O   UNL     1     111.109 130.781 138.463  0.00  0.00    +0.000 OA
ATOM      5  O   UNL     1     114.228 131.214 136.846  0.00  0.00    +0.000 OA
ATOM      6  C   UNL     1     111.229 127.809 137.878  0.00  0.00    +0.000 A 
ATOM      7  C   UNL     1     112.009 127.421 137.387  0.00  0.00    +0.000 A 
ATOM      8  C   UNL     1     111.196 128.790 138.068  0.00  0.00    +0.000 A 
ATOM      9  C   UNL     1     111.942 129.383 137.766  0.00  0.00    +0.000 A 
ATOM     10  C   UNL     1     112.722 128.995 137.275  0.00  0.00    +0.000 A 
ATOM     11  C   UNL     1     111.893 130.404 137.971  0.00  0.00    +0.000 A 
ATOM     12  C   UNL     1     113.507 129.601 136.955  0.00  0.00    +0.000 A 
ATOM     13  C   UNL     1     112.667 131.028 137.661  0.00  0.00    +0.000 A 
ATOM     14  C   UNL     1     113.480 130.624 137.149  0.00  0.00    +0.000 A 
BRANCH   7  17
ATOM     15  O   UNL     1     110.917 124.677 135.577  0.00  0.00    +0.000 OA
ATOM     16  O   UNL     1     112.143 123.496 136.628  0.00  0.00    +0.000 OA
ATOM     17  C   UNL     1     112.043 126.440 137.197  0.00  0.00    +0.000 A 
ATOM     18  C   UNL     1     111.463 126.049 136.482  0.00  0.00    +0.000 A 
ATOM     19  C   UNL     1     112.655 125.849 137.722  0.00  0.00    +0.000 A 
ATOM     20  C   UNL     1     111.497 125.068 136.292  0.00  0.00    +0.000 A 
ATOM     21  C   UNL     1     112.689 124.868 137.533  0.00  0.00    +0.000 A 
ATOM     22  C   UNL     1     112.109 124.477 136.817  0.00  0.00    +0.000 A 
ENDBRANCH   7  17
ENDBRANCH   1   6
BRANCH   1  31
ATOM     23  O   UNL     1     111.028 127.357 139.818  0.00  0.00    +0.000 OA
ATOM     24  O   UNL     1     109.983 126.453 142.074  0.00  0.00    +0.000 OA
ATOM     25  O   UNL     1     108.643 125.790 140.745  0.00  0.00    +0.000 OA
ATOM     26  O   UNL     1     108.893 126.171 138.798  0.00  0.00    +0.000 OA
ATOM     27  C   UNL     1     110.902 127.166 140.791  0.00  0.00    +0.000 C 
ATOM     28  C   UNL     1     110.108 126.644 141.100  0.00  0.00    +0.000 C 
ATOM     29  C   UNL     1     109.438 126.312 140.436  0.00  0.00    +0.000 C 
ATOM     30  C   UNL     1     109.563 126.503 139.462  0.00  0.00    +0.000 C 
ATOM     31  C   UNL     1     110.358 127.025 139.153  0.00  0.00    +0.000 C 
BRANCH  27  32
ATOM     32  C   UNL     1     111.572 127.498 141.456  0.00  0.00    +0.000 C 
BRANCH  32  33
ATOM     33  O   UNL     1     112.516 127.668 141.172  0.00  0.00    +0.000 OA
BRANCH  33  39
ATOM     34  O   UNL     1     112.427 129.287 141.783  0.00  0.00    +0.000 OA
ATOM     35  O   UNL     1     114.241 128.107 140.260  0.00  0.00    +0.000 OA
ATOM     36  O   UNL     1     115.015 129.944 140.414  0.00  0.00    +0.000 OA
ATOM     37  O   UNL     1     114.064 131.344 141.481  0.00  0.00    +0.000 OA
ATOM     38  C   UNL     1     113.765 128.806 140.793  0.00  0.00    +0.000 C 
ATOM     39  C   UNL     1     112.903 128.587 141.249  0.00  0.00    +0.000 C 
ATOM     40  C   UNL     1     114.152 129.725 140.871  0.00  0.00    +0.000 C 
ATOM     41  C   UNL     1     113.677 130.425 141.404  0.00  0.00    +0.000 C 
ATOM     42  C   UNL     1     112.814 130.205 141.860  0.00  0.00    +0.000 C 
BRANCH  42  44
ATOM     43  O   UNL     1     111.623 130.640 143.039  0.00  0.00    +0.000 OA
ATOM     44  C   UNL     1     112.339 130.905 142.393  0.00  0.00    +0.000 C 
ENDBRANCH  42  44
ENDBRANCH  33  39
ENDBRANCH  32  33
ENDBRANCH  27  32
ENDBRANCH   1  31
TORSDOF 7
ENDMDL
MODEL 9
REMARK VINA RESULT:      -9.4      2.502      4.399
REMARK  Name = 44259098
REMARK  7 active torsions:
REMARK  status: ('A' for Active; 'I' for Inactive)
REMARK    1  A    between atoms: O_3  and  C_23
REMARK    2  A    between atoms: O_3  and  C_28
REMARK    3  A    between atoms: O_6  and  C_27
REMARK    4  A    between atoms: O_6  and  C_30
REMARK    5  A    between atoms: C_18  and  C_28
REMARK    6  A    between atoms: C_26  and  C_29
REMARK    7  A    between atoms: C_31  and  C_34
REMARK                            x       y       z     vdW  Elec       q    Type
REMARK                         _______ _______ _______ _____ _____    ______ ____
ROOT
ATOM      1  O   UNL     1     112.092 130.151 138.255  0.00  0.00    +0.000 OA
ENDROOT
BRANCH   1   6
ATOM      2  O   UNL     1     113.437 127.957 138.869  0.00  0.00    +0.000 OA
ATOM      3  O   UNL     1     111.366 128.871 136.901  0.00  0.00    +0.000 OA
ATOM      4  O   UNL     1     111.306 127.283 136.173  0.00  0.00    +0.000 OA
ATOM      5  O   UNL     1     113.381 124.720 137.460  0.00  0.00    +0.000 OA
ATOM      6  C   UNL     1     112.420 129.206 138.234  0.00  0.00    +0.000 A 
ATOM      7  C   UNL     1     113.110 128.901 138.890  0.00  0.00    +0.000 A 
ATOM      8  C   UNL     1     112.056 128.566 137.557  0.00  0.00    +0.000 A 
ATOM      9  C   UNL     1     112.384 127.622 137.535  0.00  0.00    +0.000 A 
ATOM     10  C   UNL     1     113.074 127.317 138.191  0.00  0.00    +0.000 A 
ATOM     11  C   UNL     1     111.996 126.967 136.824  0.00  0.00    +0.000 A 
ATOM     12  C   UNL     1     113.425 126.336 138.181  0.00  0.00    +0.000 A 
ATOM     13  C   UNL     1     112.332 125.981 136.795  0.00  0.00    +0.000 A 
ATOM     14  C   UNL     1     113.052 125.664 137.479  0.00  0.00    +0.000 A 
BRANCH   7  17
ATOM     15  O   UNL     1     113.123 130.171 142.113  0.00  0.00    +0.000 OA
ATOM     16  O   UNL     1     114.563 131.460 141.599  0.00  0.00    +0.000 OA
ATOM     17  C   UNL     1     113.473 129.541 139.567  0.00  0.00    +0.000 A 
ATOM     18  C   UNL     1     113.117 129.536 140.501  0.00  0.00    +0.000 A 
ATOM     19  C   UNL     1     114.193 130.186 139.310  0.00  0.00    +0.000 A 
ATOM     20  C   UNL     1     113.480 130.176 141.179  0.00  0.00    +0.000 A 
ATOM     21  C   UNL     1     114.556 130.825 139.988  0.00  0.00    +0.000 A 
ATOM     22  C   UNL     1     114.200 130.820 140.922  0.00  0.00    +0.000 A 
ENDBRANCH   7  17
ENDBRANCH   1   6
BRANCH   1  31
ATOM     23  O   UNL     1     110.670 129.663 139.114  0.00  0.00    +0.000 OA
ATOM     24  O   UNL     1     108.426 130.966 139.632  0.00  0.00    +0.000 OA
ATOM     25  O   UNL     1     109.439 132.350 138.603  0.00  0.00    +0.000 OA
ATOM     26  O   UNL     1     111.272 131.942 137.914  0.00  0.00    +0.000 OA
ATOM     27  C   UNL     1     109.753 129.867 139.459  0.00  0.00    +0.000 C 
ATOM     28  C   UNL     1     109.343 130.762 139.288  0.00  0.00    +0.000 C 
ATOM     29  C   UNL     1     109.849 131.454 138.773  0.00  0.00    +0.000 C 
ATOM     30  C   UNL     1     110.766 131.250 138.429  0.00  0.00    +0.000 C 
ATOM     31  C   UNL     1     111.176 130.355 138.600  0.00  0.00    +0.000 C 
BRANCH  27  32
ATOM     32  C   UNL     1     109.247 129.175 139.973  0.00  0.00    +0.000 C 
BRANCH  32  33
ATOM     33  O   UNL     1     109.694 128.319 140.235  0.00  0.00    +0.000 OA
BRANCH  33  39
ATOM     34  O   UNL     1     108.288 127.787 141.094  0.00  0.00    +0.000 OA
ATOM     35  O   UNL     1     110.374 126.439 140.182  0.00  0.00    +0.000 OA
ATOM     36  O   UNL     1     109.307 124.967 141.015  0.00  0.00    +0.000 OA
ATOM     37  O   UNL     1     107.561 125.374 141.900  0.00  0.00    +0.000 OA
ATOM     38  C   UNL     1     109.501 126.643 140.625  0.00  0.00    +0.000 C 
ATOM     39  C   UNL     1     109.161 127.583 140.651  0.00  0.00    +0.000 C 
ATOM     40  C   UNL     1     108.967 125.907 141.041  0.00  0.00    +0.000 C 
ATOM     41  C   UNL     1     108.094 126.111 141.484  0.00  0.00    +0.000 C 
ATOM     42  C   UNL     1     107.754 127.051 141.511  0.00  0.00    +0.000 C 
BRANCH  42  44
ATOM     43  O   UNL     1     106.339 128.039 141.653  0.00  0.00    +0.000 OA
ATOM     44  C   UNL     1     106.881 127.255 141.953  0.00  0.00    +0.000 C 
ENDBRANCH  42  44
ENDBRANCH  33  39
ENDBRANCH  32  33
ENDBRANCH  27  32
ENDBRANCH   1  31
TORSDOF 7
ENDMDL
MODEL 10
REMARK VINA RESULT:      -9.4      1.987      4.091
REMARK  Name = 44259098
REMARK  7 active torsions:
REMARK  status: ('A' for Active; 'I' for Inactive)
REMARK    1  A    between atoms: O_3  and  C_23
REMARK    2  A    between atoms: O_3  and  C_28
REMARK    3  A    between atoms: O_6  and  C_27
REMARK    4  A    between atoms: O_6  and  C_30
REMARK    5  A    between atoms: C_18  and  C_28
REMARK    6  A    between atoms: C_26  and  C_29
REMARK    7  A    between atoms: C_31  and  C_34
REMARK                            x       y       z     vdW  Elec       q    Type
REMARK                         _______ _______ _______ _____ _____    ______ ____
ROOT
ATOM      1  O   UNL     1     112.033 128.034 137.998  0.00  0.00    +0.000 OA
ENDROOT
BRANCH   1   6
ATOM      2  O   UNL     1     111.211 126.032 139.521  0.00  0.00    +0.000 OA
ATOM      3  O   UNL     1     110.421 128.849 138.857  0.00  0.00    +0.000 OA
ATOM      4  O   UNL     1     109.051 128.757 139.939  0.00  0.00    +0.000 OA
ATOM      5  O   UNL     1     108.469 125.758 141.727  0.00  0.00    +0.000 OA
ATOM      6  C   UNL     1     111.490 127.502 138.649  0.00  0.00    +0.000 A 
ATOM      7  C   UNL     1     111.754 126.564 138.870  0.00  0.00    +0.000 A 
ATOM      8  C   UNL     1     110.684 127.910 139.078  0.00  0.00    +0.000 A 
ATOM      9  C   UNL     1     110.142 127.379 139.729  0.00  0.00    +0.000 A 
ATOM     10  C   UNL     1     110.405 126.440 139.950  0.00  0.00    +0.000 A 
ATOM     11  C   UNL     1     109.305 127.817 140.168  0.00  0.00    +0.000 A 
ATOM     12  C   UNL     1     109.850 125.874 140.626  0.00  0.00    +0.000 A 
ATOM     13  C   UNL     1     108.735 127.270 140.846  0.00  0.00    +0.000 A 
ATOM     14  C   UNL     1     109.009 126.292 141.077  0.00  0.00    +0.000 A 
BRANCH   7  17
ATOM     15  O   UNL     1     113.222 124.923 136.196  0.00  0.00    +0.000 OA
ATOM     16  O   UNL     1     114.978 124.933 137.154  0.00  0.00    +0.000 OA
ATOM     17  C   UNL     1     112.560 126.156 138.441  0.00  0.00    +0.000 A 
ATOM     18  C   UNL     1     112.488 125.743 137.533  0.00  0.00    +0.000 A 
ATOM     19  C   UNL     1     113.438 126.161 138.920  0.00  0.00    +0.000 A 
ATOM     20  C   UNL     1     113.294 125.335 137.104  0.00  0.00    +0.000 A 
ATOM     21  C   UNL     1     114.244 125.753 138.491  0.00  0.00    +0.000 A 
ATOM     22  C   UNL     1     114.172 125.341 137.583  0.00  0.00    +0.000 A 
ENDBRANCH   7  17
ENDBRANCH   1   6
BRANCH   1  31
ATOM     23  O   UNL     1     112.652 128.996 139.298  0.00  0.00    +0.000 OA
ATOM     24  O   UNL     1     114.274 131.086 139.286  0.00  0.00    +0.000 OA
ATOM     25  O   UNL     1     114.157 130.687 137.329  0.00  0.00    +0.000 OA
ATOM     26  O   UNL     1     113.036 129.161 136.686  0.00  0.00    +0.000 OA
ATOM     27  C   UNL     1     113.212 129.759 139.620  0.00  0.00    +0.000 C 
ATOM     28  C   UNL     1     113.714 130.323 138.964  0.00  0.00    +0.000 C 
ATOM     29  C   UNL     1     113.655 130.124 137.986  0.00  0.00    +0.000 C 
ATOM     30  C   UNL     1     113.095 129.361 137.664  0.00  0.00    +0.000 C 
ATOM     31  C   UNL     1     112.593 128.797 138.320  0.00  0.00    +0.000 C 
BRANCH  27  32
ATOM     32  C   UNL     1     113.271 129.959 140.598  0.00  0.00    +0.000 C 
BRANCH  32  33
ATOM     33  O   UNL     1     112.863 129.332 141.262  0.00  0.00    +0.000 OA
BRANCH  33  39
ATOM     34  O   UNL     1     112.486 130.670 142.294  0.00  0.00    +0.000 OA
ATOM     35  O   UNL     1     112.021 128.081 142.576  0.00  0.00    +0.000 OA
ATOM     36  O   UNL     1     111.224 128.794 144.265  0.00  0.00    +0.000 OA
ATOM     37  O   UNL     1     111.268 130.758 144.641  0.00  0.00    +0.000 OA
ATOM     38  C   UNL     1     112.043 129.063 142.764  0.00  0.00    +0.000 C 
ATOM     39  C   UNL     1     112.464 129.689 142.107  0.00  0.00    +0.000 C 
ATOM     40  C   UNL     1     111.644 129.420 143.608  0.00  0.00    +0.000 C 
ATOM     41  C   UNL     1     111.666 130.402 143.796  0.00  0.00    +0.000 C 
ATOM     42  C   UNL     1     112.087 131.027 143.139  0.00  0.00    +0.000 C 
BRANCH  42  44
ATOM     43  O   UNL     1     111.797 132.658 142.633  0.00  0.00    +0.000 OA
ATOM     44  C   UNL     1     112.109 132.009 143.327  0.00  0.00    +0.000 C 
ENDBRANCH  42  44
ENDBRANCH  33  39
ENDBRANCH  32  33
ENDBRANCH  27  32
ENDBRANCH   1  31
TORSDOF 7
ENDMDL
