MODEL 1
REMARK VINA RESULT:      -9.7      0.000      0.000
REMARK  Name = 44715855
REMARK  6 active torsions:
REMARK  status: ('A' for Active; 'I' for Inactive)
REMARK    1  A    between atoms: O_2  and  C_16
REMARK    2  A    between atoms: O_2  and  C_18
REMARK    3  A    between atoms: C_15  and  C_17
REMARK    4  A    between atoms: C_19  and  C_27
REMARK    5  A    between atoms: C_20  and  C_28
REMARK    6  A    between atoms: C_27  and  C_29
REMARK                            x       y       z     vdW  Elec       q    Type
REMARK                         _______ _______ _______ _____ _____    ______ ____
ROOT
ATOM      1  O   UNL     1     112.196 128.960 137.535  0.00  0.00    +0.000 OA
ATOM      2  O   UNL     1     112.953 129.900 135.647  0.00  0.00    +0.000 OA
ATOM      3  O   UNL     1     114.005 127.125 136.217  0.00  0.00    +0.000 OA
ATOM      4  O   UNL     1     113.744 128.408 135.609  0.00  0.00    +0.000 OA
ATOM      5  C   UNL     1     112.882 126.930 138.079  0.00  0.00    +0.000 A 
ATOM      6  C   UNL     1     113.387 126.753 137.450  0.00  0.00    +0.000 A 
ATOM      7  C   UNL     1     112.311 129.537 136.908  0.00  0.00    +0.000 C 
ATOM      8  C   UNL     1     113.111 128.029 136.870  0.00  0.00    +0.000 A 
ATOM      9  C   UNL     1     112.608 128.206 137.498  0.00  0.00    +0.000 A 
ATOM     10  C   UNL     1     112.836 129.353 136.253  0.00  0.00    +0.000 C 
ATOM     11  C   UNL     1     112.493 127.657 138.102  0.00  0.00    +0.000 A 
ATOM     12  C   UNL     1     113.501 127.302 136.845  0.00  0.00    +0.000 A 
ATOM     13  C   UNL     1     113.239 128.593 136.234  0.00  0.00    +0.000 C 
ENDROOT
BRANCH   7  15
ATOM     14  O   UNL     1     110.747 132.441 137.015  0.00  0.00    +0.000 OA
ATOM     15  C   UNL     1     111.920 130.263 136.935  0.00  0.00    +0.000 A 
ATOM     16  C   UNL     1     112.283 130.914 137.289  0.00  0.00    +0.000 A 
ATOM     17  C   UNL     1     111.166 130.338 136.608  0.00  0.00    +0.000 A 
ATOM     18  C   UNL     1     111.892 131.640 137.315  0.00  0.00    +0.000 A 
ATOM     19  C   UNL     1     110.775 131.063 136.635  0.00  0.00    +0.000 A 
ATOM     20  C   UNL     1     111.138 131.715 136.988  0.00  0.00    +0.000 A 
ENDBRANCH   7  15
BRANCH   5  21
ATOM     21  O   UNL     1     112.768 126.380 138.683  0.00  0.00    +0.000 OA
BRANCH  21  30
ATOM     22  O   UNL     1     113.387 127.065 139.774  0.00  0.00    +0.000 OA
ATOM     23  O   UNL     1     111.459 126.502 141.221  0.00  0.00    +0.000 OA
ATOM     24  O   UNL     1     112.720 127.375 141.830  0.00  0.00    +0.000 OA
ATOM     25  O   UNL     1     111.483 126.005 139.648  0.00  0.00    +0.000 OA
ATOM     26  C   UNL     1     112.102 126.690 140.739  0.00  0.00    +0.000 C 
ATOM     27  C   UNL     1     112.732 127.126 141.042  0.00  0.00    +0.000 C 
ATOM     28  C   UNL     1     112.114 126.441 139.952  0.00  0.00    +0.000 C 
ATOM     29  C   UNL     1     113.375 127.314 140.560  0.00  0.00    +0.000 C 
ATOM     30  C   UNL     1     112.756 126.629 139.469  0.00  0.00    +0.000 C 
BRANCH  29  32
ATOM     31  O   UNL     1     114.776 127.468 140.793  0.00  0.00    +0.000 OA
ATOM     32  C   UNL     1     114.005 127.751 140.865  0.00  0.00    +0.000 C 
ENDBRANCH  29  32
ENDBRANCH  21  30
ENDBRANCH   5  21
BRANCH   6  33
ATOM     33  C   UNL     1     113.776 126.026 137.426  0.00  0.00    +0.000 C 
BRANCH  33  34
ATOM     34  C   UNL     1     113.459 125.403 136.986  0.00  0.00    +0.000 C 
ATOM     35  C   UNL     1     113.864 124.686 136.936  0.00  0.00    +0.000 C 
ATOM     36  C   UNL     1     113.548 124.064 136.497  0.00  0.00    +0.000 C 
ATOM     37  C   UNL     1     114.585 124.591 137.327  0.00  0.00    +0.000 C 
ENDBRANCH  33  34
ENDBRANCH   6  33
TORSDOF 6
ENDMDL
MODEL 2
REMARK VINA RESULT:      -9.4      8.667     11.096
REMARK  Name = 44715855
REMARK  6 active torsions:
REMARK  status: ('A' for Active; 'I' for Inactive)
REMARK    1  A    between atoms: O_2  and  C_16
REMARK    2  A    between atoms: O_2  and  C_18
REMARK    3  A    between atoms: C_15  and  C_17
REMARK    4  A    between atoms: C_19  and  C_27
REMARK    5  A    between atoms: C_20  and  C_28
REMARK    6  A    between atoms: C_27  and  C_29
REMARK                            x       y       z     vdW  Elec       q    Type
REMARK                         _______ _______ _______ _____ _____    ______ ____
ROOT
ATOM      1  O   UNL     1     105.484 126.351 144.333  0.00  0.00    +0.000 OA
ATOM      2  O   UNL     1     106.720 128.194 144.026  0.00  0.00    +0.000 OA
ATOM      3  O   UNL     1     107.196 126.744 146.634  0.00  0.00    +0.000 OA
ATOM      4  O   UNL     1     107.259 127.689 145.545  0.00  0.00    +0.000 OA
ATOM      5  C   UNL     1     105.728 125.188 146.198  0.00  0.00    +0.000 A 
ATOM      6  C   UNL     1     106.307 125.627 146.591  0.00  0.00    +0.000 A 
ATOM      7  C   UNL     1     105.804 127.058 143.964  0.00  0.00    +0.000 C 
ATOM      8  C   UNL     1     106.349 126.548 145.499  0.00  0.00    +0.000 A 
ATOM      9  C   UNL     1     105.771 126.110 145.107  0.00  0.00    +0.000 A 
ATOM     10  C   UNL     1     106.407 127.514 144.372  0.00  0.00    +0.000 C 
ATOM     11  C   UNL     1     105.460 125.430 145.456  0.00  0.00    +0.000 A 
ATOM     12  C   UNL     1     106.618 126.307 146.241  0.00  0.00    +0.000 A 
ATOM     13  C   UNL     1     106.681 127.257 145.145  0.00  0.00    +0.000 C 
ENDROOT
BRANCH   7  15
ATOM     14  O   UNL     1     104.727 128.014 140.995  0.00  0.00    +0.000 OA
ATOM     15  C   UNL     1     105.535 127.297 143.221  0.00  0.00    +0.000 A 
ATOM     16  C   UNL     1     105.038 127.952 143.154  0.00  0.00    +0.000 A 
ATOM     17  C   UNL     1     105.762 126.881 142.546  0.00  0.00    +0.000 A 
ATOM     18  C   UNL     1     104.769 128.191 142.412  0.00  0.00    +0.000 A 
ATOM     19  C   UNL     1     105.493 127.119 141.804  0.00  0.00    +0.000 A 
ATOM     20  C   UNL     1     104.996 127.774 141.737  0.00  0.00    +0.000 A 
ENDBRANCH   7  15
BRANCH   5  21
ATOM     21  O   UNL     1     105.417 124.509 146.548  0.00  0.00    +0.000 OA
BRANCH  21  30
ATOM     22  O   UNL     1     104.142 124.968 147.002  0.00  0.00    +0.000 OA
ATOM     23  O   UNL     1     103.062 122.998 145.964  0.00  0.00    +0.000 OA
ATOM     24  O   UNL     1     102.147 124.114 146.765  0.00  0.00    +0.000 OA
ATOM     25  O   UNL     1     104.697 123.195 145.856  0.00  0.00    +0.000 OA
ATOM     26  C   UNL     1     103.422 123.655 146.310  0.00  0.00    +0.000 C 
ATOM     27  C   UNL     1     102.965 124.213 146.711  0.00  0.00    +0.000 C 
ATOM     28  C   UNL     1     104.240 123.754 146.256  0.00  0.00    +0.000 C 
ATOM     29  C   UNL     1     103.325 124.870 147.056  0.00  0.00    +0.000 C 
ATOM     30  C   UNL     1     104.600 124.410 146.602  0.00  0.00    +0.000 C 
BRANCH  29  32
ATOM     31  O   UNL     1     103.178 125.826 148.108  0.00  0.00    +0.000 OA
ATOM     32  C   UNL     1     102.867 125.427 147.457  0.00  0.00    +0.000 C 
ENDBRANCH  29  32
ENDBRANCH  21  30
ENDBRANCH   5  21
BRANCH   6  33
ATOM     33  C   UNL     1     106.574 125.385 147.333  0.00  0.00    +0.000 C 
BRANCH  33  34
ATOM     34  C   UNL     1     107.371 125.204 147.445  0.00  0.00    +0.000 C 
ATOM     35  C   UNL     1     107.630 124.914 148.173  0.00  0.00    +0.000 C 
ATOM     36  C   UNL     1     108.427 124.733 148.284  0.00  0.00    +0.000 C 
ATOM     37  C   UNL     1     107.091 124.806 148.789  0.00  0.00    +0.000 C 
ENDBRANCH  33  34
ENDBRANCH   6  33
TORSDOF 6
ENDMDL
MODEL 3
REMARK VINA RESULT:      -9.3      0.735      1.478
REMARK  Name = 44715855
REMARK  6 active torsions:
REMARK  status: ('A' for Active; 'I' for Inactive)
REMARK    1  A    between atoms: O_2  and  C_16
REMARK    2  A    between atoms: O_2  and  C_18
REMARK    3  A    between atoms: C_15  and  C_17
REMARK    4  A    between atoms: C_19  and  C_27
REMARK    5  A    between atoms: C_20  and  C_28
REMARK    6  A    between atoms: C_27  and  C_29
REMARK                            x       y       z     vdW  Elec       q    Type
REMARK                         _______ _______ _______ _____ _____    ______ ____
ROOT
ATOM      1  O   UNL     1     112.203 129.192 137.651  0.00  0.00    +0.000 OA
ATOM      2  O   UNL     1     111.650 129.761 135.556  0.00  0.00    +0.000 OA
ATOM      3  O   UNL     1     112.706 126.950 135.892  0.00  0.00    +0.000 OA
ATOM      4  O   UNL     1     112.178 128.172 135.334  0.00  0.00    +0.000 OA
ATOM      5  C   UNL     1     112.991 127.164 138.045  0.00  0.00    +0.000 A 
ATOM      6  C   UNL     1     112.982 126.834 137.289  0.00  0.00    +0.000 A 
ATOM      7  C   UNL     1     111.925 129.662 136.988  0.00  0.00    +0.000 C 
ATOM      8  C   UNL     1     112.459 128.056 136.763  0.00  0.00    +0.000 A 
ATOM      9  C   UNL     1     112.468 128.385 137.518  0.00  0.00    +0.000 A 
ATOM     10  C   UNL     1     111.915 129.318 136.200  0.00  0.00    +0.000 C 
ATOM     11  C   UNL     1     112.734 127.940 138.160  0.00  0.00    +0.000 A 
ATOM     12  C   UNL     1     112.716 127.280 136.647  0.00  0.00    +0.000 A 
ATOM     13  C   UNL     1     112.184 128.510 136.087  0.00  0.00    +0.000 C 
ENDROOT
BRANCH   7  15
ATOM     14  O   UNL     1     110.900 132.763 137.458  0.00  0.00    +0.000 OA
ATOM     15  C   UNL     1     111.668 130.437 137.105  0.00  0.00    +0.000 A 
ATOM     16  C   UNL     1     110.880 130.586 137.298  0.00  0.00    +0.000 A 
ATOM     17  C   UNL     1     112.200 131.063 137.030  0.00  0.00    +0.000 A 
ATOM     18  C   UNL     1     110.624 131.362 137.416  0.00  0.00    +0.000 A 
ATOM     19  C   UNL     1     111.945 131.838 137.148  0.00  0.00    +0.000 A 
ATOM     20  C   UNL     1     111.157 131.988 137.341  0.00  0.00    +0.000 A 
ENDBRANCH   7  15
BRANCH   5  21
ATOM     21  O   UNL     1     113.257 126.719 138.687  0.00  0.00    +0.000 OA
BRANCH  21  30
ATOM     22  O   UNL     1     112.032 126.542 139.400  0.00  0.00    +0.000 OA
ATOM     23  O   UNL     1     113.182 127.109 141.517  0.00  0.00    +0.000 OA
ATOM     24  O   UNL     1     111.573 126.743 141.525  0.00  0.00    +0.000 OA
ATOM     25  O   UNL     1     114.024 127.096 140.098  0.00  0.00    +0.000 OA
ATOM     26  C   UNL     1     112.799 126.920 140.811  0.00  0.00    +0.000 C 
ATOM     27  C   UNL     1     111.994 126.737 140.815  0.00  0.00    +0.000 C 
ATOM     28  C   UNL     1     113.220 126.914 140.101  0.00  0.00    +0.000 C 
ATOM     29  C   UNL     1     111.611 126.548 140.109  0.00  0.00    +0.000 C 
ATOM     30  C   UNL     1     112.836 126.725 139.395  0.00  0.00    +0.000 C 
BRANCH  29  32
ATOM     31  O   UNL     1     110.531 125.703 139.708  0.00  0.00    +0.000 OA
ATOM     32  C   UNL     1     110.806 126.365 140.114  0.00  0.00    +0.000 C 
ENDBRANCH  29  32
ENDBRANCH  21  30
ENDBRANCH   5  21
BRANCH   6  33
ATOM     33  C   UNL     1     113.239 126.059 137.174  0.00  0.00    +0.000 C 
BRANCH  33  34
ATOM     34  C   UNL     1     113.987 125.915 136.857  0.00  0.00    +0.000 C 
ATOM     35  C   UNL     1     114.239 125.140 136.731  0.00  0.00    +0.000 C 
ATOM     36  C   UNL     1     114.987 124.997 136.414  0.00  0.00    +0.000 C 
ATOM     37  C   UNL     1     113.744 124.508 136.923  0.00  0.00    +0.000 C 
ENDBRANCH  33  34
ENDBRANCH   6  33
TORSDOF 6
ENDMDL
MODEL 4
REMARK VINA RESULT:      -9.3      1.754      4.107
REMARK  Name = 44715855
REMARK  6 active torsions:
REMARK  status: ('A' for Active; 'I' for Inactive)
REMARK    1  A    between atoms: O_2  and  C_16
REMARK    2  A    between atoms: O_2  and  C_18
REMARK    3  A    between atoms: C_15  and  C_17
REMARK    4  A    between atoms: C_19  and  C_27
REMARK    5  A    between atoms: C_20  and  C_28
REMARK    6  A    between atoms: C_27  and  C_29
REMARK                            x       y       z     vdW  Elec       q    Type
REMARK                         _______ _______ _______ _____ _____    ______ ____
ROOT
ATOM      1  O   UNL     1     113.130 128.491 139.231  0.00  0.00    +0.000 OA
ATOM      2  O   UNL     1     114.230 127.751 141.037  0.00  0.00    +0.000 OA
ATOM      3  O   UNL     1     113.924 125.741 138.802  0.00  0.00    +0.000 OA
ATOM      4  O   UNL     1     114.268 126.382 140.048  0.00  0.00    +0.000 OA
ATOM      5  C   UNL     1     112.831 127.127 137.517  0.00  0.00    +0.000 A 
ATOM      6  C   UNL     1     113.203 126.441 137.786  0.00  0.00    +0.000 A 
ATOM      7  C   UNL     1     113.492 128.483 140.010  0.00  0.00    +0.000 C 
ATOM      8  C   UNL     1     113.531 127.099 139.011  0.00  0.00    +0.000 A 
ATOM      9  C   UNL     1     113.160 127.784 138.743  0.00  0.00    +0.000 A 
ATOM     10  C   UNL     1     113.879 127.769 140.291  0.00  0.00    +0.000 C 
ATOM     11  C   UNL     1     112.810 127.798 137.996  0.00  0.00    +0.000 A 
ATOM     12  C   UNL     1     113.553 126.427 138.533  0.00  0.00    +0.000 A 
ATOM     13  C   UNL     1     113.898 127.072 139.787  0.00  0.00    +0.000 C 
ENDROOT
BRANCH   7  15
ATOM     14  O   UNL     1     113.398 131.175 141.916  0.00  0.00    +0.000 OA
ATOM     15  C   UNL     1     113.469 129.156 140.487  0.00  0.00    +0.000 A 
ATOM     16  C   UNL     1     114.074 129.715 140.441  0.00  0.00    +0.000 A 
ATOM     17  C   UNL     1     112.840 129.271 141.009  0.00  0.00    +0.000 A 
ATOM     18  C   UNL     1     114.050 130.388 140.917  0.00  0.00    +0.000 A 
ATOM     19  C   UNL     1     112.816 129.943 141.485  0.00  0.00    +0.000 A 
ATOM     20  C   UNL     1     113.421 130.502 141.439  0.00  0.00    +0.000 A 
ENDBRANCH   7  15
BRANCH   5  21
ATOM     21  O   UNL     1     112.482 127.141 136.770  0.00  0.00    +0.000 OA
BRANCH  21  30
ATOM     22  O   UNL     1     113.360 128.051 136.104  0.00  0.00    +0.000 OA
ATOM     23  O   UNL     1     111.409 129.215 135.123  0.00  0.00    +0.000 OA
ATOM     24  O   UNL     1     112.937 129.737 134.784  0.00  0.00    +0.000 OA
ATOM     25  O   UNL     1     111.181 127.917 136.116  0.00  0.00    +0.000 OA
ATOM     26  C   UNL     1     112.059 128.827 135.450  0.00  0.00    +0.000 C 
ATOM     27  C   UNL     1     112.823 129.087 135.281  0.00  0.00    +0.000 C 
ATOM     28  C   UNL     1     111.945 128.178 135.947  0.00  0.00    +0.000 C 
ATOM     29  C   UNL     1     113.474 128.699 135.608  0.00  0.00    +0.000 C 
ATOM     30  C   UNL     1     112.596 127.789 136.274  0.00  0.00    +0.000 C 
BRANCH  29  32
ATOM     31  O   UNL     1     114.830 128.416 135.258  0.00  0.00    +0.000 OA
ATOM     32  C   UNL     1     114.238 128.961 135.438  0.00  0.00    +0.000 C 
ENDBRANCH  29  32
ENDBRANCH  21  30
ENDBRANCH   5  21
BRANCH   6  33
ATOM     33  C   UNL     1     113.225 125.769 137.307  0.00  0.00    +0.000 C 
BRANCH  33  34
ATOM     34  C   UNL     1     112.688 125.155 137.434  0.00  0.00    +0.000 C 
ATOM     35  C   UNL     1     112.732 124.469 136.979  0.00  0.00    +0.000 C 
ATOM     36  C   UNL     1     112.195 123.856 137.106  0.00  0.00    +0.000 C 
ATOM     37  C   UNL     1     113.312 124.396 136.397  0.00  0.00    +0.000 C 
ENDBRANCH  33  34
ENDBRANCH   6  33
TORSDOF 6
ENDMDL
MODEL 5
REMARK VINA RESULT:      -9.3      1.740      4.176
REMARK  Name = 44715855
REMARK  6 active torsions:
REMARK  status: ('A' for Active; 'I' for Inactive)
REMARK    1  A    between atoms: O_2  and  C_16
REMARK    2  A    between atoms: O_2  and  C_18
REMARK    3  A    between atoms: C_15  and  C_17
REMARK    4  A    between atoms: C_19  and  C_27
REMARK    5  A    between atoms: C_20  and  C_28
REMARK    6  A    between atoms: C_27  and  C_29
REMARK                            x       y       z     vdW  Elec       q    Type
REMARK                         _______ _______ _______ _____ _____    ______ ____
ROOT
ATOM      1  O   UNL     1     113.372 128.744 139.192  0.00  0.00    +0.000 OA
ATOM      2  O   UNL     1     114.043 127.940 141.173  0.00  0.00    +0.000 OA
ATOM      3  O   UNL     1     112.973 125.878 139.240  0.00  0.00    +0.000 OA
ATOM      4  O   UNL     1     113.530 126.526 140.403  0.00  0.00    +0.000 OA
ATOM      5  C   UNL     1     112.566 127.348 137.679  0.00  0.00    +0.000 A 
ATOM      6  C   UNL     1     112.619 126.626 138.076  0.00  0.00    +0.000 A 
ATOM      7  C   UNL     1     113.687 128.722 139.991  0.00  0.00    +0.000 C 
ATOM      8  C   UNL     1     113.169 127.293 139.214  0.00  0.00    +0.000 A 
ATOM      9  C   UNL     1     113.116 128.014 138.817  0.00  0.00    +0.000 A 
ATOM     10  C   UNL     1     113.742 127.971 140.405  0.00  0.00    +0.000 C 
ATOM     11  C   UNL     1     112.815 128.041 138.050  0.00  0.00    +0.000 A 
ATOM     12  C   UNL     1     112.920 126.599 138.844  0.00  0.00    +0.000 A 
ATOM     13  C   UNL     1     113.481 127.252 140.013  0.00  0.00    +0.000 C 
ENDROOT
BRANCH   7  15
ATOM     14  O   UNL     1     114.680 131.503 141.464  0.00  0.00    +0.000 OA
ATOM     15  C   UNL     1     113.935 129.418 140.360  0.00  0.00    +0.000 A 
ATOM     16  C   UNL     1     113.421 129.826 140.858  0.00  0.00    +0.000 A 
ATOM     17  C   UNL     1     114.698 129.704 140.229  0.00  0.00    +0.000 A 
ATOM     18  C   UNL     1     113.669 130.522 141.227  0.00  0.00    +0.000 A 
ATOM     19  C   UNL     1     114.946 130.399 140.597  0.00  0.00    +0.000 A 
ATOM     20  C   UNL     1     114.432 130.808 141.095  0.00  0.00    +0.000 A 
ENDBRANCH   7  15
BRANCH   5  21
ATOM     21  O   UNL     1     112.265 127.376 136.911  0.00  0.00    +0.000 OA
BRANCH  21  30
ATOM     22  O   UNL     1     111.040 128.076 137.141  0.00  0.00    +0.000 OA
ATOM     23  O   UNL     1     111.498 129.518 135.182  0.00  0.00    +0.000 OA
ATOM     24  O   UNL     1     110.121 129.738 136.064  0.00  0.00    +0.000 OA
ATOM     25  O   UNL     1     112.570 128.337 135.606  0.00  0.00    +0.000 OA
ATOM     26  C   UNL     1     111.346 129.037 135.835  0.00  0.00    +0.000 C 
ATOM     27  C   UNL     1     110.657 129.147 136.277  0.00  0.00    +0.000 C 
ATOM     28  C   UNL     1     111.882 128.446 136.047  0.00  0.00    +0.000 C 
ATOM     29  C   UNL     1     110.505 128.666 136.929  0.00  0.00    +0.000 C 
ATOM     30  C   UNL     1     111.729 127.966 136.700  0.00  0.00    +0.000 C 
BRANCH  29  32
ATOM     31  O   UNL     1     109.354 128.128 137.584  0.00  0.00    +0.000 OA
ATOM     32  C   UNL     1     109.816 128.776 137.370  0.00  0.00    +0.000 C 
ENDBRANCH  29  32
ENDBRANCH  21  30
ENDBRANCH   5  21
BRANCH   6  33
ATOM     33  C   UNL     1     112.370 125.933 137.705  0.00  0.00    +0.000 C 
BRANCH  33  34
ATOM     34  C   UNL     1     112.927 125.406 137.400  0.00  0.00    +0.000 C 
ATOM     35  C   UNL     1     112.679 124.703 137.047  0.00  0.00    +0.000 C 
ATOM     36  C   UNL     1     113.237 124.176 136.743  0.00  0.00    +0.000 C 
ATOM     37  C   UNL     1     111.875 124.526 136.999  0.00  0.00    +0.000 C 
ENDBRANCH  33  34
ENDBRANCH   6  33
TORSDOF 6
ENDMDL
MODEL 6
REMARK VINA RESULT:      -9.1      2.729      5.515
REMARK  Name = 44715855
REMARK  6 active torsions:
REMARK  status: ('A' for Active; 'I' for Inactive)
REMARK    1  A    between atoms: O_2  and  C_16
REMARK    2  A    between atoms: O_2  and  C_18
REMARK    3  A    between atoms: C_15  and  C_17
REMARK    4  A    between atoms: C_19  and  C_27
REMARK    5  A    between atoms: C_20  and  C_28
REMARK    6  A    between atoms: C_27  and  C_29
REMARK                            x       y       z     vdW  Elec       q    Type
REMARK                         _______ _______ _______ _____ _____    ______ ____
ROOT
ATOM      1  O   UNL     1     111.613 126.766 136.400  0.00  0.00    +0.000 OA
ATOM      2  O   UNL     1     110.509 125.223 135.210  0.00  0.00    +0.000 OA
ATOM      3  O   UNL     1     109.731 128.087 134.642  0.00  0.00    +0.000 OA
ATOM      4  O   UNL     1     109.813 126.646 134.624  0.00  0.00    +0.000 OA
ATOM      5  C   UNL     1     111.146 128.905 136.089  0.00  0.00    +0.000 A 
ATOM      6  C   UNL     1     110.559 128.863 135.510  0.00  0.00    +0.000 A 
ATOM      7  C   UNL     1     111.365 125.999 136.104  0.00  0.00    +0.000 C 
ATOM      8  C   UNL     1     110.661 127.437 135.511  0.00  0.00    +0.000 A 
ATOM      9  C   UNL     1     111.247 127.479 136.090  0.00  0.00    +0.000 A 
ATOM     10  C   UNL     1     110.754 125.955 135.501  0.00  0.00    +0.000 C 
ATOM     11  C   UNL     1     111.489 128.213 136.379  0.00  0.00    +0.000 A 
ATOM     12  C   UNL     1     110.316 128.129 135.221  0.00  0.00    +0.000 A 
ATOM     13  C   UNL     1     110.400 126.679 135.203  0.00  0.00    +0.000 C 
ENDROOT
BRANCH   7  15
ATOM     14  O   UNL     1     112.748 123.240 137.271  0.00  0.00    +0.000 OA
ATOM     15  C   UNL     1     111.710 125.309 136.396  0.00  0.00    +0.000 A 
ATOM     16  C   UNL     1     111.326 124.870 136.978  0.00  0.00    +0.000 A 
ATOM     17  C   UNL     1     112.441 125.059 136.105  0.00  0.00    +0.000 A 
ATOM     18  C   UNL     1     111.671 124.180 137.270  0.00  0.00    +0.000 A 
ATOM     19  C   UNL     1     112.787 124.369 136.396  0.00  0.00    +0.000 A 
ATOM     20  C   UNL     1     112.402 123.930 136.979  0.00  0.00    +0.000 A 
ENDBRANCH   7  15
BRANCH   5  21
ATOM     21  O   UNL     1     111.388 129.639 136.378  0.00  0.00    +0.000 OA
BRANCH  21  30
ATOM     22  O   UNL     1     112.728 129.643 135.880  0.00  0.00    +0.000 OA
ATOM     23  O   UNL     1     113.526 130.561 138.035  0.00  0.00    +0.000 OA
ATOM     24  O   UNL     1     114.599 130.259 136.819  0.00  0.00    +0.000 OA
ATOM     25  O   UNL     1     111.920 130.250 137.815  0.00  0.00    +0.000 OA
ATOM     26  C   UNL     1     113.260 130.255 137.317  0.00  0.00    +0.000 C 
ATOM     27  C   UNL     1     113.796 130.104 136.708  0.00  0.00    +0.000 C 
ATOM     28  C   UNL     1     112.456 130.100 137.206  0.00  0.00    +0.000 C 
ATOM     29  C   UNL     1     113.530 129.798 135.990  0.00  0.00    +0.000 C 
ATOM     30  C   UNL     1     112.190 129.794 136.488  0.00  0.00    +0.000 C 
BRANCH  29  32
ATOM     31  O   UNL     1     113.898 129.889 134.612  0.00  0.00    +0.000 OA
ATOM     32  C   UNL     1     114.067 129.648 135.382  0.00  0.00    +0.000 C 
ENDBRANCH  29  32
ENDBRANCH  21  30
ENDBRANCH   5  21
BRANCH   6  33
ATOM     33  C   UNL     1     110.215 129.554 135.220  0.00  0.00    +0.000 C 
BRANCH  33  34
ATOM     34  C   UNL     1     109.490 129.811 135.519  0.00  0.00    +0.000 C 
ATOM     35  C   UNL     1     109.136 130.491 135.215  0.00  0.00    +0.000 C 
ATOM     36  C   UNL     1     108.411 130.747 135.514  0.00  0.00    +0.000 C 
ATOM     37  C   UNL     1     109.507 130.915 134.612  0.00  0.00    +0.000 C 
ENDBRANCH  33  34
ENDBRANCH   6  33
TORSDOF 6
ENDMDL
MODEL 7
REMARK VINA RESULT:      -9.0      2.974      5.688
REMARK  Name = 44715855
REMARK  6 active torsions:
REMARK  status: ('A' for Active; 'I' for Inactive)
REMARK    1  A    between atoms: O_2  and  C_16
REMARK    2  A    between atoms: O_2  and  C_18
REMARK    3  A    between atoms: C_15  and  C_17
REMARK    4  A    between atoms: C_19  and  C_27
REMARK    5  A    between atoms: C_20  and  C_28
REMARK    6  A    between atoms: C_27  and  C_29
REMARK                            x       y       z     vdW  Elec       q    Type
REMARK                         _______ _______ _______ _____ _____    ______ ____
ROOT
ATOM      1  O   UNL     1     110.615 127.723 136.234  0.00  0.00    +0.000 OA
ATOM      2  O   UNL     1     108.855 126.422 135.756  0.00  0.00    +0.000 OA
ATOM      3  O   UNL     1     108.285 129.388 135.819  0.00  0.00    +0.000 OA
ATOM      4  O   UNL     1     108.152 127.956 135.697  0.00  0.00    +0.000 OA
ATOM      5  C   UNL     1     110.345 129.916 136.314  0.00  0.00    +0.000 A 
ATOM      6  C   UNL     1     109.541 129.989 136.138  0.00  0.00    +0.000 A 
ATOM      7  C   UNL     1     110.149 127.017 136.084  0.00  0.00    +0.000 C 
ATOM      8  C   UNL     1     109.437 128.568 136.024  0.00  0.00    +0.000 A 
ATOM      9  C   UNL     1     110.240 128.495 136.199  0.00  0.00    +0.000 A 
ATOM     10  C   UNL     1     109.312 127.093 135.902  0.00  0.00    +0.000 C 
ATOM     11  C   UNL     1     110.693 129.169 136.344  0.00  0.00    +0.000 A 
ATOM     12  C   UNL     1     109.088 129.315 135.994  0.00  0.00    +0.000 A 
ATOM     13  C   UNL     1     108.955 127.874 135.872  0.00  0.00    +0.000 C 
ENDROOT
BRANCH   7  15
ATOM     14  O   UNL     1     111.556 124.035 136.208  0.00  0.00    +0.000 OA
ATOM     15  C   UNL     1     110.500 126.272 136.115  0.00  0.00    +0.000 A 
ATOM     16  C   UNL     1     110.620 125.902 136.843  0.00  0.00    +0.000 A 
ATOM     17  C   UNL     1     110.732 125.896 135.419  0.00  0.00    +0.000 A 
ATOM     18  C   UNL     1     110.972 125.157 136.874  0.00  0.00    +0.000 A 
ATOM     19  C   UNL     1     111.084 125.150 135.449  0.00  0.00    +0.000 A 
ATOM     20  C   UNL     1     111.204 124.781 136.176  0.00  0.00    +0.000 A 
ENDBRANCH   7  15
BRANCH   5  21
ATOM     21  O   UNL     1     110.798 130.590 136.458  0.00  0.00    +0.000 OA
BRANCH  21  30
ATOM     22  O   UNL     1     110.955 130.501 137.876  0.00  0.00    +0.000 OA
ATOM     23  O   UNL     1     113.369 130.992 137.640  0.00  0.00    +0.000 OA
ATOM     24  O   UNL     1     112.721 130.740 139.136  0.00  0.00    +0.000 OA
ATOM     25  O   UNL     1     112.408 130.917 136.301  0.00  0.00    +0.000 OA
ATOM     26  C   UNL     1     112.564 130.828 137.719  0.00  0.00    +0.000 C 
ATOM     27  C   UNL     1     112.240 130.702 138.466  0.00  0.00    +0.000 C 
ATOM     28  C   UNL     1     112.083 130.791 137.049  0.00  0.00    +0.000 C 
ATOM     29  C   UNL     1     111.435 130.539 138.545  0.00  0.00    +0.000 C 
ATOM     30  C   UNL     1     111.278 130.627 137.127  0.00  0.00    +0.000 C 
BRANCH  29  32
ATOM     31  O   UNL     1     110.408 130.786 139.507  0.00  0.00    +0.000 OA
ATOM     32  C   UNL     1     111.111 130.413 139.294  0.00  0.00    +0.000 C 
ENDBRANCH  29  32
ENDBRANCH  21  30
ENDBRANCH   5  21
BRANCH   6  33
ATOM     33  C   UNL     1     109.193 130.736 136.108  0.00  0.00    +0.000 C 
BRANCH  33  34
ATOM     34  C   UNL     1     109.048 131.094 135.378  0.00  0.00    +0.000 C 
ATOM     35  C   UNL     1     108.669 131.826 135.347  0.00  0.00    +0.000 C 
ATOM     36  C   UNL     1     108.525 132.183 134.617  0.00  0.00    +0.000 C 
ATOM     37  C   UNL     1     108.436 132.201 136.044  0.00  0.00    +0.000 C 
ENDBRANCH  33  34
ENDBRANCH   6  33
TORSDOF 6
ENDMDL
MODEL 8
REMARK VINA RESULT:      -9.0      1.909      2.366
REMARK  Name = 44715855
REMARK  6 active torsions:
REMARK  status: ('A' for Active; 'I' for Inactive)
REMARK    1  A    between atoms: O_2  and  C_16
REMARK    2  A    between atoms: O_2  and  C_18
REMARK    3  A    between atoms: C_15  and  C_17
REMARK    4  A    between atoms: C_19  and  C_27
REMARK    5  A    between atoms: C_20  and  C_28
REMARK    6  A    between atoms: C_27  and  C_29
REMARK                            x       y       z     vdW  Elec       q    Type
REMARK                         _______ _______ _______ _____ _____    ______ ____
ROOT
ATOM      1  O   UNL     1     110.974 128.364 136.518  0.00  0.00    +0.000 OA
ATOM      2  O   UNL     1     109.945 127.547 134.704  0.00  0.00    +0.000 OA
ATOM      3  O   UNL     1     112.145 125.808 135.829  0.00  0.00    +0.000 OA
ATOM      4  O   UNL     1     111.070 126.327 135.017  0.00  0.00    +0.000 OA
ATOM      5  C   UNL     1     112.605 127.197 137.449  0.00  0.00    +0.000 A 
ATOM      6  C   UNL     1     112.634 126.534 136.958  0.00  0.00    +0.000 A 
ATOM      7  C   UNL     1     110.432 128.304 135.855  0.00  0.00    +0.000 C 
ATOM      8  C   UNL     1     111.569 127.070 136.172  0.00  0.00    +0.000 A 
ATOM      9  C   UNL     1     111.540 127.733 136.662  0.00  0.00    +0.000 A 
ATOM     10  C   UNL     1     110.461 127.614 135.344  0.00  0.00    +0.000 C 
ATOM     11  C   UNL     1     112.058 127.796 137.301  0.00  0.00    +0.000 A 
ATOM     12  C   UNL     1     112.116 126.471 136.319  0.00  0.00    +0.000 A 
ATOM     13  C   UNL     1     111.034 126.993 135.503  0.00  0.00    +0.000 C 
ENDROOT
BRANCH   7  15
ATOM     14  O   UNL     1     108.246 130.707 135.272  0.00  0.00    +0.000 OA
ATOM     15  C   UNL     1     109.885 128.905 135.709  0.00  0.00    +0.000 A 
ATOM     16  C   UNL     1     110.070 129.511 135.181  0.00  0.00    +0.000 A 
ATOM     17  C   UNL     1     109.154 128.900 136.091  0.00  0.00    +0.000 A 
ATOM     18  C   UNL     1     109.524 130.112 135.035  0.00  0.00    +0.000 A 
ATOM     19  C   UNL     1     108.608 129.500 135.946  0.00  0.00    +0.000 A 
ATOM     20  C   UNL     1     108.793 130.106 135.418  0.00  0.00    +0.000 A 
ENDBRANCH   7  15
BRANCH   5  21
ATOM     21  O   UNL     1     113.123 127.260 138.088  0.00  0.00    +0.000 OA
BRANCH  21  30
ATOM     22  O   UNL     1     112.239 127.038 139.188  0.00  0.00    +0.000 OA
ATOM     23  O   UNL     1     113.179 129.014 140.343  0.00  0.00    +0.000 OA
ATOM     24  O   UNL     1     111.982 128.133 141.059  0.00  0.00    +0.000 OA
ATOM     25  O   UNL     1     113.750 128.578 138.858  0.00  0.00    +0.000 OA
ATOM     26  C   UNL     1     112.866 128.356 139.958  0.00  0.00    +0.000 C 
ATOM     27  C   UNL     1     112.267 127.914 140.315  0.00  0.00    +0.000 C 
ATOM     28  C   UNL     1     113.151 128.137 139.215  0.00  0.00    +0.000 C 
ATOM     29  C   UNL     1     111.954 127.255 139.930  0.00  0.00    +0.000 C 
ATOM     30  C   UNL     1     112.838 127.478 138.830  0.00  0.00    +0.000 C 
BRANCH  29  32
ATOM     31  O   UNL     1     111.377 125.991 140.263  0.00  0.00    +0.000 OA
ATOM     32  C   UNL     1     111.355 126.815 140.289  0.00  0.00    +0.000 C 
ENDBRANCH  29  32
ENDBRANCH  21  30
ENDBRANCH   5  21
BRANCH   6  33
ATOM     33  C   UNL     1     113.181 125.935 137.106  0.00  0.00    +0.000 C 
BRANCH  33  34
ATOM     34  C   UNL     1     113.862 125.875 136.644  0.00  0.00    +0.000 C 
ATOM     35  C   UNL     1     114.403 125.268 136.783  0.00  0.00    +0.000 C 
ATOM     36  C   UNL     1     115.083 125.208 136.321  0.00  0.00    +0.000 C 
ATOM     37  C   UNL     1     114.263 124.720 137.384  0.00  0.00    +0.000 C 
ENDBRANCH  33  34
ENDBRANCH   6  33
TORSDOF 6
ENDMDL
MODEL 9
REMARK VINA RESULT:      -8.9      2.435      4.856
REMARK  Name = 44715855
REMARK  6 active torsions:
REMARK  status: ('A' for Active; 'I' for Inactive)
REMARK    1  A    between atoms: O_2  and  C_16
REMARK    2  A    between atoms: O_2  and  C_18
REMARK    3  A    between atoms: C_15  and  C_17
REMARK    4  A    between atoms: C_19  and  C_27
REMARK    5  A    between atoms: C_20  and  C_28
REMARK    6  A    between atoms: C_27  and  C_29
REMARK                            x       y       z     vdW  Elec       q    Type
REMARK                         _______ _______ _______ _____ _____    ______ ____
ROOT
ATOM      1  O   UNL     1     110.469 126.219 139.175  0.00  0.00    +0.000 OA
ATOM      2  O   UNL     1     111.293 126.757 141.188  0.00  0.00    +0.000 OA
ATOM      3  O   UNL     1     113.358 126.314 139.027  0.00  0.00    +0.000 OA
ATOM      4  O   UNL     1     112.713 126.598 140.286  0.00  0.00    +0.000 OA
ATOM      5  C   UNL     1     111.866 125.866 137.498  0.00  0.00    +0.000 A 
ATOM      6  C   UNL     1     112.596 125.990 137.863  0.00  0.00    +0.000 A 
ATOM      7  C   UNL     1     110.497 126.427 140.008  0.00  0.00    +0.000 C 
ATOM      8  C   UNL     1     111.932 126.266 139.097  0.00  0.00    +0.000 A 
ATOM      9  C   UNL     1     111.203 126.142 138.733  0.00  0.00    +0.000 A 
ATOM     10  C   UNL     1     111.256 126.557 140.388  0.00  0.00    +0.000 C 
ATOM     11  C   UNL     1     111.170 125.942 137.933  0.00  0.00    +0.000 A 
ATOM     12  C   UNL     1     112.629 126.190 138.663  0.00  0.00    +0.000 A 
ATOM     13  C   UNL     1     111.979 126.476 139.929  0.00  0.00    +0.000 C 
ENDROOT
BRANCH   7  15
ATOM     14  O   UNL     1     107.703 126.729 141.739  0.00  0.00    +0.000 OA
ATOM     15  C   UNL     1     109.798 126.503 140.441  0.00  0.00    +0.000 A 
ATOM     16  C   UNL     1     109.480 127.251 140.583  0.00  0.00    +0.000 A 
ATOM     17  C   UNL     1     109.418 125.831 140.731  0.00  0.00    +0.000 A 
ATOM     18  C   UNL     1     108.782 127.327 141.016  0.00  0.00    +0.000 A 
ATOM     19  C   UNL     1     108.720 125.906 141.164  0.00  0.00    +0.000 A 
ATOM     20  C   UNL     1     108.402 126.654 141.306  0.00  0.00    +0.000 A 
ENDBRANCH   7  15
BRANCH   5  21
ATOM     21  O   UNL     1     111.833 125.665 136.698  0.00  0.00    +0.000 OA
BRANCH  21  30
ATOM     22  O   UNL     1     111.286 126.876 136.172  0.00  0.00    +0.000 OA
ATOM     23  O   UNL     1     109.749 125.562 134.746  0.00  0.00    +0.000 OA
ATOM     24  O   UNL     1     109.714 127.211 134.696  0.00  0.00    +0.000 OA
ATOM     25  O   UNL     1     110.808 124.789 135.747  0.00  0.00    +0.000 OA
ATOM     26  C   UNL     1     110.261 126.000 135.222  0.00  0.00    +0.000 C 
ATOM     27  C   UNL     1     110.245 126.825 135.197  0.00  0.00    +0.000 C 
ATOM     28  C   UNL     1     110.791 125.614 135.723  0.00  0.00    +0.000 C 
ATOM     29  C   UNL     1     110.757 127.262 135.672  0.00  0.00    +0.000 C 
ATOM     30  C   UNL     1     111.304 126.051 136.198  0.00  0.00    +0.000 C 
BRANCH  29  32
ATOM     31  O   UNL     1     111.444 128.514 135.617  0.00  0.00    +0.000 OA
ATOM     32  C   UNL     1     110.740 128.087 135.647  0.00  0.00    +0.000 C 
ENDBRANCH  29  32
ENDBRANCH  21  30
ENDBRANCH   5  21
BRANCH   6  33
ATOM     33  C   UNL     1     113.292 125.913 137.427  0.00  0.00    +0.000 C 
BRANCH  33  34
ATOM     34  C   UNL     1     113.768 125.246 137.525  0.00  0.00    +0.000 C 
ATOM     35  C   UNL     1     114.450 125.155 137.069  0.00  0.00    +0.000 C 
ATOM     36  C   UNL     1     114.925 124.488 137.167  0.00  0.00    +0.000 C 
ATOM     37  C   UNL     1     114.655 125.731 136.515  0.00  0.00    +0.000 C 
ENDBRANCH  33  34
ENDBRANCH   6  33
TORSDOF 6
ENDMDL
MODEL 10
REMARK VINA RESULT:      -8.8      2.251      3.870
REMARK  Name = 44715855
REMARK  6 active torsions:
REMARK  status: ('A' for Active; 'I' for Inactive)
REMARK    1  A    between atoms: O_2  and  C_16
REMARK    2  A    between atoms: O_2  and  C_18
REMARK    3  A    between atoms: C_15  and  C_17
REMARK    4  A    between atoms: C_19  and  C_27
REMARK    5  A    between atoms: C_20  and  C_28
REMARK    6  A    between atoms: C_27  and  C_29
REMARK                            x       y       z     vdW  Elec       q    Type
REMARK                         _______ _______ _______ _____ _____    ______ ____
ROOT
ATOM      1  O   UNL     1     110.888 128.957 136.367  0.00  0.00    +0.000 OA
ATOM      2  O   UNL     1     109.183 127.990 137.452  0.00  0.00    +0.000 OA
ATOM      3  O   UNL     1     111.829 126.548 137.665  0.00  0.00    +0.000 OA
ATOM      4  O   UNL     1     110.441 126.919 137.801  0.00  0.00    +0.000 OA
ATOM      5  C   UNL     1     112.885 128.011 136.436  0.00  0.00    +0.000 A 
ATOM      6  C   UNL     1     112.736 127.347 136.904  0.00  0.00    +0.000 A 
ATOM      7  C   UNL     1     110.096 128.821 136.670  0.00  0.00    +0.000 C 
ATOM      8  C   UNL     1     111.367 127.738 137.023  0.00  0.00    +0.000 A 
ATOM      9  C   UNL     1     111.515 128.401 136.556  0.00  0.00    +0.000 A 
ATOM     10  C   UNL     1     109.941 128.130 137.157  0.00  0.00    +0.000 C 
ATOM     11  C   UNL     1     112.274 128.537 136.263  0.00  0.00    +0.000 A 
ATOM     12  C   UNL     1     111.977 127.210 137.198  0.00  0.00    +0.000 A 
ATOM     13  C   UNL     1     110.581 127.585 137.334  0.00  0.00    +0.000 C 
ENDROOT
BRANCH   7  15
ATOM     14  O   UNL     1     107.662 130.935 135.967  0.00  0.00    +0.000 OA
ATOM     15  C   UNL     1     109.487 129.349 136.494  0.00  0.00    +0.000 A 
ATOM     16  C   UNL     1     109.015 129.228 135.828  0.00  0.00    +0.000 A 
ATOM     17  C   UNL     1     109.351 129.999 136.984  0.00  0.00    +0.000 A 
ATOM     18  C   UNL     1     108.406 129.757 135.653  0.00  0.00    +0.000 A 
ATOM     19  C   UNL     1     108.743 130.528 136.809  0.00  0.00    +0.000 A 
ATOM     20  C   UNL     1     108.270 130.407 136.143  0.00  0.00    +0.000 A 
ENDBRANCH   7  15
BRANCH   5  21
ATOM     21  O   UNL     1     113.644 128.147 136.143  0.00  0.00    +0.000 OA
BRANCH  21  30
ATOM     22  O   UNL     1     113.909 129.414 136.748  0.00  0.00    +0.000 OA
ATOM     23  O   UNL     1     114.849 130.238 134.612  0.00  0.00    +0.000 OA
ATOM     24  O   UNL     1     114.801 131.230 135.929  0.00  0.00    +0.000 OA
ATOM     25  O   UNL     1     114.270 128.696 134.719  0.00  0.00    +0.000 OA
ATOM     26  C   UNL     1     114.535 129.963 135.324  0.00  0.00    +0.000 C 
ATOM     27  C   UNL     1     114.511 130.459 135.983  0.00  0.00    +0.000 C 
ATOM     28  C   UNL     1     114.246 129.192 135.378  0.00  0.00    +0.000 C 
ATOM     29  C   UNL     1     114.198 130.184 136.695  0.00  0.00    +0.000 C 
ATOM     30  C   UNL     1     113.933 128.917 136.090  0.00  0.00    +0.000 C 
BRANCH  29  32
ATOM     31  O   UNL     1     114.334 130.380 138.104  0.00  0.00    +0.000 OA
ATOM     32  C   UNL     1     114.174 130.681 137.354  0.00  0.00    +0.000 C 
ENDBRANCH  29  32
ENDBRANCH  21  30
ENDBRANCH   5  21
BRANCH   6  33
ATOM     33  C   UNL     1     113.347 126.820 137.078  0.00  0.00    +0.000 C 
BRANCH  33  34
ATOM     34  C   UNL     1     113.409 126.109 136.663  0.00  0.00    +0.000 C 
ATOM     35  C   UNL     1     113.982 125.556 136.877  0.00  0.00    +0.000 C 
ATOM     36  C   UNL     1     114.044 124.846 136.462  0.00  0.00    +0.000 C 
ATOM     37  C   UNL     1     114.493 125.713 137.505  0.00  0.00    +0.000 C 
ENDBRANCH  33  34
ENDBRANCH   6  33
TORSDOF 6
ENDMDL
