MODEL 1
REMARK VINA RESULT:     -10.5      0.000      0.000
REMARK  Name = 44257688
REMARK  10 active torsions:
REMARK  status: ('A' for Active; 'I' for Inactive)
REMARK    1  A    between atoms: O_11  and  C_33
REMARK    2  A    between atoms: O_11  and  C_40
REMARK    3  A    between atoms: C_19  and  C_27
REMARK    4  A    between atoms: C_22  and  C_29
REMARK    5  A    between atoms: C_24  and  C_33
REMARK    6  A    between atoms: C_38  and  C_42
REMARK    7  A    between atoms: C_40  and  C_41
REMARK    8  A    between atoms: C_41  and  C_43
REMARK    9  A    between atoms: C_43  and  C_44
REMARK   10  A    between atoms: C_44  and  C_50
REMARK                            x       y       z     vdW  Elec       q    Type
REMARK                         _______ _______ _______ _____ _____    ______ ____
ROOT
ATOM      1  O   UNL     1     110.655 127.459 136.231  0.00  0.00    +0.000 OA
ATOM      2  O   UNL     1     110.632 130.340 136.244  0.00  0.00    +0.000 OA
ATOM      3  O   UNL     1     108.164 128.916 136.014  0.00  0.00    +0.000 OA
ATOM      4  O   UNL     1     108.134 127.473 136.004  0.00  0.00    +0.000 OA
ATOM      5  C   UNL     1     110.629 128.911 136.236  0.00  0.00    +0.000 A 
ATOM      6  C   UNL     1     109.398 129.627 136.129  0.00  0.00    +0.000 A 
ATOM      7  C   UNL     1     110.220 129.626 136.203  0.00  0.00    +0.000 A 
ATOM      8  C   UNL     1     110.217 128.197 136.195  0.00  0.00    +0.000 A 
ATOM      9  C   UNL     1     108.986 128.914 136.088  0.00  0.00    +0.000 A 
ATOM     10  C   UNL     1     109.396 128.199 136.121  0.00  0.00    +0.000 A 
ATOM     11  C   UNL     1     108.955 127.463 136.078  0.00  0.00    +0.000 A 
ATOM     12  C   UNL     1     110.232 126.712 136.189  0.00  0.00    +0.000 A 
ATOM     13  C   UNL     1     109.376 126.714 136.112  0.00  0.00    +0.000 A 
ENDROOT
BRANCH   6  18
ATOM     14  O   UNL     1     108.881 130.723 135.371  0.00  0.00    +0.000 OA
ATOM     15  O   UNL     1     108.794 130.298 137.510  0.00  0.00    +0.000 OA
ATOM     16  O   UNL     1     107.975 131.728 137.443  0.00  0.00    +0.000 OA
ATOM     17  O   UNL     1     107.760 132.489 135.995  0.00  0.00    +0.000 OA
ATOM     18  C   UNL     1     108.988 130.343 136.095  0.00  0.00    +0.000 C 
ATOM     19  C   UNL     1     108.686 130.678 136.786  0.00  0.00    +0.000 C 
ATOM     20  C   UNL     1     108.277 131.393 136.753  0.00  0.00    +0.000 C 
ATOM     21  C   UNL     1     108.169 131.773 136.029  0.00  0.00    +0.000 C 
ATOM     22  C   UNL     1     108.471 131.438 135.338  0.00  0.00    +0.000 C 
ATOM     23  C   UNL     1     108.364 131.819 134.613  0.00  0.00    +0.000 C 
ENDBRANCH   6  18
BRANCH   5  28
ATOM     24  O   UNL     1     111.798 128.807 137.052  0.00  0.00    +0.000 OA
ATOM     25  O   UNL     1     111.578 129.111 134.901  0.00  0.00    +0.000 OA
ATOM     26  O   UNL     1     113.221 129.107 135.049  0.00  0.00    +0.000 OA
ATOM     27  O   UNL     1     113.916 128.903 136.532  0.00  0.00    +0.000 OA
ATOM     28  C   UNL     1     111.451 128.909 136.310  0.00  0.00    +0.000 C 
ATOM     29  C   UNL     1     111.926 129.009 135.643  0.00  0.00    +0.000 C 
ATOM     30  C   UNL     1     112.747 129.007 135.717  0.00  0.00    +0.000 C 
ATOM     31  C   UNL     1     113.094 128.905 136.458  0.00  0.00    +0.000 C 
ATOM     32  C   UNL     1     112.620 128.805 137.126  0.00  0.00    +0.000 C 
BRANCH  32  33
ATOM     33  C   UNL     1     112.967 128.703 137.867  0.00  0.00    +0.000 C 
BRANCH  33  34
ATOM     34  O   UNL     1     112.504 128.476 138.511  0.00  0.00    +0.000 OA
BRANCH  34  36
ATOM     35  O   UNL     1     113.419 128.682 139.589  0.00  0.00    +0.000 OA
ATOM     36  C   UNL     1     112.864 128.209 139.204  0.00  0.00    +0.000 C 
BRANCH  36  37
ATOM     37  C   UNL     1     112.668 127.468 139.512  0.00  0.00    +0.000 C 
BRANCH  37  39
ATOM     38  O   UNL     1     111.764 127.767 140.187  0.00  0.00    +0.000 OA
ATOM     39  C   UNL     1     112.487 127.389 140.312  0.00  0.00    +0.000 C 
ATOM     40  C   UNL     1     113.210 127.012 140.439  0.00  0.00    +0.000 C 
BRANCH  39  41
ATOM     41  C   UNL     1     112.306 127.310 141.114  0.00  0.00    +0.000 C 
BRANCH  41  44
ATOM     42  O   UNL     1     111.033 127.100 141.726  0.00  0.00    +0.000 OA
ATOM     43  O   UNL     1     111.773 125.989 141.217  0.00  0.00    +0.000 OA
ATOM     44  C   UNL     1     111.704 126.800 141.352  0.00  0.00    +0.000 C 
ENDBRANCH  41  44
ENDBRANCH  39  41
ENDBRANCH  37  39
ENDBRANCH  36  37
ENDBRANCH  34  36
ENDBRANCH  33  34
ENDBRANCH  32  33
ENDBRANCH   5  28
BRANCH  12  46
ATOM     45  O   UNL     1     111.880 123.856 136.322  0.00  0.00    +0.000 OA
ATOM     46  C   UNL     1     110.644 125.998 136.222  0.00  0.00    +0.000 A 
ATOM     47  C   UNL     1     110.821 125.657 136.952  0.00  0.00    +0.000 A 
ATOM     48  C   UNL     1     110.879 125.624 135.525  0.00  0.00    +0.000 A 
ATOM     49  C   UNL     1     111.233 124.943 136.986  0.00  0.00    +0.000 A 
ATOM     50  C   UNL     1     111.291 124.910 135.558  0.00  0.00    +0.000 A 
ATOM     51  C   UNL     1     111.468 124.569 136.289  0.00  0.00    +0.000 A 
ENDBRANCH  12  46
TORSDOF 10
ENDMDL
MODEL 2
REMARK VINA RESULT:     -10.3      2.364      5.819
REMARK  Name = 44257688
REMARK  10 active torsions:
REMARK  status: ('A' for Active; 'I' for Inactive)
REMARK    1  A    between atoms: O_11  and  C_33
REMARK    2  A    between atoms: O_11  and  C_40
REMARK    3  A    between atoms: C_19  and  C_27
REMARK    4  A    between atoms: C_22  and  C_29
REMARK    5  A    between atoms: C_24  and  C_33
REMARK    6  A    between atoms: C_38  and  C_42
REMARK    7  A    between atoms: C_40  and  C_41
REMARK    8  A    between atoms: C_41  and  C_43
REMARK    9  A    between atoms: C_43  and  C_44
REMARK   10  A    between atoms: C_44  and  C_50
REMARK                            x       y       z     vdW  Elec       q    Type
REMARK                         _______ _______ _______ _____ _____    ______ ____
ROOT
ATOM      1  O   UNL     1     113.211 128.860 139.479  0.00  0.00    +0.000 OA
ATOM      2  O   UNL     1     112.207 127.408 137.202  0.00  0.00    +0.000 OA
ATOM      3  O   UNL     1     113.594 125.999 139.266  0.00  0.00    +0.000 OA
ATOM      4  O   UNL     1     114.112 126.690 140.423  0.00  0.00    +0.000 OA
ATOM      5  C   UNL     1     112.710 128.116 138.337  0.00  0.00    +0.000 A 
ATOM      6  C   UNL     1     112.900 126.705 138.235  0.00  0.00    +0.000 A 
ATOM      7  C   UNL     1     112.606 127.410 137.925  0.00  0.00    +0.000 A 
ATOM      8  C   UNL     1     113.109 128.118 139.060  0.00  0.00    +0.000 A 
ATOM      9  C   UNL     1     113.299 126.705 138.957  0.00  0.00    +0.000 A 
ATOM     10  C   UNL     1     113.403 127.412 139.369  0.00  0.00    +0.000 A 
ATOM     11  C   UNL     1     113.820 127.400 140.120  0.00  0.00    +0.000 A 
ATOM     12  C   UNL     1     113.626 128.868 140.233  0.00  0.00    +0.000 A 
ATOM     13  C   UNL     1     113.932 128.134 140.555  0.00  0.00    +0.000 A 
ENDROOT
BRANCH   6  18
ATOM     14  O   UNL     1     113.373 125.741 137.291  0.00  0.00    +0.000 OA
ATOM     15  O   UNL     1     111.538 125.804 138.471  0.00  0.00    +0.000 OA
ATOM     16  O   UNL     1     111.330 124.390 137.646  0.00  0.00    +0.000 OA
ATOM     17  O   UNL     1     112.484 123.877 136.584  0.00  0.00    +0.000 OA
ATOM     18  C   UNL     1     112.796 125.997 137.822  0.00  0.00    +0.000 C 
ATOM     19  C   UNL     1     112.115 125.547 137.940  0.00  0.00    +0.000 C 
ATOM     20  C   UNL     1     112.011 124.841 137.528  0.00  0.00    +0.000 C 
ATOM     21  C   UNL     1     112.588 124.584 136.997  0.00  0.00    +0.000 C 
ATOM     22  C   UNL     1     113.269 125.034 136.879  0.00  0.00    +0.000 C 
ATOM     23  C   UNL     1     113.846 124.777 136.348  0.00  0.00    +0.000 C 
ENDBRANCH   6  18
BRANCH   5  28
ATOM     24  O   UNL     1     111.668 129.092 138.253  0.00  0.00    +0.000 OA
ATOM     25  O   UNL     1     113.614 128.989 137.268  0.00  0.00    +0.000 OA
ATOM     26  O   UNL     1     113.025 130.401 136.649  0.00  0.00    +0.000 OA
ATOM     27  O   UNL     1     111.532 130.939 137.099  0.00  0.00    +0.000 OA
ATOM     28  C   UNL     1     112.415 128.822 138.028  0.00  0.00    +0.000 C 
ATOM     29  C   UNL     1     112.867 129.259 137.493  0.00  0.00    +0.000 C 
ATOM     30  C   UNL     1     112.573 129.965 137.184  0.00  0.00    +0.000 C 
ATOM     31  C   UNL     1     111.826 130.233 137.408  0.00  0.00    +0.000 C 
ATOM     32  C   UNL     1     111.374 129.797 137.943  0.00  0.00    +0.000 C 
BRANCH  32  33
ATOM     33  C   UNL     1     110.627 130.066 138.168  0.00  0.00    +0.000 C 
BRANCH  33  34
ATOM     34  O   UNL     1     110.327 129.874 138.912  0.00  0.00    +0.000 OA
BRANCH  34  36
ATOM     35  O   UNL     1     108.923 129.774 138.663  0.00  0.00    +0.000 OA
ATOM     36  C   UNL     1     109.550 130.074 139.107  0.00  0.00    +0.000 C 
BRANCH  36  37
ATOM     37  C   UNL     1     109.401 130.573 139.747  0.00  0.00    +0.000 C 
BRANCH  37  39
ATOM     38  O   UNL     1     108.265 130.836 139.785  0.00  0.00    +0.000 OA
ATOM     39  C   UNL     1     108.781 130.407 140.264  0.00  0.00    +0.000 C 
ATOM     40  C   UNL     1     109.296 129.977 140.744  0.00  0.00    +0.000 C 
BRANCH  39  41
ATOM     41  C   UNL     1     108.160 130.240 140.782  0.00  0.00    +0.000 C 
BRANCH  41  44
ATOM     42  O   UNL     1     107.059 131.108 141.056  0.00  0.00    +0.000 OA
ATOM     43  O   UNL     1     108.246 131.187 141.848  0.00  0.00    +0.000 OA
ATOM     44  C   UNL     1     107.821 130.845 141.229  0.00  0.00    +0.000 C 
ENDBRANCH  41  44
ENDBRANCH  39  41
ENDBRANCH  37  39
ENDBRANCH  36  37
ENDBRANCH  34  36
ENDBRANCH  33  34
ENDBRANCH  32  33
ENDBRANCH   5  28
BRANCH  12  46
ATOM     45  O   UNL     1     114.036 131.701 141.875  0.00  0.00    +0.000 OA
ATOM     46  C   UNL     1     113.728 129.577 140.643  0.00  0.00    +0.000 A 
ATOM     47  C   UNL     1     114.406 130.030 140.521  0.00  0.00    +0.000 A 
ATOM     48  C   UNL     1     113.153 129.831 141.177  0.00  0.00    +0.000 A 
ATOM     49  C   UNL     1     114.509 130.738 140.931  0.00  0.00    +0.000 A 
ATOM     50  C   UNL     1     113.255 130.539 141.587  0.00  0.00    +0.000 A 
ATOM     51  C   UNL     1     113.933 130.993 141.465  0.00  0.00    +0.000 A 
ENDBRANCH  12  46
TORSDOF 10
ENDMDL
MODEL 3
REMARK VINA RESULT:     -10.0      2.020      4.750
REMARK  Name = 44257688
REMARK  10 active torsions:
REMARK  status: ('A' for Active; 'I' for Inactive)
REMARK    1  A    between atoms: O_11  and  C_33
REMARK    2  A    between atoms: O_11  and  C_40
REMARK    3  A    between atoms: C_19  and  C_27
REMARK    4  A    between atoms: C_22  and  C_29
REMARK    5  A    between atoms: C_24  and  C_33
REMARK    6  A    between atoms: C_38  and  C_42
REMARK    7  A    between atoms: C_40  and  C_41
REMARK    8  A    between atoms: C_41  and  C_43
REMARK    9  A    between atoms: C_43  and  C_44
REMARK   10  A    between atoms: C_44  and  C_50
REMARK                            x       y       z     vdW  Elec       q    Type
REMARK                         _______ _______ _______ _____ _____    ______ ____
ROOT
ATOM      1  O   UNL     1     109.944 129.239 136.265  0.00  0.00    +0.000 OA
ATOM      2  O   UNL     1     111.897 127.534 137.522  0.00  0.00    +0.000 OA
ATOM      3  O   UNL     1     109.614 126.364 136.264  0.00  0.00    +0.000 OA
ATOM      4  O   UNL     1     108.613 127.183 135.623  0.00  0.00    +0.000 OA
ATOM      5  C   UNL     1     110.921 128.368 136.895  0.00  0.00    +0.000 A 
ATOM      6  C   UNL     1     110.755 126.950 136.893  0.00  0.00    +0.000 A 
ATOM      7  C   UNL     1     111.191 127.618 137.103  0.00  0.00    +0.000 A 
ATOM      8  C   UNL     1     110.215 128.452 136.476  0.00  0.00    +0.000 A 
ATOM      9  C   UNL     1     110.049 127.032 136.474  0.00  0.00    +0.000 A 
ATOM     10  C   UNL     1     109.779 127.784 136.266  0.00  0.00    +0.000 A 
ATOM     11  C   UNL     1     109.043 127.856 135.830  0.00  0.00    +0.000 A 
ATOM     12  C   UNL     1     109.209 129.332 135.829  0.00  0.00    +0.000 A 
ATOM     13  C   UNL     1     108.756 128.636 135.609  0.00  0.00    +0.000 A 
ENDROOT
BRANCH   6  18
ATOM     14  O   UNL     1     111.510 125.776 136.584  0.00  0.00    +0.000 OA
ATOM     15  O   UNL     1     110.327 126.292 138.344  0.00  0.00    +0.000 OA
ATOM     16  O   UNL     1     110.868 124.790 138.761  0.00  0.00    +0.000 OA
ATOM     17  O   UNL     1     111.836 123.945 137.726  0.00  0.00    +0.000 OA
ATOM     18  C   UNL     1     111.026 126.198 137.101  0.00  0.00    +0.000 C 
ATOM     19  C   UNL     1     110.812 125.869 137.827  0.00  0.00    +0.000 C 
ATOM     20  C   UNL     1     111.082 125.118 138.035  0.00  0.00    +0.000 C 
ATOM     21  C   UNL     1     111.566 124.696 137.518  0.00  0.00    +0.000 C 
ATOM     22  C   UNL     1     111.780 125.025 136.792  0.00  0.00    +0.000 C 
ATOM     23  C   UNL     1     112.264 124.603 136.274  0.00  0.00    +0.000 C 
ENDBRANCH   6  18
BRANCH   5  28
ATOM     24  O   UNL     1     111.152 129.467 137.780  0.00  0.00    +0.000 OA
ATOM     25  O   UNL     1     112.201 128.844 135.969  0.00  0.00    +0.000 OA
ATOM     26  O   UNL     1     113.072 130.181 136.390  0.00  0.00    +0.000 OA
ATOM     27  O   UNL     1     112.663 131.041 137.737  0.00  0.00    +0.000 OA
ATOM     28  C   UNL     1     111.356 129.037 137.106  0.00  0.00    +0.000 C 
ATOM     29  C   UNL     1     111.996 129.275 136.643  0.00  0.00    +0.000 C 
ATOM     30  C   UNL     1     112.432 129.943 136.854  0.00  0.00    +0.000 C 
ATOM     31  C   UNL     1     112.227 130.373 137.526  0.00  0.00    +0.000 C 
ATOM     32  C   UNL     1     111.587 130.136 137.990  0.00  0.00    +0.000 C 
BRANCH  32  33
ATOM     33  C   UNL     1     111.383 130.566 138.663  0.00  0.00    +0.000 C 
BRANCH  33  34
ATOM     34  O   UNL     1     110.716 130.355 139.100  0.00  0.00    +0.000 OA
BRANCH  34  36
ATOM     35  O   UNL     1     110.983 131.150 140.257  0.00  0.00    +0.000 OA
ATOM     36  C   UNL     1     110.448 130.846 139.708  0.00  0.00    +0.000 C 
BRANCH  36  37
ATOM     37  C   UNL     1     109.646 131.032 139.765  0.00  0.00    +0.000 C 
BRANCH  37  39
ATOM     38  O   UNL     1     109.480 131.406 140.857  0.00  0.00    +0.000 OA
ATOM     39  C   UNL     1     109.207 130.768 140.410  0.00  0.00    +0.000 C 
ATOM     40  C   UNL     1     108.933 130.130 139.965  0.00  0.00    +0.000 C 
BRANCH  39  41
ATOM     41  C   UNL     1     108.767 130.505 141.058  0.00  0.00    +0.000 C 
BRANCH  41  44
ATOM     42  O   UNL     1     107.443 130.030 140.809  0.00  0.00    +0.000 OA
ATOM     43  O   UNL     1     107.643 131.332 141.364  0.00  0.00    +0.000 OA
ATOM     44  C   UNL     1     107.951 130.622 141.077  0.00  0.00    +0.000 C 
ENDBRANCH  41  44
ENDBRANCH  39  41
ENDBRANCH  37  39
ENDBRANCH  36  37
ENDBRANCH  34  36
ENDBRANCH  33  34
ENDBRANCH  32  33
ENDBRANCH   5  28
BRANCH  12  46
ATOM     45  O   UNL     1     108.137 132.341 135.001  0.00  0.00    +0.000 OA
ATOM     46  C   UNL     1     108.941 130.084 135.621  0.00  0.00    +0.000 A 
ATOM     47  C   UNL     1     109.198 130.436 134.921  0.00  0.00    +0.000 A 
ATOM     48  C   UNL     1     108.416 130.486 136.115  0.00  0.00    +0.000 A 
ATOM     49  C   UNL     1     108.930 131.188 134.714  0.00  0.00    +0.000 A 
ATOM     50  C   UNL     1     108.147 131.238 135.909  0.00  0.00    +0.000 A 
ATOM     51  C   UNL     1     108.405 131.589 135.208  0.00  0.00    +0.000 A 
ENDBRANCH  12  46
TORSDOF 10
ENDMDL
MODEL 4
REMARK VINA RESULT:     -10.0      2.266      4.950
REMARK  Name = 44257688
REMARK  10 active torsions:
REMARK  status: ('A' for Active; 'I' for Inactive)
REMARK    1  A    between atoms: O_11  and  C_33
REMARK    2  A    between atoms: O_11  and  C_40
REMARK    3  A    between atoms: C_19  and  C_27
REMARK    4  A    between atoms: C_22  and  C_29
REMARK    5  A    between atoms: C_24  and  C_33
REMARK    6  A    between atoms: C_38  and  C_42
REMARK    7  A    between atoms: C_40  and  C_41
REMARK    8  A    between atoms: C_41  and  C_43
REMARK    9  A    between atoms: C_43  and  C_44
REMARK   10  A    between atoms: C_44  and  C_50
REMARK                            x       y       z     vdW  Elec       q    Type
REMARK                         _______ _______ _______ _____ _____    ______ ____
ROOT
ATOM      1  O   UNL     1     111.162 128.960 136.092  0.00  0.00    +0.000 OA
ATOM      2  O   UNL     1     113.620 128.069 137.302  0.00  0.00    +0.000 OA
ATOM      3  O   UNL     1     111.938 126.174 135.981  0.00  0.00    +0.000 OA
ATOM      4  O   UNL     1     110.698 126.580 135.363  0.00  0.00    +0.000 OA
ATOM      5  C   UNL     1     112.398 128.497 136.698  0.00  0.00    +0.000 A 
ATOM      6  C   UNL     1     112.779 127.122 136.641  0.00  0.00    +0.000 A 
ATOM      7  C   UNL     1     112.932 127.897 136.880  0.00  0.00    +0.000 A 
ATOM      8  C   UNL     1     111.710 128.325 136.276  0.00  0.00    +0.000 A 
ATOM      9  C   UNL     1     112.091 126.948 136.220  0.00  0.00    +0.000 A 
ATOM     10  C   UNL     1     111.557 127.550 136.037  0.00  0.00    +0.000 A 
ATOM     11  C   UNL     1     110.844 127.357 135.598  0.00  0.00    +0.000 A 
ATOM     12  C   UNL     1     110.443 128.786 135.653  0.00  0.00    +0.000 A 
ATOM     13  C   UNL     1     110.283 127.980 135.405  0.00  0.00    +0.000 A 
ENDROOT
BRANCH   6  18
ATOM     14  O   UNL     1     113.925 126.339 136.300  0.00  0.00    +0.000 OA
ATOM     15  O   UNL     1     112.624 126.280 138.052  0.00  0.00    +0.000 OA
ATOM     16  O   UNL     1     113.692 125.077 138.416  0.00  0.00    +0.000 OA
ATOM     17  O   UNL     1     114.916 124.715 137.370  0.00  0.00    +0.000 OA
ATOM     18  C   UNL     1     113.313 126.520 136.824  0.00  0.00    +0.000 C 
ATOM     19  C   UNL     1     113.236 126.099 137.529  0.00  0.00    +0.000 C 
ATOM     20  C   UNL     1     113.770 125.498 137.711  0.00  0.00    +0.000 C 
ATOM     21  C   UNL     1     114.381 125.317 137.189  0.00  0.00    +0.000 C 
ATOM     22  C   UNL     1     114.459 125.738 136.483  0.00  0.00    +0.000 C 
ATOM     23  C   UNL     1     115.071 125.557 135.960  0.00  0.00    +0.000 C 
ENDBRANCH   6  18
BRANCH   5  28
ATOM     24  O   UNL     1     112.199 129.571 137.621  0.00  0.00    +0.000 OA
ATOM     25  O   UNL     1     113.411 129.450 135.808  0.00  0.00    +0.000 OA
ATOM     26  O   UNL     1     113.718 130.999 136.286  0.00  0.00    +0.000 OA
ATOM     27  O   UNL     1     113.012 131.596 137.653  0.00  0.00    +0.000 OA
ATOM     28  C   UNL     1     112.552 129.272 136.937  0.00  0.00    +0.000 C 
ATOM     29  C   UNL     1     113.058 129.749 136.492  0.00  0.00    +0.000 C 
ATOM     30  C   UNL     1     113.211 130.523 136.731  0.00  0.00    +0.000 C 
ATOM     31  C   UNL     1     112.859 130.821 137.414  0.00  0.00    +0.000 C 
ATOM     32  C   UNL     1     112.353 130.345 137.860  0.00  0.00    +0.000 C 
BRANCH  32  33
ATOM     33  C   UNL     1     112.000 130.643 138.543  0.00  0.00    +0.000 C 
BRANCH  33  34
ATOM     34  O   UNL     1     111.272 130.347 138.794  0.00  0.00    +0.000 OA
BRANCH  34  36
ATOM     35  O   UNL     1     111.314 130.897 140.112  0.00  0.00    +0.000 OA
ATOM     36  C   UNL     1     110.886 130.692 139.437  0.00  0.00    +0.000 C 
BRANCH  36  37
ATOM     37  C   UNL     1     110.073 130.830 139.405  0.00  0.00    +0.000 C 
BRANCH  37  39
ATOM     38  O   UNL     1     109.712 131.392 140.362  0.00  0.00    +0.000 OA
ATOM     39  C   UNL     1     109.597 130.637 140.049  0.00  0.00    +0.000 C 
ATOM     40  C   UNL     1     109.481 129.882 139.738  0.00  0.00    +0.000 C 
BRANCH  39  41
ATOM     41  C   UNL     1     109.119 130.444 140.695  0.00  0.00    +0.000 C 
BRANCH  41  44
ATOM     42  O   UNL     1     108.052 131.254 141.190  0.00  0.00    +0.000 OA
ATOM     43  O   UNL     1     107.792 130.258 140.199  0.00  0.00    +0.000 OA
ATOM     44  C   UNL     1     108.321 130.652 140.695  0.00  0.00    +0.000 C 
ENDBRANCH  41  44
ENDBRANCH  39  41
ENDBRANCH  37  39
ENDBRANCH  36  37
ENDBRANCH  34  36
ENDBRANCH  33  34
ENDBRANCH  32  33
ENDBRANCH   5  28
BRANCH  12  46
ATOM     45  O   UNL     1     108.313 131.200 134.930  0.00  0.00    +0.000 OA
ATOM     46  C   UNL     1     109.911 129.390 135.472  0.00  0.00    +0.000 A 
ATOM     47  C   UNL     1     110.020 129.848 134.796  0.00  0.00    +0.000 A 
ATOM     48  C   UNL     1     109.268 129.535 135.968  0.00  0.00    +0.000 A 
ATOM     49  C   UNL     1     109.488 130.452 134.614  0.00  0.00    +0.000 A 
ATOM     50  C   UNL     1     108.735 130.138 135.788  0.00  0.00    +0.000 A 
ATOM     51  C   UNL     1     108.845 130.597 135.111  0.00  0.00    +0.000 A 
ENDBRANCH  12  46
TORSDOF 10
ENDMDL
MODEL 5
REMARK VINA RESULT:     -10.0      1.409      4.965
REMARK  Name = 44257688
REMARK  10 active torsions:
REMARK  status: ('A' for Active; 'I' for Inactive)
REMARK    1  A    between atoms: O_11  and  C_33
REMARK    2  A    between atoms: O_11  and  C_40
REMARK    3  A    between atoms: C_19  and  C_27
REMARK    4  A    between atoms: C_22  and  C_29
REMARK    5  A    between atoms: C_24  and  C_33
REMARK    6  A    between atoms: C_38  and  C_42
REMARK    7  A    between atoms: C_40  and  C_41
REMARK    8  A    between atoms: C_41  and  C_43
REMARK    9  A    between atoms: C_43  and  C_44
REMARK   10  A    between atoms: C_44  and  C_50
REMARK                            x       y       z     vdW  Elec       q    Type
REMARK                         _______ _______ _______ _____ _____    ______ ____
ROOT
ATOM      1  O   UNL     1     112.528 126.947 137.619  0.00  0.00    +0.000 OA
ATOM      2  O   UNL     1     113.115 129.722 138.130  0.00  0.00    +0.000 OA
ATOM      3  O   UNL     1     113.142 127.858 140.297  0.00  0.00    +0.000 OA
ATOM      4  O   UNL     1     112.854 126.460 140.082  0.00  0.00    +0.000 OA
ATOM      5  C   UNL     1     112.826 128.343 137.891  0.00  0.00    +0.000 A 
ATOM      6  C   UNL     1     113.128 128.789 139.213  0.00  0.00    +0.000 A 
ATOM      7  C   UNL     1     113.023 128.951 138.411  0.00  0.00    +0.000 A 
ATOM      8  C   UNL     1     112.734 127.572 138.171  0.00  0.00    +0.000 A 
ATOM      9  C   UNL     1     113.036 128.020 139.495  0.00  0.00    +0.000 A 
ATOM     10  C   UNL     1     112.839 127.411 138.973  0.00  0.00    +0.000 A 
ATOM     11  C   UNL     1     112.746 126.613 139.279  0.00  0.00    +0.000 A 
ATOM     12  C   UNL     1     112.431 126.143 137.906  0.00  0.00    +0.000 A 
ATOM     13  C   UNL     1     112.541 125.975 138.741  0.00  0.00    +0.000 A 
ENDROOT
BRANCH   6  18
ATOM     14  O   UNL     1     114.117 129.585 139.869  0.00  0.00    +0.000 OA
ATOM     15  O   UNL     1     111.938 129.632 139.987  0.00  0.00    +0.000 OA
ATOM     16  O   UNL     1     112.333 130.848 141.029  0.00  0.00    +0.000 OA
ATOM     17  O   UNL     1     113.917 131.223 141.297  0.00  0.00    +0.000 OA
ATOM     18  C   UNL     1     113.325 129.398 139.735  0.00  0.00    +0.000 C 
ATOM     19  C   UNL     1     112.730 129.820 140.121  0.00  0.00    +0.000 C 
ATOM     20  C   UNL     1     112.928 130.427 140.642  0.00  0.00    +0.000 C 
ATOM     21  C   UNL     1     113.719 130.615 140.776  0.00  0.00    +0.000 C 
ATOM     22  C   UNL     1     114.314 130.194 140.390  0.00  0.00    +0.000 C 
ATOM     23  C   UNL     1     115.107 130.381 140.524  0.00  0.00    +0.000 C 
ENDBRANCH   6  18
BRANCH   5  28
ATOM     24  O   UNL     1     111.963 128.647 136.792  0.00  0.00    +0.000 OA
ATOM     25  O   UNL     1     114.128 128.381 136.879  0.00  0.00    +0.000 OA
ATOM     26  O   UNL     1     113.918 128.704 135.274  0.00  0.00    +0.000 OA
ATOM     27  O   UNL     1     112.404 128.989 134.682  0.00  0.00    +0.000 OA
ATOM     28  C   UNL     1     112.720 128.504 137.089  0.00  0.00    +0.000 C 
ATOM     29  C   UNL     1     113.371 128.523 136.582  0.00  0.00    +0.000 C 
ATOM     30  C   UNL     1     113.266 128.685 135.780  0.00  0.00    +0.000 C 
ATOM     31  C   UNL     1     112.510 128.828 135.484  0.00  0.00    +0.000 C 
ATOM     32  C   UNL     1     111.858 128.809 135.990  0.00  0.00    +0.000 C 
BRANCH  32  33
ATOM     33  C   UNL     1     111.101 128.951 135.694  0.00  0.00    +0.000 C 
BRANCH  33  34
ATOM     34  O   UNL     1     110.617 129.513 136.055  0.00  0.00    +0.000 OA
BRANCH  34  36
ATOM     35  O   UNL     1     109.636 129.394 135.023  0.00  0.00    +0.000 OA
ATOM     36  C   UNL     1     109.844 129.625 135.787  0.00  0.00    +0.000 C 
BRANCH  36  37
ATOM     37  C   UNL     1     109.281 129.968 136.282  0.00  0.00    +0.000 C 
BRANCH  37  39
ATOM     38  O   UNL     1     108.231 129.959 135.773  0.00  0.00    +0.000 OA
ATOM     39  C   UNL     1     108.771 130.545 135.989  0.00  0.00    +0.000 C 
ATOM     40  C   UNL     1     109.309 131.132 136.204  0.00  0.00    +0.000 C 
BRANCH  39  41
ATOM     41  C   UNL     1     108.259 131.123 135.694  0.00  0.00    +0.000 C 
BRANCH  41  44
ATOM     42  O   UNL     1     107.662 131.710 136.851  0.00  0.00    +0.000 OA
ATOM     43  O   UNL     1     106.837 131.170 135.818  0.00  0.00    +0.000 OA
ATOM     44  C   UNL     1     107.586 131.335 136.122  0.00  0.00    +0.000 C 
ENDBRANCH  41  44
ENDBRANCH  39  41
ENDBRANCH  37  39
ENDBRANCH  36  37
ENDBRANCH  34  36
ENDBRANCH  33  34
ENDBRANCH  32  33
ENDBRANCH   5  28
BRANCH  12  46
ATOM     45  O   UNL     1     111.644 123.716 135.813  0.00  0.00    +0.000 OA
ATOM     46  C   UNL     1     112.234 125.536 137.382  0.00  0.00    +0.000 A 
ATOM     47  C   UNL     1     111.444 125.391 137.197  0.00  0.00    +0.000 A 
ATOM     48  C   UNL     1     112.828 125.074 137.045  0.00  0.00    +0.000 A 
ATOM     49  C   UNL     1     111.247 124.785 136.674  0.00  0.00    +0.000 A 
ATOM     50  C   UNL     1     112.632 124.467 136.522  0.00  0.00    +0.000 A 
ATOM     51  C   UNL     1     111.841 124.322 136.336  0.00  0.00    +0.000 A 
ENDBRANCH  12  46
TORSDOF 10
ENDMDL
MODEL 6
REMARK VINA RESULT:     -10.0      1.612      2.810
REMARK  Name = 44257688
REMARK  10 active torsions:
REMARK  status: ('A' for Active; 'I' for Inactive)
REMARK    1  A    between atoms: O_11  and  C_33
REMARK    2  A    between atoms: O_11  and  C_40
REMARK    3  A    between atoms: C_19  and  C_27
REMARK    4  A    between atoms: C_22  and  C_29
REMARK    5  A    between atoms: C_24  and  C_33
REMARK    6  A    between atoms: C_38  and  C_42
REMARK    7  A    between atoms: C_40  and  C_41
REMARK    8  A    between atoms: C_41  and  C_43
REMARK    9  A    between atoms: C_43  and  C_44
REMARK   10  A    between atoms: C_44  and  C_50
REMARK                            x       y       z     vdW  Elec       q    Type
REMARK                         _______ _______ _______ _____ _____    ______ ____
ROOT
ATOM      1  O   UNL     1     111.054 126.735 136.942  0.00  0.00    +0.000 OA
ATOM      2  O   UNL     1     109.484 128.955 137.893  0.00  0.00    +0.000 OA
ATOM      3  O   UNL     1     110.193 128.819 135.127  0.00  0.00    +0.000 OA
ATOM      4  O   UNL     1     110.979 127.723 134.612  0.00  0.00    +0.000 OA
ATOM      5  C   UNL     1     110.262 127.859 137.408  0.00  0.00    +0.000 A 
ATOM      6  C   UNL     1     109.839 128.886 136.510  0.00  0.00    +0.000 A 
ATOM      7  C   UNL     1     109.862 128.567 137.270  0.00  0.00    +0.000 A 
ATOM      8  C   UNL     1     110.640 127.471 136.786  0.00  0.00    +0.000 A 
ATOM      9  C   UNL     1     110.216 128.499 135.888  0.00  0.00    +0.000 A 
ATOM     10  C   UNL     1     110.617 127.791 136.026  0.00  0.00    +0.000 A 
ATOM     11  C   UNL     1     111.007 127.397 135.369  0.00  0.00    +0.000 A 
ATOM     12  C   UNL     1     111.450 126.326 136.298  0.00  0.00    +0.000 A 
ATOM     13  C   UNL     1     111.426 126.659 135.506  0.00  0.00    +0.000 A 
ENDROOT
BRANCH   6  18
ATOM     14  O   UNL     1     109.826 130.315 136.476  0.00  0.00    +0.000 OA
ATOM     15  O   UNL     1     108.261 128.861 136.028  0.00  0.00    +0.000 OA
ATOM     16  O   UNL     1     107.459 130.277 135.752  0.00  0.00    +0.000 OA
ATOM     17  O   UNL     1     108.236 131.718 135.959  0.00  0.00    +0.000 OA
ATOM     18  C   UNL     1     109.437 129.595 136.372  0.00  0.00    +0.000 C 
ATOM     19  C   UNL     1     108.649 129.582 136.131  0.00  0.00    +0.000 C 
ATOM     20  C   UNL     1     108.248 130.289 135.994  0.00  0.00    +0.000 C 
ATOM     21  C   UNL     1     108.636 131.010 136.097  0.00  0.00    +0.000 C 
ATOM     22  C   UNL     1     109.425 131.022 136.338  0.00  0.00    +0.000 C 
ATOM     23  C   UNL     1     109.813 131.743 136.441  0.00  0.00    +0.000 C 
ENDBRANCH   6  18
BRANCH   5  28
ATOM     24  O   UNL     1     110.913 127.720 138.673  0.00  0.00    +0.000 OA
ATOM     25  O   UNL     1     109.054 126.858 137.919  0.00  0.00    +0.000 OA
ATOM     26  O   UNL     1     109.100 126.219 139.439  0.00  0.00    +0.000 OA
ATOM     27  O   UNL     1     110.355 126.580 140.448  0.00  0.00    +0.000 OA
ATOM     28  C   UNL     1     110.285 127.539 138.168  0.00  0.00    +0.000 C 
ATOM     29  C   UNL     1     109.682 127.039 138.424  0.00  0.00    +0.000 C 
ATOM     30  C   UNL     1     109.705 126.719 139.184  0.00  0.00    +0.000 C 
ATOM     31  C   UNL     1     110.332 126.900 139.688  0.00  0.00    +0.000 C 
ATOM     32  C   UNL     1     110.936 127.400 139.433  0.00  0.00    +0.000 C 
BRANCH  32  33
ATOM     33  C   UNL     1     111.563 127.581 139.937  0.00  0.00    +0.000 C 
BRANCH  33  34
ATOM     34  O   UNL     1     112.118 128.151 139.718  0.00  0.00    +0.000 OA
BRANCH  34  36
ATOM     35  O   UNL     1     113.165 127.845 140.641  0.00  0.00    +0.000 OA
ATOM     36  C   UNL     1     112.690 128.400 140.259  0.00  0.00    +0.000 C 
BRANCH  36  37
ATOM     37  C   UNL     1     112.785 129.205 140.416  0.00  0.00    +0.000 C 
BRANCH  37  39
ATOM     38  O   UNL     1     113.653 129.507 139.698  0.00  0.00    +0.000 OA
ATOM     39  C   UNL     1     113.541 129.518 140.515  0.00  0.00    +0.000 C 
ATOM     40  C   UNL     1     113.430 129.530 141.333  0.00  0.00    +0.000 C 
BRANCH  39  41
ATOM     41  C   UNL     1     114.298 129.833 140.614  0.00  0.00    +0.000 C 
BRANCH  41  44
ATOM     42  O   UNL     1     114.545 131.018 139.857  0.00  0.00    +0.000 OA
ATOM     43  O   UNL     1     114.396 131.095 141.276  0.00  0.00    +0.000 OA
ATOM     44  C   UNL     1     114.413 130.649 140.582  0.00  0.00    +0.000 C 
ENDBRANCH  41  44
ENDBRANCH  39  41
ENDBRANCH  37  39
ENDBRANCH  36  37
ENDBRANCH  34  36
ENDBRANCH  33  34
ENDBRANCH  32  33
ENDBRANCH   5  28
BRANCH  12  46
ATOM     45  O   UNL     1     113.049 123.495 136.859  0.00  0.00    +0.000 OA
ATOM     46  C   UNL     1     111.850 125.618 136.438  0.00  0.00    +0.000 A 
ATOM     47  C   UNL     1     112.649 125.629 136.642  0.00  0.00    +0.000 A 
ATOM     48  C   UNL     1     111.451 124.899 136.375  0.00  0.00    +0.000 A 
ATOM     49  C   UNL     1     113.049 124.921 136.782  0.00  0.00    +0.000 A 
ATOM     50  C   UNL     1     111.850 124.191 136.515  0.00  0.00    +0.000 A 
ATOM     51  C   UNL     1     112.650 124.202 136.719  0.00  0.00    +0.000 A 
ENDBRANCH  12  46
TORSDOF 10
ENDMDL
MODEL 7
REMARK VINA RESULT:      -9.9      1.777      2.696
REMARK  Name = 44257688
REMARK  10 active torsions:
REMARK  status: ('A' for Active; 'I' for Inactive)
REMARK    1  A    between atoms: O_11  and  C_33
REMARK    2  A    between atoms: O_11  and  C_40
REMARK    3  A    between atoms: C_19  and  C_27
REMARK    4  A    between atoms: C_22  and  C_29
REMARK    5  A    between atoms: C_24  and  C_33
REMARK    6  A    between atoms: C_38  and  C_42
REMARK    7  A    between atoms: C_40  and  C_41
REMARK    8  A    between atoms: C_41  and  C_43
REMARK    9  A    between atoms: C_43  and  C_44
REMARK   10  A    between atoms: C_44  and  C_50
REMARK                            x       y       z     vdW  Elec       q    Type
REMARK                         _______ _______ _______ _____ _____    ______ ____
ROOT
ATOM      1  O   UNL     1     112.357 126.995 136.981  0.00  0.00    +0.000 OA
ATOM      2  O   UNL     1     110.735 129.333 137.429  0.00  0.00    +0.000 OA
ATOM      3  O   UNL     1     110.382 127.819 135.031  0.00  0.00    +0.000 OA
ATOM      4  O   UNL     1     111.175 126.642 134.769  0.00  0.00    +0.000 OA
ATOM      5  C   UNL     1     111.533 128.171 137.194  0.00  0.00    +0.000 A 
ATOM      6  C   UNL     1     110.559 128.576 136.231  0.00  0.00    +0.000 A 
ATOM      7  C   UNL     1     110.942 128.693 136.952  0.00  0.00    +0.000 A 
ATOM      8  C   UNL     1     111.740 127.531 136.717  0.00  0.00    +0.000 A 
ATOM      9  C   UNL     1     110.766 127.937 135.752  0.00  0.00    +0.000 A 
ATOM     10  C   UNL     1     111.357 127.414 135.996  0.00  0.00    +0.000 A 
ATOM     11  C   UNL     1     111.564 126.752 135.489  0.00  0.00    +0.000 A 
ATOM     12  C   UNL     1     112.578 126.326 136.487  0.00  0.00    +0.000 A 
ATOM     13  C   UNL     1     112.178 126.204 135.736  0.00  0.00    +0.000 A 
ENDROOT
BRANCH   6  18
ATOM     14  O   UNL     1     110.162 129.755 135.528  0.00  0.00    +0.000 OA
ATOM     15  O   UNL     1     108.990 128.306 136.664  0.00  0.00    +0.000 OA
ATOM     16  O   UNL     1     107.809 129.351 136.178  0.00  0.00    +0.000 OA
ATOM     17  O   UNL     1     108.197 130.665 135.258  0.00  0.00    +0.000 OA
ATOM     18  C   UNL     1     109.968 129.098 135.987  0.00  0.00    +0.000 C 
ATOM     19  C   UNL     1     109.183 128.964 136.204  0.00  0.00    +0.000 C 
ATOM     20  C   UNL     1     108.593 129.486 135.961  0.00  0.00    +0.000 C 
ATOM     21  C   UNL     1     108.787 130.142 135.501  0.00  0.00    +0.000 C 
ATOM     22  C   UNL     1     109.572 130.277 135.285  0.00  0.00    +0.000 C 
ATOM     23  C   UNL     1     109.766 130.934 134.825  0.00  0.00    +0.000 C 
ENDBRANCH   6  18
BRANCH   5  28
ATOM     24  O   UNL     1     111.674 127.870 138.585  0.00  0.00    +0.000 OA
ATOM     25  O   UNL     1     112.783 129.243 137.299  0.00  0.00    +0.000 OA
ATOM     26  O   UNL     1     113.549 129.478 138.741  0.00  0.00    +0.000 OA
ATOM     27  O   UNL     1     113.066 128.641 140.078  0.00  0.00    +0.000 OA
ATOM     28  C   UNL     1     111.916 128.289 137.915  0.00  0.00    +0.000 C 
ATOM     29  C   UNL     1     112.541 128.824 137.968  0.00  0.00    +0.000 C 
ATOM     30  C   UNL     1     112.924 128.942 138.689  0.00  0.00    +0.000 C 
ATOM     31  C   UNL     1     112.683 128.524 139.357  0.00  0.00    +0.000 C 
ATOM     32  C   UNL     1     112.058 127.987 139.306  0.00  0.00    +0.000 C 
BRANCH  32  33
ATOM     33  C   UNL     1     111.816 127.569 139.974  0.00  0.00    +0.000 C 
BRANCH  33  34
ATOM     34  O   UNL     1     111.064 127.230 139.998  0.00  0.00    +0.000 OA
BRANCH  34  36
ATOM     35  O   UNL     1     111.422 126.117 140.819  0.00  0.00    +0.000 OA
ATOM     36  C   UNL     1     110.874 126.690 140.593  0.00  0.00    +0.000 C 
BRANCH  36  37
ATOM     37  C   UNL     1     110.136 126.724 140.961  0.00  0.00    +0.000 C 
BRANCH  37  39
ATOM     38  O   UNL     1     110.029 125.639 141.377  0.00  0.00    +0.000 OA
ATOM     39  C   UNL     1     109.595 126.110 140.857  0.00  0.00    +0.000 C 
ATOM     40  C   UNL     1     109.161 126.580 140.336  0.00  0.00    +0.000 C 
BRANCH  39  41
ATOM     41  C   UNL     1     109.054 125.496 140.753  0.00  0.00    +0.000 C 
BRANCH  41  44
ATOM     42  O   UNL     1     108.065 125.553 141.782  0.00  0.00    +0.000 OA
ATOM     43  O   UNL     1     107.686 125.734 140.416  0.00  0.00    +0.000 OA
ATOM     44  C   UNL     1     108.268 125.594 140.984  0.00  0.00    +0.000 C 
ENDBRANCH  41  44
ENDBRANCH  39  41
ENDBRANCH  37  39
ENDBRANCH  36  37
ENDBRANCH  34  36
ENDBRANCH  33  34
ENDBRANCH  32  33
ENDBRANCH   5  28
BRANCH  12  46
ATOM     45  O   UNL     1     114.940 124.243 137.469  0.00  0.00    +0.000 OA
ATOM     46  C   UNL     1     113.169 125.806 136.733  0.00  0.00    +0.000 A 
ATOM     47  C   UNL     1     113.959 125.969 136.565  0.00  0.00    +0.000 A 
ATOM     48  C   UNL     1     112.969 125.121 137.146  0.00  0.00    +0.000 A 
ATOM     49  C   UNL     1     114.550 125.449 136.810  0.00  0.00    +0.000 A 
ATOM     50  C   UNL     1     113.559 124.599 137.392  0.00  0.00    +0.000 A 
ATOM     51  C   UNL     1     114.350 124.764 137.224  0.00  0.00    +0.000 A 
ENDBRANCH  12  46
TORSDOF 10
ENDMDL
MODEL 8
REMARK VINA RESULT:      -9.8      2.131      4.668
REMARK  Name = 44257688
REMARK  10 active torsions:
REMARK  status: ('A' for Active; 'I' for Inactive)
REMARK    1  A    between atoms: O_11  and  C_33
REMARK    2  A    between atoms: O_11  and  C_40
REMARK    3  A    between atoms: C_19  and  C_27
REMARK    4  A    between atoms: C_22  and  C_29
REMARK    5  A    between atoms: C_24  and  C_33
REMARK    6  A    between atoms: C_38  and  C_42
REMARK    7  A    between atoms: C_40  and  C_41
REMARK    8  A    between atoms: C_41  and  C_43
REMARK    9  A    between atoms: C_43  and  C_44
REMARK   10  A    between atoms: C_44  and  C_50
REMARK                            x       y       z     vdW  Elec       q    Type
REMARK                         _______ _______ _______ _____ _____    ______ ____
ROOT
ATOM      1  O   UNL     1     111.449 128.644 137.582  0.00  0.00    +0.000 OA
ATOM      2  O   UNL     1     109.231 127.722 139.172  0.00  0.00    +0.000 OA
ATOM      3  O   UNL     1     111.002 129.692 140.243  0.00  0.00    +0.000 OA
ATOM      4  O   UNL     1     112.125 130.180 139.478  0.00  0.00    +0.000 OA
ATOM      5  C   UNL     1     110.335 128.188 138.394  0.00  0.00    +0.000 A 
ATOM      6  C   UNL     1     110.117 128.707 139.707  0.00  0.00    +0.000 A 
ATOM      7  C   UNL     1     109.894 128.205 139.091  0.00  0.00    +0.000 A 
ATOM      8  C   UNL     1     110.999 128.672 138.313  0.00  0.00    +0.000 A 
ATOM      9  C   UNL     1     110.780 129.191 139.627  0.00  0.00    +0.000 A 
ATOM     10  C   UNL     1     111.221 129.173 138.929  0.00  0.00    +0.000 A 
ATOM     11  C   UNL     1     111.909 129.682 138.857  0.00  0.00    +0.000 A 
ATOM     12  C   UNL     1     112.142 129.146 137.491  0.00  0.00    +0.000 A 
ATOM     13  C   UNL     1     112.373 129.668 138.133  0.00  0.00    +0.000 A 
ENDROOT
BRANCH   6  18
ATOM     14  O   UNL     1     109.053 129.260 140.485  0.00  0.00    +0.000 OA
ATOM     15  O   UNL     1     110.480 127.672 140.940  0.00  0.00    +0.000 OA
ATOM     16  O   UNL     1     109.598 127.708 142.334  0.00  0.00    +0.000 OA
ATOM     17  O   UNL     1     108.353 128.779 142.495  0.00  0.00    +0.000 OA
ATOM     18  C   UNL     1     109.676 128.725 140.405  0.00  0.00    +0.000 C 
ATOM     19  C   UNL     1     109.857 128.207 141.021  0.00  0.00    +0.000 C 
ATOM     20  C   UNL     1     109.417 128.225 141.717  0.00  0.00    +0.000 C 
ATOM     21  C   UNL     1     108.795 128.760 141.798  0.00  0.00    +0.000 C 
ATOM     22  C   UNL     1     108.613 129.278 141.182  0.00  0.00    +0.000 C 
ATOM     23  C   UNL     1     107.990 129.814 141.263  0.00  0.00    +0.000 C 
ENDBRANCH   6  18
BRANCH   5  28
ATOM     24  O   UNL     1     110.491 126.959 137.680  0.00  0.00    +0.000 OA
ATOM     25  O   UNL     1     109.133 128.638 137.357  0.00  0.00    +0.000 OA
ATOM     26  O   UNL     1     108.688 127.635 136.125  0.00  0.00    +0.000 OA
ATOM     27  O   UNL     1     109.445 126.182 135.930  0.00  0.00    +0.000 OA
ATOM     28  C   UNL     1     110.113 127.686 137.778  0.00  0.00    +0.000 C 
ATOM     29  C   UNL     1     109.512 127.911 137.259  0.00  0.00    +0.000 C 
ATOM     30  C   UNL     1     109.289 127.409 136.643  0.00  0.00    +0.000 C 
ATOM     31  C   UNL     1     109.668 126.683 136.546  0.00  0.00    +0.000 C 
ATOM     32  C   UNL     1     110.269 126.458 137.064  0.00  0.00    +0.000 C 
BRANCH  32  33
ATOM     33  C   UNL     1     110.647 125.732 136.967  0.00  0.00    +0.000 C 
BRANCH  33  34
ATOM     34  O   UNL     1     111.418 125.629 137.241  0.00  0.00    +0.000 OA
BRANCH  34  36
ATOM     35  O   UNL     1     111.549 124.206 137.233  0.00  0.00    +0.000 OA
ATOM     36  C   UNL     1     111.843 124.951 137.035  0.00  0.00    +0.000 C 
BRANCH  36  37
ATOM     37  C   UNL     1     112.559 125.019 136.632  0.00  0.00    +0.000 C 
BRANCH  37  39
ATOM     38  O   UNL     1     113.279 125.356 137.486  0.00  0.00    +0.000 OA
ATOM     39  C   UNL     1     113.250 124.716 136.965  0.00  0.00    +0.000 C 
ATOM     40  C   UNL     1     113.221 124.077 136.445  0.00  0.00    +0.000 C 
BRANCH  39  41
ATOM     41  C   UNL     1     113.941 124.413 137.299  0.00  0.00    +0.000 C 
BRANCH  41  44
ATOM     42  O   UNL     1     115.006 125.140 137.915  0.00  0.00    +0.000 OA
ATOM     43  O   UNL     1     114.997 124.949 136.499  0.00  0.00    +0.000 OA
ATOM     44  C   UNL     1     114.648 124.834 137.238  0.00  0.00    +0.000 C 
ENDBRANCH  41  44
ENDBRANCH  39  41
ENDBRANCH  37  39
ENDBRANCH  36  37
ENDBRANCH  34  36
ENDBRANCH  33  34
ENDBRANCH  32  33
ENDBRANCH   5  28
BRANCH  12  46
ATOM     45  O   UNL     1     113.898 129.066 134.700  0.00  0.00    +0.000 OA
ATOM     46  C   UNL     1     112.581 129.126 136.793  0.00  0.00    +0.000 A 
ATOM     47  C   UNL     1     112.355 129.591 136.150  0.00  0.00    +0.000 A 
ATOM     48  C   UNL     1     113.246 128.641 136.738  0.00  0.00    +0.000 A 
ATOM     49  C   UNL     1     112.794 129.571 135.452  0.00  0.00    +0.000 A 
ATOM     50  C   UNL     1     113.685 128.620 136.041  0.00  0.00    +0.000 A 
ATOM     51  C   UNL     1     113.460 129.086 135.397  0.00  0.00    +0.000 A 
ENDBRANCH  12  46
TORSDOF 10
ENDMDL
MODEL 9
REMARK VINA RESULT:      -9.8      1.812      3.837
REMARK  Name = 44257688
REMARK  10 active torsions:
REMARK  status: ('A' for Active; 'I' for Inactive)
REMARK    1  A    between atoms: O_11  and  C_33
REMARK    2  A    between atoms: O_11  and  C_40
REMARK    3  A    between atoms: C_19  and  C_27
REMARK    4  A    between atoms: C_22  and  C_29
REMARK    5  A    between atoms: C_24  and  C_33
REMARK    6  A    between atoms: C_38  and  C_42
REMARK    7  A    between atoms: C_40  and  C_41
REMARK    8  A    between atoms: C_41  and  C_43
REMARK    9  A    between atoms: C_43  and  C_44
REMARK   10  A    between atoms: C_44  and  C_50
REMARK                            x       y       z     vdW  Elec       q    Type
REMARK                         _______ _______ _______ _____ _____    ______ ____
ROOT
ATOM      1  O   UNL     1     112.510 129.779 138.404  0.00  0.00    +0.000 OA
ATOM      2  O   UNL     1     111.109 129.918 135.891  0.00  0.00    +0.000 OA
ATOM      3  O   UNL     1     109.711 130.507 138.313  0.00  0.00    +0.000 OA
ATOM      4  O   UNL     1     110.377 130.448 139.592  0.00  0.00    +0.000 OA
ATOM      5  C   UNL     1     111.792 129.853 137.144  0.00  0.00    +0.000 A 
ATOM      6  C   UNL     1     110.410 130.212 137.102  0.00  0.00    +0.000 A 
ATOM      7  C   UNL     1     111.104 129.994 136.713  0.00  0.00    +0.000 A 
ATOM      8  C   UNL     1     111.787 129.929 137.966  0.00  0.00    +0.000 A 
ATOM      9  C   UNL     1     110.404 130.289 137.924  0.00  0.00    +0.000 A 
ATOM     10  C   UNL     1     111.093 130.147 138.356  0.00  0.00    +0.000 A 
ATOM     11  C   UNL     1     111.075 130.230 139.210  0.00  0.00    +0.000 A 
ATOM     12  C   UNL     1     112.512 129.857 139.260  0.00  0.00    +0.000 A 
ATOM     13  C   UNL     1     111.789 130.084 139.666  0.00  0.00    +0.000 A 
ENDROOT
BRANCH   6  18
ATOM     14  O   UNL     1     109.547 131.118 136.412  0.00  0.00    +0.000 OA
ATOM     15  O   UNL     1     109.383 128.969 136.756  0.00  0.00    +0.000 OA
ATOM     16  O   UNL     1     108.005 129.253 135.893  0.00  0.00    +0.000 OA
ATOM     17  O   UNL     1     107.656 130.780 135.375  0.00  0.00    +0.000 OA
ATOM     18  C   UNL     1     109.721 130.354 136.670  0.00  0.00    +0.000 C 
ATOM     19  C   UNL     1     109.207 129.732 136.497  0.00  0.00    +0.000 C 
ATOM     20  C   UNL     1     108.519 129.874 136.066  0.00  0.00    +0.000 C 
ATOM     21  C   UNL     1     108.344 130.637 135.807  0.00  0.00    +0.000 C 
ATOM     22  C   UNL     1     108.858 131.259 135.980  0.00  0.00    +0.000 C 
ATOM     23  C   UNL     1     108.684 132.024 135.721  0.00  0.00    +0.000 C 
ENDBRANCH   6  18
BRANCH   5  28
ATOM     24  O   UNL     1     112.696 128.838 136.700  0.00  0.00    +0.000 OA
ATOM     25  O   UNL     1     112.760 131.009 136.475  0.00  0.00    +0.000 OA
ATOM     26  O   UNL     1     114.148 130.573 135.695  0.00  0.00    +0.000 OA
ATOM     27  O   UNL     1     114.567 128.980 135.586  0.00  0.00    +0.000 OA
ATOM     28  C   UNL     1     112.486 129.635 136.755  0.00  0.00    +0.000 C 
ATOM     29  C   UNL     1     112.970 130.212 136.420  0.00  0.00    +0.000 C 
ATOM     30  C   UNL     1     113.664 129.994 136.030  0.00  0.00    +0.000 C 
ATOM     31  C   UNL     1     113.873 129.199 135.976  0.00  0.00    +0.000 C 
ATOM     32  C   UNL     1     113.389 128.620 136.310  0.00  0.00    +0.000 C 
BRANCH  32  33
ATOM     33  C   UNL     1     113.599 127.824 136.256  0.00  0.00    +0.000 C 
BRANCH  33  34
ATOM     34  O   UNL     1     113.075 127.242 136.514  0.00  0.00    +0.000 OA
BRANCH  34  36
ATOM     35  O   UNL     1     114.071 126.237 136.312  0.00  0.00    +0.000 OA
ATOM     36  C   UNL     1     113.336 126.465 136.611  0.00  0.00    +0.000 C 
BRANCH  36  37
ATOM     37  C   UNL     1     112.864 125.917 137.007  0.00  0.00    +0.000 C 
BRANCH  37  39
ATOM     38  O   UNL     1     112.296 125.362 136.152  0.00  0.00    +0.000 OA
ATOM     39  C   UNL     1     112.827 125.137 136.742  0.00  0.00    +0.000 C 
ATOM     40  C   UNL     1     113.358 124.911 137.332  0.00  0.00    +0.000 C 
BRANCH  39  41
ATOM     41  C   UNL     1     112.790 124.356 136.477  0.00  0.00    +0.000 C 
BRANCH  41  44
ATOM     42  O   UNL     1     111.511 123.881 136.052  0.00  0.00    +0.000 OA
ATOM     43  O   UNL     1     112.038 123.478 137.317  0.00  0.00    +0.000 OA
ATOM     44  C   UNL     1     112.113 123.905 136.615  0.00  0.00    +0.000 C 
ENDBRANCH  41  44
ENDBRANCH  39  41
ENDBRANCH  37  39
ENDBRANCH  36  37
ENDBRANCH  34  36
ENDBRANCH  33  34
ENDBRANCH  32  33
ENDBRANCH   5  28
BRANCH  12  46
ATOM     45  O   UNL     1     115.270 129.286 140.978  0.00  0.00    +0.000 OA
ATOM     46  C   UNL     1     113.201 129.714 139.690  0.00  0.00    +0.000 A 
ATOM     47  C   UNL     1     113.744 130.323 139.813  0.00  0.00    +0.000 A 
ATOM     48  C   UNL     1     113.349 128.963 139.996  0.00  0.00    +0.000 A 
ATOM     49  C   UNL     1     114.434 130.181 140.243  0.00  0.00    +0.000 A 
ATOM     50  C   UNL     1     114.038 128.819 140.425  0.00  0.00    +0.000 A 
ATOM     51  C   UNL     1     114.581 129.429 140.549  0.00  0.00    +0.000 A 
ENDBRANCH  12  46
TORSDOF 10
ENDMDL
MODEL 10
REMARK VINA RESULT:      -9.7      1.497      4.446
REMARK  Name = 44257688
REMARK  10 active torsions:
REMARK  status: ('A' for Active; 'I' for Inactive)
REMARK    1  A    between atoms: O_11  and  C_33
REMARK    2  A    between atoms: O_11  and  C_40
REMARK    3  A    between atoms: C_19  and  C_27
REMARK    4  A    between atoms: C_22  and  C_29
REMARK    5  A    between atoms: C_24  and  C_33
REMARK    6  A    between atoms: C_38  and  C_42
REMARK    7  A    between atoms: C_40  and  C_41
REMARK    8  A    between atoms: C_41  and  C_43
REMARK    9  A    between atoms: C_43  and  C_44
REMARK   10  A    between atoms: C_44  and  C_50
REMARK                            x       y       z     vdW  Elec       q    Type
REMARK                         _______ _______ _______ _____ _____    ______ ____
ROOT
ATOM      1  O   UNL     1     110.489 129.195 135.936  0.00  0.00    +0.000 OA
ATOM      2  O   UNL     1     112.389 127.134 136.601  0.00  0.00    +0.000 OA
ATOM      3  O   UNL     1     109.608 126.490 136.471  0.00  0.00    +0.000 OA
ATOM      4  O   UNL     1     108.624 127.493 136.141  0.00  0.00    +0.000 OA
ATOM      5  C   UNL     1     111.436 128.146 136.272  0.00  0.00    +0.000 A 
ATOM      6  C   UNL     1     110.998 126.812 136.535  0.00  0.00    +0.000 A 
ATOM      7  C   UNL     1     111.608 127.364 136.469  0.00  0.00    +0.000 A 
ATOM      8  C   UNL     1     110.655 128.377 136.141  0.00  0.00    +0.000 A 
ATOM      9  C   UNL     1     110.217 127.042 136.404  0.00  0.00    +0.000 A 
ATOM     10  C   UNL     1     110.045 127.825 136.207  0.00  0.00    +0.000 A 
ATOM     11  C   UNL     1     109.228 128.052 136.073  0.00  0.00    +0.000 A 
ATOM     12  C   UNL     1     109.677 129.441 135.798  0.00  0.00    +0.000 A 
ATOM     13  C   UNL     1     109.042 128.866 135.867  0.00  0.00    +0.000 A 
ENDROOT
BRANCH   6  18
ATOM     14  O   UNL     1     111.334 125.481 136.139  0.00  0.00    +0.000 OA
ATOM     15  O   UNL     1     111.014 126.344 138.118  0.00  0.00    +0.000 OA
ATOM     16  O   UNL     1     111.358 124.779 138.512  0.00  0.00    +0.000 OA
ATOM     17  O   UNL     1     111.686 123.682 137.324  0.00  0.00    +0.000 OA
ATOM     18  C   UNL     1     111.170 126.029 136.733  0.00  0.00    +0.000 C 
ATOM     19  C   UNL     1     111.178 125.795 137.524  0.00  0.00    +0.000 C 
ATOM     20  C   UNL     1     111.350 125.013 137.721  0.00  0.00    +0.000 C 
ATOM     21  C   UNL     1     111.514 124.465 137.127  0.00  0.00    +0.000 C 
ATOM     22  C   UNL     1     111.506 124.699 136.336  0.00  0.00    +0.000 C 
ATOM     23  C   UNL     1     111.670 124.150 135.742  0.00  0.00    +0.000 C 
ENDBRANCH   6  18
BRANCH   5  28
ATOM     24  O   UNL     1     112.265 129.151 136.861  0.00  0.00    +0.000 OA
ATOM     25  O   UNL     1     112.216 128.345 134.832  0.00  0.00    +0.000 OA
ATOM     26  O   UNL     1     113.435 129.450 134.700  0.00  0.00    +0.000 OA
ATOM     27  O   UNL     1     113.873 130.355 136.008  0.00  0.00    +0.000 OA
ATOM     28  C   UNL     1     112.045 128.698 136.206  0.00  0.00    +0.000 C 
ATOM     29  C   UNL     1     112.436 128.798 135.486  0.00  0.00    +0.000 C 
ATOM     30  C   UNL     1     113.045 129.351 135.420  0.00  0.00    +0.000 C 
ATOM     31  C   UNL     1     113.264 129.803 136.074  0.00  0.00    +0.000 C 
ATOM     32  C   UNL     1     112.874 129.704 136.794  0.00  0.00    +0.000 C 
BRANCH  32  33
ATOM     33  C   UNL     1     113.093 130.156 137.448  0.00  0.00    +0.000 C 
BRANCH  33  34
ATOM     34  O   UNL     1     113.143 129.806 138.193  0.00  0.00    +0.000 OA
BRANCH  34  36
ATOM     35  O   UNL     1     113.799 130.899 138.839  0.00  0.00    +0.000 OA
ATOM     36  C   UNL     1     113.260 130.275 138.863  0.00  0.00    +0.000 C 
BRANCH  36  37
ATOM     37  C   UNL     1     112.839 130.120 139.555  0.00  0.00    +0.000 C 
BRANCH  37  39
ATOM     38  O   UNL     1     112.989 130.953 140.358  0.00  0.00    +0.000 OA
ATOM     39  C   UNL     1     113.217 130.163 140.286  0.00  0.00    +0.000 C 
ATOM     40  C   UNL     1     113.446 129.374 140.216  0.00  0.00    +0.000 C 
BRANCH  39  41
ATOM     41  C   UNL     1     113.596 130.208 141.018  0.00  0.00    +0.000 C 
BRANCH  41  44
ATOM     42  O   UNL     1     112.702 129.649 141.982  0.00  0.00    +0.000 OA
ATOM     43  O   UNL     1     113.157 130.997 142.126  0.00  0.00    +0.000 OA
ATOM     44  C   UNL     1     113.152 130.284 141.709  0.00  0.00    +0.000 C 
ENDBRANCH  41  44
ENDBRANCH  39  41
ENDBRANCH  37  39
ENDBRANCH  36  37
ENDBRANCH  34  36
ENDBRANCH  33  34
ENDBRANCH  32  33
ENDBRANCH   5  28
BRANCH  12  46
ATOM     45  O   UNL     1     109.000 132.573 135.011  0.00  0.00    +0.000 OA
ATOM     46  C   UNL     1     109.507 130.224 135.601  0.00  0.00    +0.000 A 
ATOM     47  C   UNL     1     109.460 130.449 134.809  0.00  0.00    +0.000 A 
ATOM     48  C   UNL     1     109.386 130.782 136.196  0.00  0.00    +0.000 A 
ATOM     49  C   UNL     1     109.291 131.232 134.612  0.00  0.00    +0.000 A 
ATOM     50  C   UNL     1     109.217 131.565 136.000  0.00  0.00    +0.000 A 
ATOM     51  C   UNL     1     109.169 131.791 135.207  0.00  0.00    +0.000 A 
ENDBRANCH  12  46
TORSDOF 10
ENDMDL
