MODEL 1
REMARK VINA RESULT:     -10.7      0.000      0.000
REMARK  Name = 44258176
REMARK  7 active torsions:
REMARK  status: ('A' for Active; 'I' for Inactive)
REMARK    1  A    between atoms: O_2  and  C_22
REMARK    2  A    between atoms: O_2  and  C_23
REMARK    3  A    between atoms: O_15  and  C_41
REMARK    4  A    between atoms: C_17  and  C_22
REMARK    5  A    between atoms: C_21  and  C_28
REMARK    6  A    between atoms: C_27  and  C_29
REMARK    7  A    between atoms: C_36  and  C_38
REMARK                            x       y       z     vdW  Elec       q    Type
REMARK                         _______ _______ _______ _____ _____    ______ ____
ROOT
ATOM      1  O   UNL     1     112.555 126.007 137.893  0.00  0.00    +0.000 OA
ATOM      2  O   UNL     1     114.557 125.818 138.741  0.00  0.00    +0.000 OA
ATOM      3  O   UNL     1     114.792 125.166 137.244  0.00  0.00    +0.000 OA
ATOM      4  O   UNL     1     113.535 125.074 136.178  0.00  0.00    +0.000 OA
ATOM      5  C   UNL     1     113.183 126.052 138.425  0.00  0.00    +0.000 C 
ATOM      6  C   UNL     1     113.929 125.772 138.209  0.00  0.00    +0.000 C 
ATOM      7  C   UNL     1     114.045 125.447 137.460  0.00  0.00    +0.000 C 
ATOM      8  C   UNL     1     113.418 125.401 136.928  0.00  0.00    +0.000 C 
ATOM      9  C   UNL     1     112.673 125.680 137.143  0.00  0.00    +0.000 C 
ENDROOT
BRANCH   9  14
ATOM     10  O   UNL     1     112.274 127.026 136.264  0.00  0.00    +0.000 OA
ATOM     11  O   UNL     1     111.840 124.266 136.970  0.00  0.00    +0.000 OA
ATOM     12  O   UNL     1     110.159 125.496 135.012  0.00  0.00    +0.000 OA
ATOM     13  O   UNL     1     110.344 126.875 134.631  0.00  0.00    +0.000 OA
ATOM     14  C   UNL     1     112.044 125.634 136.611  0.00  0.00    +0.000 A 
ATOM     15  C   UNL     1     111.833 126.295 136.165  0.00  0.00    +0.000 A 
ATOM     16  C   UNL     1     111.628 124.927 136.524  0.00  0.00    +0.000 A 
ATOM     17  C   UNL     1     111.204 126.249 135.632  0.00  0.00    +0.000 A 
ATOM     18  C   UNL     1     110.999 124.881 135.991  0.00  0.00    +0.000 A 
ATOM     19  C   UNL     1     110.788 125.542 135.545  0.00  0.00    +0.000 A 
ATOM     20  C   UNL     1     110.973 126.931 135.161  0.00  0.00    +0.000 A 
ATOM     21  C   UNL     1     112.058 127.717 135.803  0.00  0.00    +0.000 A 
ATOM     22  C   UNL     1     111.403 127.669 135.247  0.00  0.00    +0.000 A 
BRANCH  21  24
ATOM     23  O   UNL     1     113.730 130.541 136.158  0.00  0.00    +0.000 OA
ATOM     24  C   UNL     1     112.476 128.423 135.891  0.00  0.00    +0.000 A 
ATOM     25  C   UNL     1     112.261 128.958 136.481  0.00  0.00    +0.000 A 
ATOM     26  C   UNL     1     113.109 128.593 135.390  0.00  0.00    +0.000 A 
ATOM     27  C   UNL     1     112.680 129.664 136.570  0.00  0.00    +0.000 A 
ATOM     28  C   UNL     1     113.527 129.299 135.479  0.00  0.00    +0.000 A 
ATOM     29  C   UNL     1     113.312 129.834 136.069  0.00  0.00    +0.000 A 
BRANCH  27  30
ATOM     30  O   UNL     1     112.465 130.199 137.160  0.00  0.00    +0.000 OA
ATOM     31  C   UNL     1     112.179 129.923 137.883  0.00  0.00    +0.000 C 
ENDBRANCH  27  30
ENDBRANCH  21  24
ENDBRANCH   9  14
BRANCH   5  32
ATOM     32  C   UNL     1     113.067 126.378 139.174  0.00  0.00    +0.000 C 
BRANCH  32  33
ATOM     33  O   UNL     1     112.308 126.411 139.496  0.00  0.00    +0.000 OA
BRANCH  33  38
ATOM     34  O   UNL     1     112.650 127.479 140.382  0.00  0.00    +0.000 OA
ATOM     35  O   UNL     1     111.089 125.959 140.512  0.00  0.00    +0.000 OA
ATOM     36  O   UNL     1     110.822 126.801 141.906  0.00  0.00    +0.000 OA
ATOM     37  O   UNL     1     111.773 128.095 142.284  0.00  0.00    +0.000 OA
ATOM     38  C   UNL     1     112.175 126.833 140.193  0.00  0.00    +0.000 C 
ATOM     39  C   UNL     1     111.565 126.607 140.702  0.00  0.00    +0.000 C 
ATOM     40  C   UNL     1     111.431 127.027 141.398  0.00  0.00    +0.000 C 
ATOM     41  C   UNL     1     111.906 127.674 141.587  0.00  0.00    +0.000 C 
ATOM     42  C   UNL     1     112.516 127.900 141.078  0.00  0.00    +0.000 C 
BRANCH  42  44
ATOM     43  O   UNL     1     113.797 128.533 141.090  0.00  0.00    +0.000 OA
ATOM     44  C   UNL     1     112.992 128.548 141.268  0.00  0.00    +0.000 C 
ENDBRANCH  42  44
ENDBRANCH  33  38
ENDBRANCH  32  33
ENDBRANCH   5  32
TORSDOF 7
ENDMDL
MODEL 2
REMARK VINA RESULT:     -10.6      1.828      3.978
REMARK  Name = 44258176
REMARK  7 active torsions:
REMARK  status: ('A' for Active; 'I' for Inactive)
REMARK    1  A    between atoms: O_2  and  C_22
REMARK    2  A    between atoms: O_2  and  C_23
REMARK    3  A    between atoms: O_15  and  C_41
REMARK    4  A    between atoms: C_17  and  C_22
REMARK    5  A    between atoms: C_21  and  C_28
REMARK    6  A    between atoms: C_27  and  C_29
REMARK    7  A    between atoms: C_36  and  C_38
REMARK                            x       y       z     vdW  Elec       q    Type
REMARK                         _______ _______ _______ _____ _____    ______ ____
ROOT
ATOM      1  O   UNL     1     111.728 129.172 136.782  0.00  0.00    +0.000 OA
ATOM      2  O   UNL     1     113.844 129.090 136.256  0.00  0.00    +0.000 OA
ATOM      3  O   UNL     1     113.155 129.197 134.760  0.00  0.00    +0.000 OA
ATOM      4  O   UNL     1     111.514 129.287 134.612  0.00  0.00    +0.000 OA
ATOM      5  C   UNL     1     112.547 129.127 136.856  0.00  0.00    +0.000 C 
ATOM      6  C   UNL     1     113.023 129.135 136.182  0.00  0.00    +0.000 C 
ATOM      7  C   UNL     1     112.678 129.189 135.434  0.00  0.00    +0.000 C 
ATOM      8  C   UNL     1     111.859 129.234 135.360  0.00  0.00    +0.000 C 
ATOM      9  C   UNL     1     111.383 129.226 136.034  0.00  0.00    +0.000 C 
ENDROOT
BRANCH   9  14
ATOM     10  O   UNL     1     110.507 127.821 136.015  0.00  0.00    +0.000 OA
ATOM     11  O   UNL     1     110.645 130.696 135.908  0.00  0.00    +0.000 OA
ATOM     12  O   UNL     1     108.101 129.406 135.738  0.00  0.00    +0.000 OA
ATOM     13  O   UNL     1     107.988 127.969 135.788  0.00  0.00    +0.000 OA
ATOM     14  C   UNL     1     110.562 129.271 135.960  0.00  0.00    +0.000 A 
ATOM     15  C   UNL     1     110.111 128.581 135.949  0.00  0.00    +0.000 A 
ATOM     16  C   UNL     1     110.194 130.007 135.897  0.00  0.00    +0.000 A 
ATOM     17  C   UNL     1     109.289 128.626 135.875  0.00  0.00    +0.000 A 
ATOM     18  C   UNL     1     109.373 130.052 135.823  0.00  0.00    +0.000 A 
ATOM     19  C   UNL     1     108.921 129.361 135.812  0.00  0.00    +0.000 A 
ATOM     20  C   UNL     1     108.808 127.914 135.862  0.00  0.00    +0.000 A 
ATOM     21  C   UNL     1     110.041 127.099 136.004  0.00  0.00    +0.000 A 
ATOM     22  C   UNL     1     109.186 127.146 135.927  0.00  0.00    +0.000 A 
BRANCH  21  24
ATOM     23  O   UNL     1     111.527 124.162 136.257  0.00  0.00    +0.000 OA
ATOM     24  C   UNL     1     110.413 126.365 136.067  0.00  0.00    +0.000 A 
ATOM     25  C   UNL     1     110.607 126.063 136.810  0.00  0.00    +0.000 A 
ATOM     26  C   UNL     1     110.589 125.932 135.387  0.00  0.00    +0.000 A 
ATOM     27  C   UNL     1     110.979 125.329 136.873  0.00  0.00    +0.000 A 
ATOM     28  C   UNL     1     110.960 125.198 135.450  0.00  0.00    +0.000 A 
ATOM     29  C   UNL     1     111.155 124.897 136.193  0.00  0.00    +0.000 A 
BRANCH  27  30
ATOM     30  O   UNL     1     111.173 125.028 137.616  0.00  0.00    +0.000 OA
ATOM     31  C   UNL     1     111.170 125.523 138.276  0.00  0.00    +0.000 C 
ENDBRANCH  27  30
ENDBRANCH  21  24
ENDBRANCH   9  14
BRANCH   5  32
ATOM     32  C   UNL     1     112.892 129.074 137.603  0.00  0.00    +0.000 C 
BRANCH  32  33
ATOM     33  O   UNL     1     112.519 129.414 138.256  0.00  0.00    +0.000 OA
BRANCH  33  38
ATOM     34  O   UNL     1     113.180 128.650 139.266  0.00  0.00    +0.000 OA
ATOM     35  O   UNL     1     112.595 130.752 139.218  0.00  0.00    +0.000 OA
ATOM     36  O   UNL     1     113.294 130.657 140.710  0.00  0.00    +0.000 OA
ATOM     37  O   UNL     1     113.916 129.223 141.239  0.00  0.00    +0.000 OA
ATOM     38  C   UNL     1     112.869 129.366 139.002  0.00  0.00    +0.000 C 
ATOM     39  C   UNL     1     112.907 130.036 139.484  0.00  0.00    +0.000 C 
ATOM     40  C   UNL     1     113.256 129.988 140.229  0.00  0.00    +0.000 C 
ATOM     41  C   UNL     1     113.567 129.271 140.493  0.00  0.00    +0.000 C 
ATOM     42  C   UNL     1     113.529 128.602 140.011  0.00  0.00    +0.000 C 
BRANCH  42  44
ATOM     43  O   UNL     1     113.435 127.181 140.133  0.00  0.00    +0.000 OA
ATOM     44  C   UNL     1     113.840 127.885 140.277  0.00  0.00    +0.000 C 
ENDBRANCH  42  44
ENDBRANCH  33  38
ENDBRANCH  32  33
ENDBRANCH   5  32
TORSDOF 7
ENDMDL
MODEL 3
REMARK VINA RESULT:     -10.4      1.615      2.782
REMARK  Name = 44258176
REMARK  7 active torsions:
REMARK  status: ('A' for Active; 'I' for Inactive)
REMARK    1  A    between atoms: O_2  and  C_22
REMARK    2  A    between atoms: O_2  and  C_23
REMARK    3  A    between atoms: O_15  and  C_41
REMARK    4  A    between atoms: C_17  and  C_22
REMARK    5  A    between atoms: C_21  and  C_28
REMARK    6  A    between atoms: C_27  and  C_29
REMARK    7  A    between atoms: C_36  and  C_38
REMARK                            x       y       z     vdW  Elec       q    Type
REMARK                         _______ _______ _______ _____ _____    ______ ____
ROOT
ATOM      1  O   UNL     1     110.894 125.924 137.458  0.00  0.00    +0.000 OA
ATOM      2  O   UNL     1     108.952 126.743 136.889  0.00  0.00    +0.000 OA
ATOM      3  O   UNL     1     109.514 126.228 135.425  0.00  0.00    +0.000 OA
ATOM      4  O   UNL     1     110.996 125.511 135.316  0.00  0.00    +0.000 OA
ATOM      5  C   UNL     1     110.154 126.283 137.512  0.00  0.00    +0.000 C 
ATOM      6  C   UNL     1     109.693 126.384 136.834  0.00  0.00    +0.000 C 
ATOM      7  C   UNL     1     109.975 126.127 136.103  0.00  0.00    +0.000 C 
ATOM      8  C   UNL     1     110.715 125.768 136.049  0.00  0.00    +0.000 C 
ATOM      9  C   UNL     1     111.175 125.667 136.726  0.00  0.00    +0.000 C 
ENDROOT
BRANCH   9  14
ATOM     10  O   UNL     1     112.520 126.628 136.634  0.00  0.00    +0.000 OA
ATOM     11  O   UNL     1     111.296 124.021 136.710  0.00  0.00    +0.000 OA
ATOM     12  O   UNL     1     114.139 124.232 136.508  0.00  0.00    +0.000 OA
ATOM     13  O   UNL     1     114.791 125.518 136.468  0.00  0.00    +0.000 OA
ATOM     14  C   UNL     1     111.916 125.308 136.671  0.00  0.00    +0.000 A 
ATOM     15  C   UNL     1     112.596 125.772 136.625  0.00  0.00    +0.000 A 
ATOM     16  C   UNL     1     111.976 124.485 136.663  0.00  0.00    +0.000 A 
ATOM     17  C   UNL     1     113.338 125.413 136.571  0.00  0.00    +0.000 A 
ATOM     18  C   UNL     1     112.718 124.126 136.609  0.00  0.00    +0.000 A 
ATOM     19  C   UNL     1     113.398 124.591 136.563  0.00  0.00    +0.000 A 
ATOM     20  C   UNL     1     114.054 125.886 136.522  0.00  0.00    +0.000 A 
ATOM     21  C   UNL     1     113.225 127.117 136.586  0.00  0.00    +0.000 A 
ATOM     22  C   UNL     1     113.997 126.743 136.530  0.00  0.00    +0.000 A 
BRANCH  21  24
ATOM     23  O   UNL     1     112.972 130.407 136.620  0.00  0.00    +0.000 OA
ATOM     24  C   UNL     1     113.162 127.939 136.594  0.00  0.00    +0.000 A 
ATOM     25  C   UNL     1     113.109 128.342 137.313  0.00  0.00    +0.000 A 
ATOM     26  C   UNL     1     113.152 128.359 135.884  0.00  0.00    +0.000 A 
ATOM     27  C   UNL     1     113.045 129.164 137.321  0.00  0.00    +0.000 A 
ATOM     28  C   UNL     1     113.088 129.182 135.892  0.00  0.00    +0.000 A 
ATOM     29  C   UNL     1     113.035 129.584 136.611  0.00  0.00    +0.000 A 
BRANCH  27  30
ATOM     30  O   UNL     1     112.992 129.567 138.039  0.00  0.00    +0.000 OA
ATOM     31  C   UNL     1     112.557 129.244 138.661  0.00  0.00    +0.000 C 
ENDBRANCH  27  30
ENDBRANCH  21  24
ENDBRANCH   9  14
BRANCH   5  32
ATOM     32  C   UNL     1     109.872 126.540 138.243  0.00  0.00    +0.000 C 
BRANCH  32  33
ATOM     33  O   UNL     1     110.155 126.198 138.939  0.00  0.00    +0.000 OA
BRANCH  33  38
ATOM     34  O   UNL     1     109.744 127.300 139.750  0.00  0.00    +0.000 OA
ATOM     35  O   UNL     1     110.042 125.195 140.244  0.00  0.00    +0.000 OA
ATOM     36  O   UNL     1     109.575 125.795 141.708  0.00  0.00    +0.000 OA
ATOM     37  O   UNL     1     109.220 127.399 141.867  0.00  0.00    +0.000 OA
ATOM     38  C   UNL     1     109.921 126.499 139.671  0.00  0.00    +0.000 C 
ATOM     39  C   UNL     1     109.865 125.997 140.324  0.00  0.00    +0.000 C 
ATOM     40  C   UNL     1     109.631 126.297 141.055  0.00  0.00    +0.000 C 
ATOM     41  C   UNL     1     109.454 127.098 141.135  0.00  0.00    +0.000 C 
ATOM     42  C   UNL     1     109.510 127.600 140.482  0.00  0.00    +0.000 C 
BRANCH  42  44
ATOM     43  O   UNL     1     108.940 128.800 139.955  0.00  0.00    +0.000 OA
ATOM     44  C   UNL     1     109.333 128.402 140.562  0.00  0.00    +0.000 C 
ENDBRANCH  42  44
ENDBRANCH  33  38
ENDBRANCH  32  33
ENDBRANCH   5  32
TORSDOF 7
ENDMDL
MODEL 4
REMARK VINA RESULT:     -10.4      2.233      5.402
REMARK  Name = 44258176
REMARK  7 active torsions:
REMARK  status: ('A' for Active; 'I' for Inactive)
REMARK    1  A    between atoms: O_2  and  C_22
REMARK    2  A    between atoms: O_2  and  C_23
REMARK    3  A    between atoms: O_15  and  C_41
REMARK    4  A    between atoms: C_17  and  C_22
REMARK    5  A    between atoms: C_21  and  C_28
REMARK    6  A    between atoms: C_27  and  C_29
REMARK    7  A    between atoms: C_36  and  C_38
REMARK                            x       y       z     vdW  Elec       q    Type
REMARK                         _______ _______ _______ _____ _____    ______ ____
ROOT
ATOM      1  O   UNL     1     112.236 130.460 137.017  0.00  0.00    +0.000 OA
ATOM      2  O   UNL     1     111.324 130.652 138.990  0.00  0.00    +0.000 OA
ATOM      3  O   UNL     1     112.922 130.573 139.392  0.00  0.00    +0.000 OA
ATOM      4  O   UNL     1     114.063 130.419 138.211  0.00  0.00    +0.000 OA
ATOM      5  C   UNL     1     111.666 130.537 137.607  0.00  0.00    +0.000 C 
ATOM      6  C   UNL     1     111.894 130.575 138.399  0.00  0.00    +0.000 C 
ATOM      7  C   UNL     1     112.693 130.536 138.600  0.00  0.00    +0.000 C 
ATOM      8  C   UNL     1     113.263 130.458 138.010  0.00  0.00    +0.000 C 
ATOM      9  C   UNL     1     113.036 130.421 137.218  0.00  0.00    +0.000 C 
ENDROOT
BRANCH   9  14
ATOM     10  O   UNL     1     113.364 128.911 136.621  0.00  0.00    +0.000 OA
ATOM     11  O   UNL     1     113.825 131.755 136.654  0.00  0.00    +0.000 OA
ATOM     12  O   UNL     1     115.318 130.112 134.855  0.00  0.00    +0.000 OA
ATOM     13  O   UNL     1     115.117 128.684 134.807  0.00  0.00    +0.000 OA
ATOM     14  C   UNL     1     113.606 130.343 136.627  0.00  0.00    +0.000 A 
ATOM     15  C   UNL     1     113.782 129.599 136.319  0.00  0.00    +0.000 A 
ATOM     16  C   UNL     1     114.001 131.011 136.345  0.00  0.00    +0.000 A 
ATOM     17  C   UNL     1     114.353 129.522 135.727  0.00  0.00    +0.000 A 
ATOM     18  C   UNL     1     114.572 130.934 135.754  0.00  0.00    +0.000 A 
ATOM     19  C   UNL     1     114.747 130.189 135.445  0.00  0.00    +0.000 A 
ATOM     20  C   UNL     1     114.545 128.752 135.397  0.00  0.00    +0.000 A 
ATOM     21  C   UNL     1     113.543 128.134 136.303  0.00  0.00    +0.000 A 
ATOM     22  C   UNL     1     114.138 128.053 135.687  0.00  0.00    +0.000 A 
BRANCH  21  24
ATOM     23  O   UNL     1     111.958 125.471 137.439  0.00  0.00    +0.000 OA
ATOM     24  C   UNL     1     113.147 127.468 136.587  0.00  0.00    +0.000 A 
ATOM     25  C   UNL     1     113.389 127.113 137.291  0.00  0.00    +0.000 A 
ATOM     26  C   UNL     1     112.508 127.157 136.166  0.00  0.00    +0.000 A 
ATOM     27  C   UNL     1     112.992 126.448 137.575  0.00  0.00    +0.000 A 
ATOM     28  C   UNL     1     112.112 126.492 136.450  0.00  0.00    +0.000 A 
ATOM     29  C   UNL     1     112.354 126.137 137.154  0.00  0.00    +0.000 A 
BRANCH  27  30
ATOM     30  O   UNL     1     113.234 126.093 138.279  0.00  0.00    +0.000 OA
ATOM     31  C   UNL     1     113.402 126.558 138.939  0.00  0.00    +0.000 C 
ENDBRANCH  27  30
ENDBRANCH  21  24
ENDBRANCH   9  14
BRANCH   5  32
ATOM     32  C   UNL     1     110.867 130.577 137.406  0.00  0.00    +0.000 C 
BRANCH  32  33
ATOM     33  O   UNL     1     110.574 130.122 136.783  0.00  0.00    +0.000 OA
BRANCH  33  38
ATOM     34  O   UNL     1     109.490 130.988 136.439  0.00  0.00    +0.000 OA
ATOM     35  O   UNL     1     109.634 128.810 136.439  0.00  0.00    +0.000 OA
ATOM     36  O   UNL     1     108.081 129.020 135.924  0.00  0.00    +0.000 OA
ATOM     37  O   UNL     1     107.467 130.542 135.752  0.00  0.00    +0.000 OA
ATOM     38  C   UNL     1     109.797 130.228 136.525  0.00  0.00    +0.000 C 
ATOM     39  C   UNL     1     109.327 129.571 136.353  0.00  0.00    +0.000 C 
ATOM     40  C   UNL     1     108.551 129.676 136.095  0.00  0.00    +0.000 C 
ATOM     41  C   UNL     1     108.244 130.437 136.010  0.00  0.00    +0.000 C 
ATOM     42  C   UNL     1     108.714 131.094 136.182  0.00  0.00    +0.000 C 
BRANCH  42  44
ATOM     43  O   UNL     1     108.870 132.451 135.763  0.00  0.00    +0.000 OA
ATOM     44  C   UNL     1     108.407 131.854 136.096  0.00  0.00    +0.000 C 
ENDBRANCH  42  44
ENDBRANCH  33  38
ENDBRANCH  32  33
ENDBRANCH   5  32
TORSDOF 7
ENDMDL
MODEL 5
REMARK VINA RESULT:     -10.3      7.527     11.725
REMARK  Name = 44258176
REMARK  7 active torsions:
REMARK  status: ('A' for Active; 'I' for Inactive)
REMARK    1  A    between atoms: O_2  and  C_22
REMARK    2  A    between atoms: O_2  and  C_23
REMARK    3  A    between atoms: O_15  and  C_41
REMARK    4  A    between atoms: C_17  and  C_22
REMARK    5  A    between atoms: C_21  and  C_28
REMARK    6  A    between atoms: C_27  and  C_29
REMARK    7  A    between atoms: C_36  and  C_38
REMARK                            x       y       z     vdW  Elec       q    Type
REMARK                         _______ _______ _______ _____ _____    ______ ____
ROOT
ATOM      1  O   UNL     1     106.340 126.328 145.485  0.00  0.00    +0.000 OA
ATOM      2  O   UNL     1     105.252 127.951 144.513  0.00  0.00    +0.000 OA
ATOM      3  O   UNL     1     105.227 128.457 146.083  0.00  0.00    +0.000 OA
ATOM      4  O   UNL     1     105.944 127.543 147.255  0.00  0.00    +0.000 OA
ATOM      5  C   UNL     1     105.982 126.784 144.900  0.00  0.00    +0.000 C 
ATOM      6  C   UNL     1     105.611 127.494 145.099  0.00  0.00    +0.000 C 
ATOM      7  C   UNL     1     105.599 127.747 145.884  0.00  0.00    +0.000 C 
ATOM      8  C   UNL     1     105.957 127.291 146.469  0.00  0.00    +0.000 C 
ATOM      9  C   UNL     1     106.328 126.581 146.271  0.00  0.00    +0.000 C 
ENDROOT
BRANCH   9  14
ATOM     10  O   UNL     1     105.451 125.371 146.985  0.00  0.00    +0.000 OA
ATOM     11  O   UNL     1     107.889 126.882 146.711  0.00  0.00    +0.000 OA
ATOM     12  O   UNL     1     107.762 124.755 148.616  0.00  0.00    +0.000 OA
ATOM     13  O   UNL     1     106.561 123.975 148.784  0.00  0.00    +0.000 OA
ATOM     14  C   UNL     1     106.686 126.125 146.857  0.00  0.00    +0.000 A 
ATOM     15  C   UNL     1     106.264 125.518 147.223  0.00  0.00    +0.000 A 
ATOM     16  C   UNL     1     107.467 126.275 147.077  0.00  0.00    +0.000 A 
ATOM     17  C   UNL     1     106.623 125.061 147.810  0.00  0.00    +0.000 A 
ATOM     18  C   UNL     1     107.826 125.818 147.664  0.00  0.00    +0.000 A 
ATOM     19  C   UNL     1     107.404 125.211 148.030  0.00  0.00    +0.000 A 
ATOM     20  C   UNL     1     106.194 124.426 148.199  0.00  0.00    +0.000 A 
ATOM     21  C   UNL     1     105.007 124.741 147.363  0.00  0.00    +0.000 A 
ATOM     22  C   UNL     1     105.381 124.265 147.974  0.00  0.00    +0.000 A 
BRANCH  21  24
ATOM     23  O   UNL     1     101.884 124.147 146.474  0.00  0.00    +0.000 OA
ATOM     24  C   UNL     1     104.226 124.592 147.141  0.00  0.00    +0.000 A 
ATOM     25  C   UNL     1     104.067 124.125 146.479  0.00  0.00    +0.000 A 
ATOM     26  C   UNL     1     103.605 124.911 147.580  0.00  0.00    +0.000 A 
ATOM     27  C   UNL     1     103.287 123.977 146.257  0.00  0.00    +0.000 A 
ATOM     28  C   UNL     1     102.824 124.763 147.358  0.00  0.00    +0.000 A 
ATOM     29  C   UNL     1     102.665 124.296 146.697  0.00  0.00    +0.000 A 
BRANCH  27  30
ATOM     30  O   UNL     1     103.127 123.510 145.596  0.00  0.00    +0.000 OA
ATOM     31  C   UNL     1     103.418 122.739 145.556  0.00  0.00    +0.000 C 
ENDBRANCH  27  30
ENDBRANCH  21  24
ENDBRANCH   9  14
BRANCH   5  32
ATOM     32  C   UNL     1     105.994 126.532 144.115  0.00  0.00    +0.000 C 
BRANCH  32  33
ATOM     33  O   UNL     1     106.156 125.743 143.937  0.00  0.00    +0.000 OA
BRANCH  33  38
ATOM     34  O   UNL     1     106.916 125.905 142.737  0.00  0.00    +0.000 OA
ATOM     35  O   UNL     1     105.293 124.530 143.226  0.00  0.00    +0.000 OA
ATOM     36  O   UNL     1     105.621 124.085 141.671  0.00  0.00    +0.000 OA
ATOM     37  O   UNL     1     106.812 124.854 140.827  0.00  0.00    +0.000 OA
ATOM     38  C   UNL     1     106.321 125.521 143.159  0.00  0.00    +0.000 C 
ATOM     39  C   UNL     1     105.888 124.914 142.803  0.00  0.00    +0.000 C 
ATOM     40  C   UNL     1     106.052 124.692 142.026  0.00  0.00    +0.000 C 
ATOM     41  C   UNL     1     106.647 125.076 141.605  0.00  0.00    +0.000 C 
ATOM     42  C   UNL     1     107.080 125.683 141.960  0.00  0.00    +0.000 C 
BRANCH  42  44
ATOM     43  O   UNL     1     108.351 126.335 141.929  0.00  0.00    +0.000 OA
ATOM     44  C   UNL     1     107.676 126.067 141.538  0.00  0.00    +0.000 C 
ENDBRANCH  42  44
ENDBRANCH  33  38
ENDBRANCH  32  33
ENDBRANCH   5  32
TORSDOF 7
ENDMDL
MODEL 6
REMARK VINA RESULT:     -10.3      1.903      4.607
REMARK  Name = 44258176
REMARK  7 active torsions:
REMARK  status: ('A' for Active; 'I' for Inactive)
REMARK    1  A    between atoms: O_2  and  C_22
REMARK    2  A    between atoms: O_2  and  C_23
REMARK    3  A    between atoms: O_15  and  C_41
REMARK    4  A    between atoms: C_17  and  C_22
REMARK    5  A    between atoms: C_21  and  C_28
REMARK    6  A    between atoms: C_27  and  C_29
REMARK    7  A    between atoms: C_36  and  C_38
REMARK                            x       y       z     vdW  Elec       q    Type
REMARK                         _______ _______ _______ _____ _____    ______ ____
ROOT
ATOM      1  O   UNL     1     111.030 126.469 137.341  0.00  0.00    +0.000 OA
ATOM      2  O   UNL     1     109.205 126.983 138.423  0.00  0.00    +0.000 OA
ATOM      3  O   UNL     1     109.653 125.601 139.206  0.00  0.00    +0.000 OA
ATOM      4  O   UNL     1     111.019 124.798 138.745  0.00  0.00    +0.000 OA
ATOM      5  C   UNL     1     110.348 126.871 137.571  0.00  0.00    +0.000 C 
ATOM      6  C   UNL     1     109.888 126.581 138.193  0.00  0.00    +0.000 C 
ATOM      7  C   UNL     1     110.113 125.890 138.583  0.00  0.00    +0.000 C 
ATOM      8  C   UNL     1     110.794 125.489 138.353  0.00  0.00    +0.000 C 
ATOM      9  C   UNL     1     111.254 125.778 137.732  0.00  0.00    +0.000 C 
ENDROOT
BRANCH   9  14
ATOM     10  O   UNL     1     112.702 126.222 138.400  0.00  0.00    +0.000 OA
ATOM     11  O   UNL     1     111.159 124.558 136.625  0.00  0.00    +0.000 OA
ATOM     12  O   UNL     1     113.985 124.171 136.811  0.00  0.00    +0.000 OA
ATOM     13  O   UNL     1     114.793 124.983 137.687  0.00  0.00    +0.000 OA
ATOM     14  C   UNL     1     111.937 125.376 137.502  0.00  0.00    +0.000 A 
ATOM     15  C   UNL     1     112.666 125.584 137.825  0.00  0.00    +0.000 A 
ATOM     16  C   UNL     1     111.889 124.766 136.948  0.00  0.00    +0.000 A 
ATOM     17  C   UNL     1     113.349 125.182 137.594  0.00  0.00    +0.000 A 
ATOM     18  C   UNL     1     112.572 124.364 136.718  0.00  0.00    +0.000 A 
ATOM     19  C   UNL     1     113.302 124.573 137.041  0.00  0.00    +0.000 A 
ATOM     20  C   UNL     1     114.116 125.390 137.924  0.00  0.00    +0.000 A 
ATOM     21  C   UNL     1     113.459 126.443 138.740  0.00  0.00    +0.000 A 
ATOM     22  C   UNL     1     114.171 126.024 138.500  0.00  0.00    +0.000 A 
BRANCH  21  24
ATOM     23  O   UNL     1     113.637 128.886 140.953  0.00  0.00    +0.000 OA
ATOM     24  C   UNL     1     113.504 127.054 139.293  0.00  0.00    +0.000 A 
ATOM     25  C   UNL     1     113.455 127.839 139.046  0.00  0.00    +0.000 A 
ATOM     26  C   UNL     1     113.597 126.879 140.094  0.00  0.00    +0.000 A 
ATOM     27  C   UNL     1     113.500 128.450 139.599  0.00  0.00    +0.000 A 
ATOM     28  C   UNL     1     113.641 127.489 140.648  0.00  0.00    +0.000 A 
ATOM     29  C   UNL     1     113.592 128.275 140.400  0.00  0.00    +0.000 A 
BRANCH  27  30
ATOM     30  O   UNL     1     113.451 129.235 139.351  0.00  0.00    +0.000 OA
ATOM     31  C   UNL     1     113.096 129.418 138.629  0.00  0.00    +0.000 C 
ENDBRANCH  27  30
ENDBRANCH  21  24
ENDBRANCH   9  14
BRANCH   5  32
ATOM     32  C   UNL     1     110.123 127.562 137.180  0.00  0.00    +0.000 C 
BRANCH  32  33
ATOM     33  O   UNL     1     110.607 127.880 136.592  0.00  0.00    +0.000 OA
BRANCH  33  38
ATOM     34  O   UNL     1     109.583 128.817 136.253  0.00  0.00    +0.000 OA
ATOM     35  O   UNL     1     111.621 128.593 135.503  0.00  0.00    +0.000 OA
ATOM     36  O   UNL     1     111.104 129.886 134.619  0.00  0.00    +0.000 OA
ATOM     37  O   UNL     1     109.573 130.467 134.824  0.00  0.00    +0.000 OA
ATOM     38  C   UNL     1     110.348 128.526 136.150  0.00  0.00    +0.000 C 
ATOM     39  C   UNL     1     110.856 128.884 135.605  0.00  0.00    +0.000 C 
ATOM     40  C   UNL     1     110.597 129.530 135.164  0.00  0.00    +0.000 C 
ATOM     41  C   UNL     1     109.833 129.820 135.266  0.00  0.00    +0.000 C 
ATOM     42  C   UNL     1     109.325 129.463 135.811  0.00  0.00    +0.000 C 
BRANCH  42  44
ATOM     43  O   UNL     1     107.915 129.241 135.871  0.00  0.00    +0.000 OA
ATOM     44  C   UNL     1     108.559 129.754 135.913  0.00  0.00    +0.000 C 
ENDBRANCH  42  44
ENDBRANCH  33  38
ENDBRANCH  32  33
ENDBRANCH   5  32
TORSDOF 7
ENDMDL
MODEL 7
REMARK VINA RESULT:     -10.2      1.426      4.310
REMARK  Name = 44258176
REMARK  7 active torsions:
REMARK  status: ('A' for Active; 'I' for Inactive)
REMARK    1  A    between atoms: O_2  and  C_22
REMARK    2  A    between atoms: O_2  and  C_23
REMARK    3  A    between atoms: O_15  and  C_41
REMARK    4  A    between atoms: C_17  and  C_22
REMARK    5  A    between atoms: C_21  and  C_28
REMARK    6  A    between atoms: C_27  and  C_29
REMARK    7  A    between atoms: C_36  and  C_38
REMARK                            x       y       z     vdW  Elec       q    Type
REMARK                         _______ _______ _______ _____ _____    ______ ____
ROOT
ATOM      1  O   UNL     1     112.399 127.603 138.430  0.00  0.00    +0.000 OA
ATOM      2  O   UNL     1     110.596 128.207 139.502  0.00  0.00    +0.000 OA
ATOM      3  O   UNL     1     110.704 126.621 139.944  0.00  0.00    +0.000 OA
ATOM      4  O   UNL     1     111.942 125.689 139.377  0.00  0.00    +0.000 OA
ATOM      5  C   UNL     1     111.780 128.068 138.713  0.00  0.00    +0.000 C 
ATOM      6  C   UNL     1     111.215 127.741 139.218  0.00  0.00    +0.000 C 
ATOM      7  C   UNL     1     111.270 126.948 139.439  0.00  0.00    +0.000 C 
ATOM      8  C   UNL     1     111.888 126.483 139.155  0.00  0.00    +0.000 C 
ATOM      9  C   UNL     1     112.453 126.809 138.651  0.00  0.00    +0.000 C 
ENDROOT
BRANCH   9  14
ATOM     10  O   UNL     1     112.288 126.081 137.173  0.00  0.00    +0.000 OA
ATOM     11  O   UNL     1     113.821 126.617 139.552  0.00  0.00    +0.000 OA
ATOM     12  O   UNL     1     114.929 124.945 137.516  0.00  0.00    +0.000 OA
ATOM     13  O   UNL     1     114.194 124.652 136.310  0.00  0.00    +0.000 OA
ATOM     14  C   UNL     1     113.072 126.343 138.367  0.00  0.00    +0.000 A 
ATOM     15  C   UNL     1     113.006 125.973 137.633  0.00  0.00    +0.000 A 
ATOM     16  C   UNL     1     113.756 126.247 138.819  0.00  0.00    +0.000 A 
ATOM     17  C   UNL     1     113.626 125.507 137.349  0.00  0.00    +0.000 A 
ATOM     18  C   UNL     1     114.376 125.781 138.535  0.00  0.00    +0.000 A 
ATOM     19  C   UNL     1     114.310 125.411 137.800  0.00  0.00    +0.000 A 
ATOM     20  C   UNL     1     113.570 125.116 136.586  0.00  0.00    +0.000 A 
ATOM     21  C   UNL     1     112.215 125.698 136.407  0.00  0.00    +0.000 A 
ATOM     22  C   UNL     1     112.860 125.212 136.112  0.00  0.00    +0.000 A 
BRANCH  21  24
ATOM     23  O   UNL     1     109.473 126.089 134.612  0.00  0.00    +0.000 OA
ATOM     24  C   UNL     1     111.529 125.796 135.959  0.00  0.00    +0.000 A 
ATOM     25  C   UNL     1     111.424 126.480 135.510  0.00  0.00    +0.000 A 
ATOM     26  C   UNL     1     110.949 125.209 135.959  0.00  0.00    +0.000 A 
ATOM     27  C   UNL     1     110.739 126.578 135.061  0.00  0.00    +0.000 A 
ATOM     28  C   UNL     1     110.264 125.306 135.510  0.00  0.00    +0.000 A 
ATOM     29  C   UNL     1     110.159 125.991 135.061  0.00  0.00    +0.000 A 
BRANCH  27  30
ATOM     30  O   UNL     1     110.633 127.262 134.613  0.00  0.00    +0.000 OA
ATOM     31  C   UNL     1     110.852 127.995 134.922  0.00  0.00    +0.000 C 
ENDBRANCH  27  30
ENDBRANCH  21  24
ENDBRANCH   9  14
BRANCH   5  32
ATOM     32  C   UNL     1     111.726 128.861 138.492  0.00  0.00    +0.000 C 
BRANCH  32  33
ATOM     33  O   UNL     1     112.231 129.165 137.916  0.00  0.00    +0.000 OA
BRANCH  33  38
ATOM     34  O   UNL     1     111.381 130.266 137.591  0.00  0.00    +0.000 OA
ATOM     35  O   UNL     1     113.553 130.066 137.509  0.00  0.00    +0.000 OA
ATOM     36  O   UNL     1     113.362 131.617 136.980  0.00  0.00    +0.000 OA
ATOM     37  O   UNL     1     111.851 132.268 136.859  0.00  0.00    +0.000 OA
ATOM     38  C   UNL     1     112.136 129.941 137.652  0.00  0.00    +0.000 C 
ATOM     39  C   UNL     1     112.797 130.392 137.448  0.00  0.00    +0.000 C 
ATOM     40  C   UNL     1     112.702 131.167 137.184  0.00  0.00    +0.000 C 
ATOM     41  C   UNL     1     111.947 131.492 137.123  0.00  0.00    +0.000 C 
ATOM     42  C   UNL     1     111.285 131.041 137.327  0.00  0.00    +0.000 C 
BRANCH  42  44
ATOM     43  O   UNL     1     109.910 130.916 136.962  0.00  0.00    +0.000 OA
ATOM     44  C   UNL     1     110.530 131.367 137.266  0.00  0.00    +0.000 C 
ENDBRANCH  42  44
ENDBRANCH  33  38
ENDBRANCH  32  33
ENDBRANCH   5  32
TORSDOF 7
ENDMDL
MODEL 8
REMARK VINA RESULT:     -10.1      1.416      2.863
REMARK  Name = 44258176
REMARK  7 active torsions:
REMARK  status: ('A' for Active; 'I' for Inactive)
REMARK    1  A    between atoms: O_2  and  C_22
REMARK    2  A    between atoms: O_2  and  C_23
REMARK    3  A    between atoms: O_15  and  C_41
REMARK    4  A    between atoms: C_17  and  C_22
REMARK    5  A    between atoms: C_21  and  C_28
REMARK    6  A    between atoms: C_27  and  C_29
REMARK    7  A    between atoms: C_36  and  C_38
REMARK                            x       y       z     vdW  Elec       q    Type
REMARK                         _______ _______ _______ _____ _____    ______ ____
ROOT
ATOM      1  O   UNL     1     112.863 126.898 138.251  0.00  0.00    +0.000 OA
ATOM      2  O   UNL     1     113.047 129.072 138.202  0.00  0.00    +0.000 OA
ATOM      3  O   UNL     1     113.659 128.674 136.722  0.00  0.00    +0.000 OA
ATOM      4  O   UNL     1     113.741 127.092 136.261  0.00  0.00    +0.000 OA
ATOM      5  C   UNL     1     112.823 127.688 138.481  0.00  0.00    +0.000 C 
ATOM      6  C   UNL     1     113.088 128.281 137.972  0.00  0.00    +0.000 C 
ATOM      7  C   UNL     1     113.394 128.081 137.232  0.00  0.00    +0.000 C 
ATOM      8  C   UNL     1     113.434 127.291 137.002  0.00  0.00    +0.000 C 
ATOM      9  C   UNL     1     113.169 126.698 137.511  0.00  0.00    +0.000 C 
ENDROOT
BRANCH   9  14
ATOM     10  O   UNL     1     111.835 126.000 136.823  0.00  0.00    +0.000 OA
ATOM     11  O   UNL     1     114.562 125.844 137.739  0.00  0.00    +0.000 OA
ATOM     12  O   UNL     1     113.333 123.534 136.590  0.00  0.00    +0.000 OA
ATOM     13  O   UNL     1     111.970 123.570 136.119  0.00  0.00    +0.000 OA
ATOM     14  C   UNL     1     113.210 125.907 137.281  0.00  0.00    +0.000 A 
ATOM     15  C   UNL     1     112.555 125.544 136.937  0.00  0.00    +0.000 A 
ATOM     16  C   UNL     1     113.907 125.480 137.395  0.00  0.00    +0.000 A 
ATOM     17  C   UNL     1     112.596 124.752 136.706  0.00  0.00    +0.000 A 
ATOM     18  C   UNL     1     113.948 124.688 137.164  0.00  0.00    +0.000 A 
ATOM     19  C   UNL     1     113.292 124.325 136.820  0.00  0.00    +0.000 A 
ATOM     20  C   UNL     1     111.920 124.362 136.346  0.00  0.00    +0.000 A 
ATOM     21  C   UNL     1     111.149 125.626 136.465  0.00  0.00    +0.000 A 
ATOM     22  C   UNL     1     111.192 124.802 136.225  0.00  0.00    +0.000 A 
BRANCH  21  24
ATOM     23  O   UNL     1     108.368 127.346 136.015  0.00  0.00    +0.000 OA
ATOM     24  C   UNL     1     110.454 126.056 136.352  0.00  0.00    +0.000 A 
ATOM     25  C   UNL     1     109.964 126.224 136.995  0.00  0.00    +0.000 A 
ATOM     26  C   UNL     1     110.249 126.318 135.597  0.00  0.00    +0.000 A 
ATOM     27  C   UNL     1     109.269 126.653 136.882  0.00  0.00    +0.000 A 
ATOM     28  C   UNL     1     109.554 126.748 135.485  0.00  0.00    +0.000 A 
ATOM     29  C   UNL     1     109.064 126.916 136.127  0.00  0.00    +0.000 A 
BRANCH  27  30
ATOM     30  O   UNL     1     108.779 126.821 137.524  0.00  0.00    +0.000 OA
ATOM     31  C   UNL     1     108.961 126.522 138.271  0.00  0.00    +0.000 C 
ENDBRANCH  27  30
ENDBRANCH  21  24
ENDBRANCH   9  14
BRANCH   5  32
ATOM     32  C   UNL     1     112.517 127.888 139.221  0.00  0.00    +0.000 C 
BRANCH  32  33
ATOM     33  O   UNL     1     112.380 127.300 139.784  0.00  0.00    +0.000 OA
BRANCH  33  38
ATOM     34  O   UNL     1     112.251 128.211 140.877  0.00  0.00    +0.000 OA
ATOM     35  O   UNL     1     111.326 126.266 140.521  0.00  0.00    +0.000 OA
ATOM     36  O   UNL     1     110.670 126.661 141.983  0.00  0.00    +0.000 OA
ATOM     37  O   UNL     1     111.068 128.089 142.707  0.00  0.00    +0.000 OA
ATOM     38  C   UNL     1     112.052 127.498 140.515  0.00  0.00    +0.000 C 
ATOM     39  C   UNL     1     111.525 126.980 140.884  0.00  0.00    +0.000 C 
ATOM     40  C   UNL     1     111.197 127.178 141.614  0.00  0.00    +0.000 C 
ATOM     41  C   UNL     1     111.396 127.891 141.976  0.00  0.00    +0.000 C 
ATOM     42  C   UNL     1     111.923 128.408 141.607  0.00  0.00    +0.000 C 
BRANCH  42  44
ATOM     43  O   UNL     1     112.881 129.434 141.878  0.00  0.00    +0.000 OA
ATOM     44  C   UNL     1     112.122 129.123 141.970  0.00  0.00    +0.000 C 
ENDBRANCH  42  44
ENDBRANCH  33  38
ENDBRANCH  32  33
ENDBRANCH   5  32
TORSDOF 7
ENDMDL
MODEL 9
REMARK VINA RESULT:     -10.0      1.942      4.831
REMARK  Name = 44258176
REMARK  7 active torsions:
REMARK  status: ('A' for Active; 'I' for Inactive)
REMARK    1  A    between atoms: O_2  and  C_22
REMARK    2  A    between atoms: O_2  and  C_23
REMARK    3  A    between atoms: O_15  and  C_41
REMARK    4  A    between atoms: C_17  and  C_22
REMARK    5  A    between atoms: C_21  and  C_28
REMARK    6  A    between atoms: C_27  and  C_29
REMARK    7  A    between atoms: C_36  and  C_38
REMARK                            x       y       z     vdW  Elec       q    Type
REMARK                         _______ _______ _______ _____ _____    ______ ____
ROOT
ATOM      1  O   UNL     1     112.183 128.727 137.466  0.00  0.00    +0.000 OA
ATOM      2  O   UNL     1     113.099 129.482 135.635  0.00  0.00    +0.000 OA
ATOM      3  O   UNL     1     114.031 128.151 135.922  0.00  0.00    +0.000 OA
ATOM      4  O   UNL     1     113.731 127.203 137.239  0.00  0.00    +0.000 OA
ATOM      5  C   UNL     1     112.333 129.200 136.808  0.00  0.00    +0.000 C 
ATOM      6  C   UNL     1     112.949 129.008 136.293  0.00  0.00    +0.000 C 
ATOM      7  C   UNL     1     113.415 128.342 136.438  0.00  0.00    +0.000 C 
ATOM      8  C   UNL     1     113.265 127.869 137.095  0.00  0.00    +0.000 C 
ATOM      9  C   UNL     1     112.649 128.060 137.610  0.00  0.00    +0.000 C 
ENDROOT
BRANCH   9  14
ATOM     10  O   UNL     1     111.510 126.865 137.488  0.00  0.00    +0.000 OA
ATOM     11  O   UNL     1     113.478 128.313 139.014  0.00  0.00    +0.000 OA
ATOM     12  O   UNL     1     112.050 126.165 140.244  0.00  0.00    +0.000 OA
ATOM     13  O   UNL     1     111.057 125.415 139.515  0.00  0.00    +0.000 OA
ATOM     14  C   UNL     1     112.500 127.586 138.269  0.00  0.00    +0.000 A 
ATOM     15  C   UNL     1     111.935 126.987 138.225  0.00  0.00    +0.000 A 
ATOM     16  C   UNL     1     112.914 127.713 138.971  0.00  0.00    +0.000 A 
ATOM     17  C   UNL     1     111.785 126.512 138.884  0.00  0.00    +0.000 A 
ATOM     18  C   UNL     1     112.764 127.239 139.630  0.00  0.00    +0.000 A 
ATOM     19  C   UNL     1     112.200 126.639 139.586  0.00  0.00    +0.000 A 
ATOM     20  C   UNL     1     111.200 125.884 138.851  0.00  0.00    +0.000 A 
ATOM     21  C   UNL     1     110.921 126.242 137.436  0.00  0.00    +0.000 A 
ATOM     22  C   UNL     1     110.765 125.748 138.123  0.00  0.00    +0.000 A 
BRANCH  21  24
ATOM     23  O   UNL     1     109.268 125.746 134.623  0.00  0.00    +0.000 OA
ATOM     24  C   UNL     1     110.508 126.118 136.733  0.00  0.00    +0.000 A 
ATOM     25  C   UNL     1     109.844 126.575 136.559  0.00  0.00    +0.000 A 
ATOM     26  C   UNL     1     110.759 125.536 136.204  0.00  0.00    +0.000 A 
ATOM     27  C   UNL     1     109.431 126.451 135.855  0.00  0.00    +0.000 A 
ATOM     28  C   UNL     1     110.346 125.412 135.501  0.00  0.00    +0.000 A 
ATOM     29  C   UNL     1     109.682 125.870 135.327  0.00  0.00    +0.000 A 
BRANCH  27  30
ATOM     30  O   UNL     1     108.767 126.909 135.681  0.00  0.00    +0.000 OA
ATOM     31  C   UNL     1     108.795 127.728 135.773  0.00  0.00    +0.000 C 
ENDBRANCH  27  30
ENDBRANCH  21  24
ENDBRANCH   9  14
BRANCH   5  32
ATOM     32  C   UNL     1     111.868 129.865 136.664  0.00  0.00    +0.000 C 
BRANCH  32  33
ATOM     33  O   UNL     1     111.449 130.218 137.281  0.00  0.00    +0.000 OA
BRANCH  33  38
ATOM     34  O   UNL     1     110.440 130.872 136.508  0.00  0.00    +0.000 OA
ATOM     35  O   UNL     1     111.582 131.555 138.239  0.00  0.00    +0.000 OA
ATOM     36  O   UNL     1     110.640 132.878 137.945  0.00  0.00    +0.000 OA
ATOM     37  O   UNL     1     109.564 132.863 136.694  0.00  0.00    +0.000 OA
ATOM     38  C   UNL     1     110.977 130.879 137.134  0.00  0.00    +0.000 C 
ATOM     39  C   UNL     1     111.044 131.549 137.613  0.00  0.00    +0.000 C 
ATOM     40  C   UNL     1     110.573 132.209 137.466  0.00  0.00    +0.000 C 
ATOM     41  C   UNL     1     110.036 132.202 136.841  0.00  0.00    +0.000 C 
ATOM     42  C   UNL     1     109.969 131.533 136.362  0.00  0.00    +0.000 C 
BRANCH  42  44
ATOM     43  O   UNL     1     109.591 131.081 135.060  0.00  0.00    +0.000 OA
ATOM     44  C   UNL     1     109.431 131.526 135.736  0.00  0.00    +0.000 C 
ENDBRANCH  42  44
ENDBRANCH  33  38
ENDBRANCH  32  33
ENDBRANCH   5  32
TORSDOF 7
ENDMDL
MODEL 10
REMARK VINA RESULT:     -10.0      1.482      4.306
REMARK  Name = 44258176
REMARK  7 active torsions:
REMARK  status: ('A' for Active; 'I' for Inactive)
REMARK    1  A    between atoms: O_2  and  C_22
REMARK    2  A    between atoms: O_2  and  C_23
REMARK    3  A    between atoms: O_15  and  C_41
REMARK    4  A    between atoms: C_17  and  C_22
REMARK    5  A    between atoms: C_21  and  C_28
REMARK    6  A    between atoms: C_27  and  C_29
REMARK    7  A    between atoms: C_36  and  C_38
REMARK                            x       y       z     vdW  Elec       q    Type
REMARK                         _______ _______ _______ _____ _____    ______ ____
ROOT
ATOM      1  O   UNL     1     112.993 127.217 137.547  0.00  0.00    +0.000 OA
ATOM      2  O   UNL     1     112.648 128.751 139.061  0.00  0.00    +0.000 OA
ATOM      3  O   UNL     1     112.121 127.405 139.856  0.00  0.00    +0.000 OA
ATOM      4  O   UNL     1     112.174 125.933 139.112  0.00  0.00    +0.000 OA
ATOM      5  C   UNL     1     112.966 127.952 137.919  0.00  0.00    +0.000 C 
ATOM      6  C   UNL     1     112.675 128.015 138.689  0.00  0.00    +0.000 C 
ATOM      7  C   UNL     1     112.411 127.342 139.086  0.00  0.00    +0.000 C 
ATOM      8  C   UNL     1     112.438 126.607 138.714  0.00  0.00    +0.000 C 
ATOM      9  C   UNL     1     112.729 126.543 137.945  0.00  0.00    +0.000 C 
ENDROOT
BRANCH   9  14
ATOM     10  O   UNL     1     111.499 126.125 136.918  0.00  0.00    +0.000 OA
ATOM     11  O   UNL     1     113.991 125.520 138.231  0.00  0.00    +0.000 OA
ATOM     12  O   UNL     1     112.836 123.599 136.458  0.00  0.00    +0.000 OA
ATOM     13  O   UNL     1     111.590 123.864 135.781  0.00  0.00    +0.000 OA
ATOM     14  C   UNL     1     112.755 125.807 137.573  0.00  0.00    +0.000 A 
ATOM     15  C   UNL     1     112.151 125.583 137.059  0.00  0.00    +0.000 A 
ATOM     16  C   UNL     1     113.387 125.296 137.717  0.00  0.00    +0.000 A 
ATOM     17  C   UNL     1     112.178 124.846 136.687  0.00  0.00    +0.000 A 
ATOM     18  C   UNL     1     113.414 124.559 137.344  0.00  0.00    +0.000 A 
ATOM     19  C   UNL     1     112.809 124.335 136.830  0.00  0.00    +0.000 A 
ATOM     20  C   UNL     1     111.555 124.601 136.148  0.00  0.00    +0.000 A 
ATOM     21  C   UNL     1     110.867 125.897 136.383  0.00  0.00    +0.000 A 
ATOM     22  C   UNL     1     110.895 125.130 135.995  0.00  0.00    +0.000 A 
BRANCH  21  24
ATOM     23  O   UNL     1     108.347 127.952 135.817  0.00  0.00    +0.000 OA
ATOM     24  C   UNL     1     110.237 126.411 136.242  0.00  0.00    +0.000 A 
ATOM     25  C   UNL     1     110.274 126.946 135.615  0.00  0.00    +0.000 A 
ATOM     26  C   UNL     1     109.570 126.389 136.727  0.00  0.00    +0.000 A 
ATOM     27  C   UNL     1     109.644 127.460 135.474  0.00  0.00    +0.000 A 
ATOM     28  C   UNL     1     108.940 126.903 136.586  0.00  0.00    +0.000 A 
ATOM     29  C   UNL     1     108.977 127.438 135.959  0.00  0.00    +0.000 A 
BRANCH  27  30
ATOM     30  O   UNL     1     109.681 127.995 134.847  0.00  0.00    +0.000 OA
ATOM     31  C   UNL     1     110.361 128.447 134.730  0.00  0.00    +0.000 C 
ENDBRANCH  27  30
ENDBRANCH  21  24
ENDBRANCH   9  14
BRANCH   5  32
ATOM     32  C   UNL     1     113.230 128.625 137.522  0.00  0.00    +0.000 C 
BRANCH  32  33
ATOM     33  O   UNL     1     113.490 128.569 136.741  0.00  0.00    +0.000 OA
BRANCH  33  38
ATOM     34  O   UNL     1     113.760 129.971 136.706  0.00  0.00    +0.000 OA
ATOM     35  O   UNL     1     114.349 128.368 135.346  0.00  0.00    +0.000 OA
ATOM     36  O   UNL     1     115.049 129.671 134.614  0.00  0.00    +0.000 OA
ATOM     37  O   UNL     1     114.889 131.174 135.276  0.00  0.00    +0.000 OA
ATOM     38  C   UNL     1     113.840 129.220 136.375  0.00  0.00    +0.000 C 
ATOM     39  C   UNL     1     114.270 129.120 135.677  0.00  0.00    +0.000 C 
ATOM     40  C   UNL     1     114.619 129.771 135.311  0.00  0.00    +0.000 C 
ATOM     41  C   UNL     1     114.539 130.522 135.642  0.00  0.00    +0.000 C 
ATOM     42  C   UNL     1     114.109 130.622 136.340  0.00  0.00    +0.000 C 
BRANCH  42  44
ATOM     43  O   UNL     1     113.280 131.671 136.843  0.00  0.00    +0.000 OA
ATOM     44  C   UNL     1     114.030 131.374 136.670  0.00  0.00    +0.000 C 
ENDBRANCH  42  44
ENDBRANCH  33  38
ENDBRANCH  32  33
ENDBRANCH   5  32
TORSDOF 7
ENDMDL
