MODEL 1
REMARK VINA RESULT:     -12.6      0.000      0.000
REMARK  Name = 44259005
REMARK  10 active torsions:
REMARK  status: ('A' for Active; 'I' for Inactive)
REMARK    1  A    between atoms: O_1  and  C_24
REMARK    2  A    between atoms: O_1  and  C_29
REMARK    3  A    between atoms: O_4  and  C_33
REMARK    4  A    between atoms: O_4  and  C_35
REMARK    5  A    between atoms: O_6  and  C_28
REMARK    6  A    between atoms: O_6  and  C_42
REMARK    7  A    between atoms: O_16  and  C_47
REMARK    8  A    between atoms: O_16  and  C_53
REMARK    9  A    between atoms: C_27  and  C_33
REMARK   10  A    between atoms: C_48  and  C_54
REMARK                            x       y       z     vdW  Elec       q    Type
REMARK                         _______ _______ _______ _____ _____    ______ ____
ROOT
ATOM      1  O   UNL     1     112.132 127.717 137.542  0.00  0.00    +0.000 OA
ENDROOT
BRANCH   1   5
ATOM      2  O   UNL     1     111.629 129.709 136.805  0.00  0.00    +0.000 OA
ATOM      3  O   UNL     1     110.736 128.012 138.370  0.00  0.00    +0.000 OA
ATOM      4  O   UNL     1     109.616 128.861 138.697  0.00  0.00    +0.000 OA
ATOM      5  C   UNL     1     111.732 128.430 137.435  0.00  0.00    +0.000 A 
ATOM      6  C   UNL     1     112.030 128.996 136.913  0.00  0.00    +0.000 A 
ATOM      7  C   UNL     1     111.034 128.578 137.848  0.00  0.00    +0.000 A 
ATOM      8  C   UNL     1     110.633 129.291 137.741  0.00  0.00    +0.000 A 
ATOM      9  C   UNL     1     110.931 129.856 137.220  0.00  0.00    +0.000 A 
ATOM     10  C   UNL     1     109.795 130.763 137.526  0.00  0.00    +0.000 A 
ATOM     11  C   UNL     1     110.523 130.604 137.098  0.00  0.00    +0.000 A 
ATOM     12  C   UNL     1     109.907 129.433 138.178  0.00  0.00    +0.000 A 
ATOM     13  C   UNL     1     109.485 130.173 138.070  0.00  0.00    +0.000 A 
BRANCH   6  15
ATOM     14  O   UNL     1     114.825 128.405 135.261  0.00  0.00    +0.000 OA
ATOM     15  C   UNL     1     112.728 128.848 136.500  0.00  0.00    +0.000 A 
ATOM     16  C   UNL     1     112.715 128.377 135.822  0.00  0.00    +0.000 A 
ATOM     17  C   UNL     1     113.440 129.171 136.764  0.00  0.00    +0.000 A 
ATOM     18  C   UNL     1     113.414 128.230 135.409  0.00  0.00    +0.000 A 
ATOM     19  C   UNL     1     114.138 129.023 136.351  0.00  0.00    +0.000 A 
ATOM     20  C   UNL     1     114.126 128.553 135.673  0.00  0.00    +0.000 A 
ENDBRANCH   6  15
BRANCH  10  21
ATOM     21  O   UNL     1     109.397 131.477 137.417  0.00  0.00    +0.000 OA
BRANCH  21  30
ATOM     22  O   UNL     1     109.121 131.485 136.015  0.00  0.00    +0.000 OA
ATOM     23  O   UNL     1     106.737 131.954 136.487  0.00  0.00    +0.000 OA
ATOM     24  O   UNL     1     107.255 131.806 134.927  0.00  0.00    +0.000 OA
ATOM     25  O   UNL     1     107.808 131.790 137.731  0.00  0.00    +0.000 OA
ATOM     26  C   UNL     1     107.532 131.798 136.329  0.00  0.00    +0.000 C 
ATOM     27  C   UNL     1     107.791 131.724 135.549  0.00  0.00    +0.000 C 
ATOM     28  C   UNL     1     108.067 131.716 136.951  0.00  0.00    +0.000 C 
ATOM     29  C   UNL     1     108.586 131.567 135.392  0.00  0.00    +0.000 C 
ATOM     30  C   UNL     1     108.862 131.559 136.795  0.00  0.00    +0.000 C 
ATOM     31  C   UNL     1     108.846 131.493 134.612  0.00  0.00    +0.000 C 
ENDBRANCH  21  30
ENDBRANCH  10  21
ENDBRANCH   1   5
BRANCH   1  39
ATOM     32  O   UNL     1     112.761 128.052 138.781  0.00  0.00    +0.000 OA
ATOM     33  O   UNL     1     112.424 125.734 139.580  0.00  0.00    +0.000 OA
ATOM     34  O   UNL     1     113.165 126.842 140.552  0.00  0.00    +0.000 OA
ATOM     35  C   UNL     1     112.278 126.726 138.561  0.00  0.00    +0.000 C 
ATOM     36  C   UNL     1     112.536 126.507 139.314  0.00  0.00    +0.000 C 
ATOM     37  C   UNL     1     112.907 127.061 139.799  0.00  0.00    +0.000 C 
ATOM     38  C   UNL     1     113.019 127.834 139.533  0.00  0.00    +0.000 C 
ATOM     39  C   UNL     1     112.390 127.498 138.294  0.00  0.00    +0.000 C 
BRANCH  35  40
ATOM     40  O   UNL     1     111.908 126.171 138.075  0.00  0.00    +0.000 OA
BRANCH  40  45
ATOM     41  O   UNL     1     113.180 125.672 137.659  0.00  0.00    +0.000 OA
ATOM     42  O   UNL     1     111.163 124.925 137.291  0.00  0.00    +0.000 OA
ATOM     43  O   UNL     1     112.063 123.803 136.482  0.00  0.00    +0.000 OA
ATOM     44  O   UNL     1     113.708 123.927 136.458  0.00  0.00    +0.000 OA
ATOM     45  C   UNL     1     112.358 125.610 137.671  0.00  0.00    +0.000 C 
ATOM     46  C   UNL     1     111.985 124.987 137.279  0.00  0.00    +0.000 C 
ATOM     47  C   UNL     1     112.435 124.426 136.875  0.00  0.00    +0.000 C 
ATOM     48  C   UNL     1     113.258 124.488 136.862  0.00  0.00    +0.000 C 
ATOM     49  C   UNL     1     113.630 125.111 137.255  0.00  0.00    +0.000 C 
ATOM     50  C   UNL     1     114.453 125.173 137.243  0.00  0.00    +0.000 C 
ENDBRANCH  40  45
ENDBRANCH  35  40
BRANCH  38  51
ATOM     51  C   UNL     1     113.389 128.388 140.020  0.00  0.00    +0.000 C 
BRANCH  51  52
ATOM     52  O   UNL     1     112.968 129.038 140.301  0.00  0.00    +0.000 OA
BRANCH  52  57
ATOM     53  O   UNL     1     114.156 129.819 140.440  0.00  0.00    +0.000 OA
ATOM     54  O   UNL     1     112.191 130.030 141.366  0.00  0.00    +0.000 OA
ATOM     55  O   UNL     1     112.991 131.307 142.038  0.00  0.00    +0.000 OA
ATOM     56  O   UNL     1     114.568 131.593 141.644  0.00  0.00    +0.000 OA
ATOM     57  C   UNL     1     113.368 129.677 140.636  0.00  0.00    +0.000 C 
ATOM     58  C   UNL     1     112.980 130.173 141.169  0.00  0.00    +0.000 C 
ATOM     59  C   UNL     1     113.379 130.811 141.505  0.00  0.00    +0.000 C 
ATOM     60  C   UNL     1     114.168 130.953 141.308  0.00  0.00    +0.000 C 
ATOM     61  C   UNL     1     114.556 130.458 140.775  0.00  0.00    +0.000 C 
ATOM     62  C   UNL     1     115.344 130.601 140.578  0.00  0.00    +0.000 C 
ENDBRANCH  52  57
ENDBRANCH  51  52
ENDBRANCH  38  51
ENDBRANCH   1  39
TORSDOF 10
ENDMDL
MODEL 2
REMARK VINA RESULT:     -11.7      7.618     10.251
REMARK  Name = 44259005
REMARK  10 active torsions:
REMARK  status: ('A' for Active; 'I' for Inactive)
REMARK    1  A    between atoms: O_1  and  C_24
REMARK    2  A    between atoms: O_1  and  C_29
REMARK    3  A    between atoms: O_4  and  C_33
REMARK    4  A    between atoms: O_4  and  C_35
REMARK    5  A    between atoms: O_6  and  C_28
REMARK    6  A    between atoms: O_6  and  C_42
REMARK    7  A    between atoms: O_16  and  C_47
REMARK    8  A    between atoms: O_16  and  C_53
REMARK    9  A    between atoms: C_27  and  C_33
REMARK   10  A    between atoms: C_48  and  C_54
REMARK                            x       y       z     vdW  Elec       q    Type
REMARK                         _______ _______ _______ _____ _____    ______ ____
ROOT
ATOM      1  O   UNL     1     106.689 127.824 143.612  0.00  0.00    +0.000 OA
ENDROOT
BRANCH   1   5
ATOM      2  O   UNL     1     104.934 127.213 144.757  0.00  0.00    +0.000 OA
ATOM      3  O   UNL     1     107.314 126.582 144.500  0.00  0.00    +0.000 OA
ATOM      4  O   UNL     1     107.172 125.533 145.480  0.00  0.00    +0.000 OA
ATOM      5  C   UNL     1     106.209 127.413 144.142  0.00  0.00    +0.000 A 
ATOM      6  C   UNL     1     105.415 127.624 144.228  0.00  0.00    +0.000 A 
ATOM      7  C   UNL     1     106.520 126.792 144.586  0.00  0.00    +0.000 A 
ATOM      8  C   UNL     1     106.040 126.381 145.116  0.00  0.00    +0.000 A 
ATOM      9  C   UNL     1     105.247 126.591 145.201  0.00  0.00    +0.000 A 
ATOM     10  C   UNL     1     105.055 125.523 146.215  0.00  0.00    +0.000 A 
ATOM     11  C   UNL     1     104.735 126.171 145.750  0.00  0.00    +0.000 A 
ATOM     12  C   UNL     1     106.377 125.736 145.572  0.00  0.00    +0.000 A 
ATOM     13  C   UNL     1     105.882 125.304 146.126  0.00  0.00    +0.000 A 
BRANCH   6  15
ATOM     14  O   UNL     1     104.167 130.107 142.448  0.00  0.00    +0.000 OA
ATOM     15  C   UNL     1     105.103 128.245 143.783  0.00  0.00    +0.000 A 
ATOM     16  C   UNL     1     105.143 129.018 144.069  0.00  0.00    +0.000 A 
ATOM     17  C   UNL     1     104.751 128.092 143.052  0.00  0.00    +0.000 A 
ATOM     18  C   UNL     1     104.831 129.638 143.624  0.00  0.00    +0.000 A 
ATOM     19  C   UNL     1     104.439 128.714 142.608  0.00  0.00    +0.000 A 
ATOM     20  C   UNL     1     104.479 129.487 142.894  0.00  0.00    +0.000 A 
ENDBRANCH   6  15
BRANCH  10  21
ATOM     21  O   UNL     1     104.572 125.114 146.744  0.00  0.00    +0.000 OA
BRANCH  21  30
ATOM     22  O   UNL     1     104.331 123.985 145.901  0.00  0.00    +0.000 OA
ATOM     23  O   UNL     1     102.020 123.827 146.774  0.00  0.00    +0.000 OA
ATOM     24  O   UNL     1     102.549 122.751 145.640  0.00  0.00    +0.000 OA
ATOM     25  O   UNL     1     103.032 125.008 147.325  0.00  0.00    +0.000 OA
ATOM     26  C   UNL     1     102.790 123.879 146.483  0.00  0.00    +0.000 C 
ATOM     27  C   UNL     1     103.055 123.341 145.916  0.00  0.00    +0.000 C 
ATOM     28  C   UNL     1     103.296 124.470 146.758  0.00  0.00    +0.000 C 
ATOM     29  C   UNL     1     103.825 123.394 145.625  0.00  0.00    +0.000 C 
ATOM     30  C   UNL     1     104.066 124.523 146.468  0.00  0.00    +0.000 C 
ATOM     31  C   UNL     1     104.090 122.857 145.058  0.00  0.00    +0.000 C 
ENDBRANCH  21  30
ENDBRANCH  10  21
ENDBRANCH   1   5
BRANCH   1  39
ATOM     32  O   UNL     1     106.756 126.783 142.636  0.00  0.00    +0.000 OA
ATOM     33  O   UNL     1     109.075 127.447 142.085  0.00  0.00    +0.000 OA
ATOM     34  O   UNL     1     108.368 126.183 141.293  0.00  0.00    +0.000 OA
ATOM     35  C   UNL     1     107.882 127.636 142.849  0.00  0.00    +0.000 C 
ATOM     36  C   UNL     1     108.302 127.225 142.269  0.00  0.00    +0.000 C 
ATOM     37  C   UNL     1     107.948 126.594 141.873  0.00  0.00    +0.000 C 
ATOM     38  C   UNL     1     107.175 126.373 142.057  0.00  0.00    +0.000 C 
ATOM     39  C   UNL     1     107.109 127.414 143.033  0.00  0.00    +0.000 C 
BRANCH  35  40
ATOM     40  O   UNL     1     108.236 128.267 143.244  0.00  0.00    +0.000 OA
BRANCH  40  45
ATOM     41  O   UNL     1     107.951 129.122 142.137  0.00  0.00    +0.000 OA
ATOM     42  O   UNL     1     108.926 129.534 144.046  0.00  0.00    +0.000 OA
ATOM     43  O   UNL     1     108.986 131.023 143.338  0.00  0.00    +0.000 OA
ATOM     44  O   UNL     1     108.356 131.245 141.829  0.00  0.00    +0.000 OA
ATOM     45  C   UNL     1     108.266 129.012 142.891  0.00  0.00    +0.000 C 
ATOM     46  C   UNL     1     108.611 129.645 143.292  0.00  0.00    +0.000 C 
ATOM     47  C   UNL     1     108.641 130.389 142.938  0.00  0.00    +0.000 C 
ATOM     48  C   UNL     1     108.326 130.501 142.183  0.00  0.00    +0.000 C 
ATOM     49  C   UNL     1     107.982 129.867 141.783  0.00  0.00    +0.000 C 
ATOM     50  C   UNL     1     107.667 129.978 141.028  0.00  0.00    +0.000 C 
ENDBRANCH  40  45
ENDBRANCH  35  40
BRANCH  38  51
ATOM     51  C   UNL     1     106.822 125.741 141.660  0.00  0.00    +0.000 C 
BRANCH  51  52
ATOM     52  O   UNL     1     106.156 125.868 141.192  0.00  0.00    +0.000 OA
BRANCH  52  57
ATOM     53  O   UNL     1     106.083 124.470 140.905  0.00  0.00    +0.000 OA
ATOM     54  O   UNL     1     104.919 126.149 140.135  0.00  0.00    +0.000 OA
ATOM     55  O   UNL     1     104.229 124.891 139.321  0.00  0.00    +0.000 OA
ATOM     56  O   UNL     1     104.774 123.353 139.562  0.00  0.00    +0.000 OA
ATOM     57  C   UNL     1     105.811 125.238 140.784  0.00  0.00    +0.000 C 
ATOM     58  C   UNL     1     105.193 125.379 140.256  0.00  0.00    +0.000 C 
ATOM     59  C   UNL     1     104.847 124.751 139.849  0.00  0.00    +0.000 C 
ATOM     60  C   UNL     1     105.120 123.982 139.970  0.00  0.00    +0.000 C 
ATOM     61  C   UNL     1     105.738 123.841 140.498  0.00  0.00    +0.000 C 
ATOM     62  C   UNL     1     106.010 123.072 140.618  0.00  0.00    +0.000 C 
ENDBRANCH  52  57
ENDBRANCH  51  52
ENDBRANCH  38  51
ENDBRANCH   1  39
TORSDOF 10
ENDMDL
MODEL 3
REMARK VINA RESULT:     -11.6      1.837      6.010
REMARK  Name = 44259005
REMARK  10 active torsions:
REMARK  status: ('A' for Active; 'I' for Inactive)
REMARK    1  A    between atoms: O_1  and  C_24
REMARK    2  A    between atoms: O_1  and  C_29
REMARK    3  A    between atoms: O_4  and  C_33
REMARK    4  A    between atoms: O_4  and  C_35
REMARK    5  A    between atoms: O_6  and  C_28
REMARK    6  A    between atoms: O_6  and  C_42
REMARK    7  A    between atoms: O_16  and  C_47
REMARK    8  A    between atoms: O_16  and  C_53
REMARK    9  A    between atoms: C_27  and  C_33
REMARK   10  A    between atoms: C_48  and  C_54
REMARK                            x       y       z     vdW  Elec       q    Type
REMARK                         _______ _______ _______ _____ _____    ______ ____
ROOT
ATOM      1  O   UNL     1     111.552 129.222 140.565  0.00  0.00    +0.000 OA
ENDROOT
BRANCH   1   5
ATOM      2  O   UNL     1     112.609 128.498 138.797  0.00  0.00    +0.000 OA
ATOM      3  O   UNL     1     110.387 128.286 139.867  0.00  0.00    +0.000 OA
ATOM      4  O   UNL     1     109.932 127.409 138.815  0.00  0.00    +0.000 OA
ATOM      5  C   UNL     1     111.710 128.825 139.859  0.00  0.00    +0.000 A 
ATOM      6  C   UNL     1     112.451 128.896 139.502  0.00  0.00    +0.000 A 
ATOM      7  C   UNL     1     111.128 128.356 139.510  0.00  0.00    +0.000 A 
ATOM      8  C   UNL     1     111.286 127.959 138.804  0.00  0.00    +0.000 A 
ATOM      9  C   UNL     1     112.026 128.030 138.448  0.00  0.00    +0.000 A 
ATOM     10  C   UNL     1     111.600 127.132 137.345  0.00  0.00    +0.000 A 
ATOM     11  C   UNL     1     112.203 127.621 137.713  0.00  0.00    +0.000 A 
ATOM     12  C   UNL     1     110.670 127.474 138.451  0.00  0.00    +0.000 A 
ATOM     13  C   UNL     1     110.828 127.058 137.716  0.00  0.00    +0.000 A 
BRANCH   6  15
ATOM     14  O   UNL     1     114.781 130.767 140.902  0.00  0.00    +0.000 OA
ATOM     15  C   UNL     1     113.033 129.364 139.852  0.00  0.00    +0.000 A 
ATOM     16  C   UNL     1     113.161 130.134 139.583  0.00  0.00    +0.000 A 
ATOM     17  C   UNL     1     113.489 129.062 140.471  0.00  0.00    +0.000 A 
ATOM     18  C   UNL     1     113.743 130.601 139.934  0.00  0.00    +0.000 A 
ATOM     19  C   UNL     1     114.071 129.530 140.820  0.00  0.00    +0.000 A 
ATOM     20  C   UNL     1     114.198 130.300 140.552  0.00  0.00    +0.000 A 
ENDBRANCH   6  15
BRANCH  10  21
ATOM     21  O   UNL     1     111.761 126.736 136.639  0.00  0.00    +0.000 OA
BRANCH  21  30
ATOM     22  O   UNL     1     112.772 125.816 137.056  0.00  0.00    +0.000 OA
ATOM     23  O   UNL     1     111.574 123.978 135.911  0.00  0.00    +0.000 OA
ATOM     24  O   UNL     1     112.985 123.671 136.710  0.00  0.00    +0.000 OA
ATOM     25  O   UNL     1     110.962 125.510 135.876  0.00  0.00    +0.000 OA
ATOM     26  C   UNL     1     111.974 124.591 136.293  0.00  0.00    +0.000 C 
ATOM     27  C   UNL     1     112.679 124.438 136.692  0.00  0.00    +0.000 C 
ATOM     28  C   UNL     1     111.668 125.357 136.275  0.00  0.00    +0.000 C 
ATOM     29  C   UNL     1     113.079 125.050 137.074  0.00  0.00    +0.000 C 
ATOM     30  C   UNL     1     112.067 125.970 136.657  0.00  0.00    +0.000 C 
ATOM     31  C   UNL     1     113.784 124.898 137.474  0.00  0.00    +0.000 C 
ENDBRANCH  21  30
ENDBRANCH  10  21
ENDBRANCH   1   5
BRANCH   1  39
ATOM     32  O   UNL     1     110.683 130.202 139.993  0.00  0.00    +0.000 OA
ATOM     33  O   UNL     1     109.321 130.201 142.060  0.00  0.00    +0.000 OA
ATOM     34  O   UNL     1     108.907 131.181 140.799  0.00  0.00    +0.000 OA
ATOM     35  C   UNL     1     110.437 129.711 141.312  0.00  0.00    +0.000 C 
ATOM     36  C   UNL     1     109.775 130.201 141.371  0.00  0.00    +0.000 C 
ATOM     37  C   UNL     1     109.569 130.691 140.740  0.00  0.00    +0.000 C 
ATOM     38  C   UNL     1     110.023 130.692 140.051  0.00  0.00    +0.000 C 
ATOM     39  C   UNL     1     110.891 129.712 140.623  0.00  0.00    +0.000 C 
BRANCH  35  40
ATOM     40  O   UNL     1     110.644 129.221 141.943  0.00  0.00    +0.000 OA
BRANCH  40  45
ATOM     41  O   UNL     1     111.276 130.320 142.601  0.00  0.00    +0.000 OA
ATOM     42  O   UNL     1     110.852 128.294 143.291  0.00  0.00    +0.000 OA
ATOM     43  O   UNL     1     111.588 128.929 144.624  0.00  0.00    +0.000 OA
ATOM     44  O   UNL     1     112.116 130.493 144.609  0.00  0.00    +0.000 OA
ATOM     45  C   UNL     1     111.012 129.539 142.609  0.00  0.00    +0.000 C 
ATOM     46  C   UNL     1     111.116 129.075 143.283  0.00  0.00    +0.000 C 
ATOM     47  C   UNL     1     111.484 129.393 143.950  0.00  0.00    +0.000 C 
ATOM     48  C   UNL     1     111.748 130.175 143.942  0.00  0.00    +0.000 C 
ATOM     49  C   UNL     1     111.644 130.638 143.268  0.00  0.00    +0.000 C 
ATOM     50  C   UNL     1     111.908 131.420 143.260  0.00  0.00    +0.000 C 
ENDBRANCH  40  45
ENDBRANCH  35  40
BRANCH  38  51
ATOM     51  C   UNL     1     109.815 131.182 139.421  0.00  0.00    +0.000 C 
BRANCH  51  52
ATOM     52  O   UNL     1     110.384 131.660 139.064  0.00  0.00    +0.000 OA
BRANCH  52  57
ATOM     53  O   UNL     1     110.241 131.276 137.695  0.00  0.00    +0.000 OA
ATOM     54  O   UNL     1     110.382 133.248 138.619  0.00  0.00    +0.000 OA
ATOM     55  O   UNL     1     110.239 133.659 137.027  0.00  0.00    +0.000 OA
ATOM     56  O   UNL     1     110.096 132.480 135.881  0.00  0.00    +0.000 OA
ATOM     57  C   UNL     1     110.312 131.864 138.268  0.00  0.00    +0.000 C 
ATOM     58  C   UNL     1     110.311 132.659 138.045  0.00  0.00    +0.000 C 
ATOM     59  C   UNL     1     110.239 132.864 137.250  0.00  0.00    +0.000 C 
ATOM     60  C   UNL     1     110.168 132.275 136.677  0.00  0.00    +0.000 C 
ATOM     61  C   UNL     1     110.169 131.480 136.900  0.00  0.00    +0.000 C 
ATOM     62  C   UNL     1     110.098 130.891 136.326  0.00  0.00    +0.000 C 
ENDBRANCH  52  57
ENDBRANCH  51  52
ENDBRANCH  38  51
ENDBRANCH   1  39
TORSDOF 10
ENDMDL
MODEL 4
REMARK VINA RESULT:     -11.6      3.311      5.960
REMARK  Name = 44259005
REMARK  10 active torsions:
REMARK  status: ('A' for Active; 'I' for Inactive)
REMARK    1  A    between atoms: O_1  and  C_24
REMARK    2  A    between atoms: O_1  and  C_29
REMARK    3  A    between atoms: O_4  and  C_33
REMARK    4  A    between atoms: O_4  and  C_35
REMARK    5  A    between atoms: O_6  and  C_28
REMARK    6  A    between atoms: O_6  and  C_42
REMARK    7  A    between atoms: O_16  and  C_47
REMARK    8  A    between atoms: O_16  and  C_53
REMARK    9  A    between atoms: C_27  and  C_33
REMARK   10  A    between atoms: C_48  and  C_54
REMARK                            x       y       z     vdW  Elec       q    Type
REMARK                         _______ _______ _______ _____ _____    ______ ____
ROOT
ATOM      1  O   UNL     1     110.122 128.603 141.924  0.00  0.00    +0.000 OA
ENDROOT
BRANCH   1   5
ATOM      2  O   UNL     1     109.812 130.607 142.733  0.00  0.00    +0.000 OA
ATOM      3  O   UNL     1     110.790 128.441 143.425  0.00  0.00    +0.000 OA
ATOM      4  O   UNL     1     111.146 128.981 144.715  0.00  0.00    +0.000 OA
ATOM      5  C   UNL     1     110.130 129.244 142.444  0.00  0.00    +0.000 A 
ATOM      6  C   UNL     1     109.804 129.967 142.213  0.00  0.00    +0.000 A 
ATOM      7  C   UNL     1     110.464 129.163 143.194  0.00  0.00    +0.000 A 
ATOM      8  C   UNL     1     110.472 129.804 143.714  0.00  0.00    +0.000 A 
ATOM      9  C   UNL     1     110.146 130.526 143.483  0.00  0.00    +0.000 A 
ATOM     10  C   UNL     1     110.494 131.123 144.798  0.00  0.00    +0.000 A 
ATOM     11  C   UNL     1     110.147 131.201 144.015  0.00  0.00    +0.000 A 
ATOM     12  C   UNL     1     110.822 129.707 144.492  0.00  0.00    +0.000 A 
ATOM     13  C   UNL     1     110.833 130.370 145.038  0.00  0.00    +0.000 A 
BRANCH   6  15
ATOM     14  O   UNL     1     108.472 130.290 139.211  0.00  0.00    +0.000 OA
ATOM     15  C   UNL     1     109.471 130.047 141.463  0.00  0.00    +0.000 A 
ATOM     16  C   UNL     1     108.691 129.812 141.330  0.00  0.00    +0.000 A 
ATOM     17  C   UNL     1     109.918 130.364 140.846  0.00  0.00    +0.000 A 
ATOM     18  C   UNL     1     108.359 129.893 140.579  0.00  0.00    +0.000 A 
ATOM     19  C   UNL     1     109.584 130.445 140.095  0.00  0.00    +0.000 A 
ATOM     20  C   UNL     1     108.805 130.209 139.962  0.00  0.00    +0.000 A 
ENDBRANCH   6  15
BRANCH  10  21
ATOM     21  O   UNL     1     110.500 131.765 145.315  0.00  0.00    +0.000 OA
BRANCH  21  30
ATOM     22  O   UNL     1     111.814 132.282 145.098  0.00  0.00    +0.000 OA
ATOM     23  O   UNL     1     110.885 134.566 144.898  0.00  0.00    +0.000 OA
ATOM     24  O   UNL     1     112.509 134.321 144.747  0.00  0.00    +0.000 OA
ATOM     25  O   UNL     1     109.880 133.288 145.182  0.00  0.00    +0.000 OA
ATOM     26  C   UNL     1     111.195 133.805 144.965  0.00  0.00    +0.000 C 
ATOM     27  C   UNL     1     112.007 133.682 144.889  0.00  0.00    +0.000 C 
ATOM     28  C   UNL     1     110.693 133.166 145.107  0.00  0.00    +0.000 C 
ATOM     29  C   UNL     1     112.317 132.920 144.956  0.00  0.00    +0.000 C 
ATOM     30  C   UNL     1     111.002 132.404 145.173  0.00  0.00    +0.000 C 
ATOM     31  C   UNL     1     113.130 132.797 144.880  0.00  0.00    +0.000 C 
ENDBRANCH  21  30
ENDBRANCH  10  21
ENDBRANCH   1   5
BRANCH   1  39
ATOM     32  O   UNL     1     111.520 128.649 141.631  0.00  0.00    +0.000 OA
ATOM     33  O   UNL     1     111.549 126.186 141.388  0.00  0.00    +0.000 OA
ATOM     34  O   UNL     1     112.937 127.052 141.176  0.00  0.00    +0.000 OA
ATOM     35  C   UNL     1     110.835 127.395 141.656  0.00  0.00    +0.000 C 
ATOM     36  C   UNL     1     111.540 127.007 141.469  0.00  0.00    +0.000 C 
ATOM     37  C   UNL     1     112.233 127.440 141.363  0.00  0.00    +0.000 C 
ATOM     38  C   UNL     1     112.224 128.261 141.444  0.00  0.00    +0.000 C 
ATOM     39  C   UNL     1     110.826 128.216 141.737  0.00  0.00    +0.000 C 
BRANCH  35  40
ATOM     40  O   UNL     1     110.142 126.961 141.763  0.00  0.00    +0.000 OA
BRANCH  40  45
ATOM     41  O   UNL     1     109.985 126.864 140.346  0.00  0.00    +0.000 OA
ATOM     42  O   UNL     1     108.743 126.112 141.976  0.00  0.00    +0.000 OA
ATOM     43  O   UNL     1     107.887 125.590 140.666  0.00  0.00    +0.000 OA
ATOM     44  O   UNL     1     108.429 125.917 139.143  0.00  0.00    +0.000 OA
ATOM     45  C   UNL     1     109.714 126.700 141.108  0.00  0.00    +0.000 C 
ATOM     46  C   UNL     1     109.014 126.276 141.215  0.00  0.00    +0.000 C 
ATOM     47  C   UNL     1     108.586 126.015 140.560  0.00  0.00    +0.000 C 
ATOM     48  C   UNL     1     108.857 126.178 139.798  0.00  0.00    +0.000 C 
ATOM     49  C   UNL     1     109.556 126.602 139.691  0.00  0.00    +0.000 C 
ATOM     50  C   UNL     1     109.827 126.766 138.929  0.00  0.00    +0.000 C 
ENDBRANCH  40  45
ENDBRANCH  35  40
BRANCH  38  51
ATOM     51  C   UNL     1     112.918 128.694 141.337  0.00  0.00    +0.000 C 
BRANCH  51  52
ATOM     52  O   UNL     1     112.890 129.517 141.299  0.00  0.00    +0.000 OA
BRANCH  52  57
ATOM     53  O   UNL     1     114.186 129.636 140.708  0.00  0.00    +0.000 OA
ATOM     54  O   UNL     1     113.066 131.008 141.982  0.00  0.00    +0.000 OA
ATOM     55  O   UNL     1     114.449 131.873 141.733  0.00  0.00    +0.000 OA
ATOM     56  O   UNL     1     115.657 131.246 140.800  0.00  0.00    +0.000 OA
ATOM     57  C   UNL     1     113.582 129.949 141.174  0.00  0.00    +0.000 C 
ATOM     58  C   UNL     1     113.670 130.694 141.515  0.00  0.00    +0.000 C 
ATOM     59  C   UNL     1     114.361 131.127 141.391  0.00  0.00    +0.000 C 
ATOM     60  C   UNL     1     114.964 130.813 140.925  0.00  0.00    +0.000 C 
ATOM     61  C   UNL     1     114.877 130.067 140.583  0.00  0.00    +0.000 C 
ATOM     62  C   UNL     1     115.481 129.754 140.116  0.00  0.00    +0.000 C 
ENDBRANCH  52  57
ENDBRANCH  51  52
ENDBRANCH  38  51
ENDBRANCH   1  39
TORSDOF 10
ENDMDL
MODEL 5
REMARK VINA RESULT:     -11.5      6.800      8.681
REMARK  Name = 44259005
REMARK  10 active torsions:
REMARK  status: ('A' for Active; 'I' for Inactive)
REMARK    1  A    between atoms: O_1  and  C_24
REMARK    2  A    between atoms: O_1  and  C_29
REMARK    3  A    between atoms: O_4  and  C_33
REMARK    4  A    between atoms: O_4  and  C_35
REMARK    5  A    between atoms: O_6  and  C_28
REMARK    6  A    between atoms: O_6  and  C_42
REMARK    7  A    between atoms: O_16  and  C_47
REMARK    8  A    between atoms: O_16  and  C_53
REMARK    9  A    between atoms: C_27  and  C_33
REMARK   10  A    between atoms: C_48  and  C_54
REMARK                            x       y       z     vdW  Elec       q    Type
REMARK                         _______ _______ _______ _____ _____    ______ ____
ROOT
ATOM      1  O   UNL     1     105.345 128.000 144.013  0.00  0.00    +0.000 OA
ENDROOT
BRANCH   1   5
ATOM      2  O   UNL     1     104.206 129.832 143.680  0.00  0.00    +0.000 OA
ATOM      3  O   UNL     1     104.808 127.757 142.472  0.00  0.00    +0.000 OA
ATOM      4  O   UNL     1     104.070 128.186 141.309  0.00  0.00    +0.000 OA
ATOM      5  C   UNL     1     104.876 128.570 143.645  0.00  0.00    +0.000 A 
ATOM      6  C   UNL     1     104.675 129.262 144.048  0.00  0.00    +0.000 A 
ATOM      7  C   UNL     1     104.607 128.449 142.875  0.00  0.00    +0.000 A 
ATOM      8  C   UNL     1     104.138 129.019 142.507  0.00  0.00    +0.000 A 
ATOM      9  C   UNL     1     103.938 129.710 142.910  0.00  0.00    +0.000 A 
ATOM     10  C   UNL     1     103.166 130.191 141.735  0.00  0.00    +0.000 A 
ATOM     11  C   UNL     1     103.449 130.312 142.538  0.00  0.00    +0.000 A 
ATOM     12  C   UNL     1     103.865 128.881 141.704  0.00  0.00    +0.000 A 
ATOM     13  C   UNL     1     103.376 129.470 141.315  0.00  0.00    +0.000 A 
BRANCH   6  15
ATOM     14  O   UNL     1     105.749 129.744 147.131  0.00  0.00    +0.000 OA
ATOM     15  C   UNL     1     104.944 129.383 144.819  0.00  0.00    +0.000 A 
ATOM     16  C   UNL     1     105.615 129.844 144.955  0.00  0.00    +0.000 A 
ATOM     17  C   UNL     1     104.541 129.042 145.454  0.00  0.00    +0.000 A 
ATOM     18  C   UNL     1     105.883 129.964 145.726  0.00  0.00    +0.000 A 
ATOM     19  C   UNL     1     104.810 129.163 146.224  0.00  0.00    +0.000 A 
ATOM     20  C   UNL     1     105.481 129.624 146.360  0.00  0.00    +0.000 A 
ENDBRANCH   6  15
BRANCH  10  21
ATOM     21  O   UNL     1     102.697 130.763 141.370  0.00  0.00    +0.000 OA
BRANCH  21  30
ATOM     22  O   UNL     1     103.757 131.581 140.870  0.00  0.00    +0.000 OA
ATOM     23  O   UNL     1     102.443 133.610 141.403  0.00  0.00    +0.000 OA
ATOM     24  O   UNL     1     103.941 133.752 140.726  0.00  0.00    +0.000 OA
ATOM     25  O   UNL     1     101.822 132.116 141.724  0.00  0.00    +0.000 OA
ATOM     26  C   UNL     1     102.882 132.934 141.225  0.00  0.00    +0.000 C 
ATOM     27  C   UNL     1     103.631 133.005 140.887  0.00  0.00    +0.000 C 
ATOM     28  C   UNL     1     102.571 132.187 141.386  0.00  0.00    +0.000 C 
ATOM     29  C   UNL     1     104.069 132.328 140.709  0.00  0.00    +0.000 C 
ATOM     30  C   UNL     1     103.008 131.510 141.209  0.00  0.00    +0.000 C 
ATOM     31  C   UNL     1     104.818 132.398 140.371  0.00  0.00    +0.000 C 
ENDBRANCH  21  30
ENDBRANCH  10  21
ENDBRANCH   1   5
BRANCH   1  39
ATOM     32  O   UNL     1     106.561 128.290 143.321  0.00  0.00    +0.000 OA
ATOM     33  O   UNL     1     107.088 125.874 143.232  0.00  0.00    +0.000 OA
ATOM     34  O   UNL     1     108.128 126.970 142.569  0.00  0.00    +0.000 OA
ATOM     35  C   UNL     1     106.216 126.937 143.623  0.00  0.00    +0.000 C 
ATOM     36  C   UNL     1     106.913 126.680 143.261  0.00  0.00    +0.000 C 
ATOM     37  C   UNL     1     107.432 127.228 142.930  0.00  0.00    +0.000 C 
ATOM     38  C   UNL     1     107.256 128.034 142.960  0.00  0.00    +0.000 C 
ATOM     39  C   UNL     1     106.041 127.743 143.652  0.00  0.00    +0.000 C 
BRANCH  35  40
ATOM     40  O   UNL     1     105.697 126.389 143.954  0.00  0.00    +0.000 OA
BRANCH  40  45
ATOM     41  O   UNL     1     106.400 126.372 145.197  0.00  0.00    +0.000 OA
ATOM     42  O   UNL     1     105.073 124.898 144.287  0.00  0.00    +0.000 OA
ATOM     43  O   UNL     1     105.465 124.136 145.697  0.00  0.00    +0.000 OA
ATOM     44  O   UNL     1     106.481 124.865 146.774  0.00  0.00    +0.000 OA
ATOM     45  C   UNL     1     105.893 126.008 144.659  0.00  0.00    +0.000 C 
ATOM     46  C   UNL     1     105.581 125.262 144.825  0.00  0.00    +0.000 C 
ATOM     47  C   UNL     1     105.777 124.881 145.530  0.00  0.00    +0.000 C 
ATOM     48  C   UNL     1     106.285 125.246 146.069  0.00  0.00    +0.000 C 
ATOM     49  C   UNL     1     106.596 125.991 145.902  0.00  0.00    +0.000 C 
ATOM     50  C   UNL     1     107.105 126.356 146.441  0.00  0.00    +0.000 C 
ENDBRANCH  40  45
ENDBRANCH  35  40
BRANCH  38  51
ATOM     51  C   UNL     1     107.776 128.581 142.628  0.00  0.00    +0.000 C 
BRANCH  51  52
ATOM     52  O   UNL     1     107.488 129.188 142.149  0.00  0.00    +0.000 OA
BRANCH  52  57
ATOM     53  O   UNL     1     108.729 129.895 142.184  0.00  0.00    +0.000 OA
ATOM     54  O   UNL     1     107.086 129.961 140.749  0.00  0.00    +0.000 OA
ATOM     55  O   UNL     1     108.126 131.055 140.082  0.00  0.00    +0.000 OA
ATOM     56  O   UNL     1     109.568 131.376 140.817  0.00  0.00    +0.000 OA
ATOM     57  C   UNL     1     108.009 129.735 141.817  0.00  0.00    +0.000 C 
ATOM     58  C   UNL     1     107.807 130.121 141.116  0.00  0.00    +0.000 C 
ATOM     59  C   UNL     1     108.327 130.669 140.783  0.00  0.00    +0.000 C 
ATOM     60  C   UNL     1     109.048 130.828 141.151  0.00  0.00    +0.000 C 
ATOM     61  C   UNL     1     109.249 130.442 141.851  0.00  0.00    +0.000 C 
ATOM     62  C   UNL     1     109.970 130.603 142.218  0.00  0.00    +0.000 C 
ENDBRANCH  52  57
ENDBRANCH  51  52
ENDBRANCH  38  51
ENDBRANCH   1  39
TORSDOF 10
ENDMDL
MODEL 6
REMARK VINA RESULT:     -11.5      1.025      4.352
REMARK  Name = 44259005
REMARK  10 active torsions:
REMARK  status: ('A' for Active; 'I' for Inactive)
REMARK    1  A    between atoms: O_1  and  C_24
REMARK    2  A    between atoms: O_1  and  C_29
REMARK    3  A    between atoms: O_4  and  C_33
REMARK    4  A    between atoms: O_4  and  C_35
REMARK    5  A    between atoms: O_6  and  C_28
REMARK    6  A    between atoms: O_6  and  C_42
REMARK    7  A    between atoms: O_16  and  C_47
REMARK    8  A    between atoms: O_16  and  C_53
REMARK    9  A    between atoms: C_27  and  C_33
REMARK   10  A    between atoms: C_48  and  C_54
REMARK                            x       y       z     vdW  Elec       q    Type
REMARK                         _______ _______ _______ _____ _____    ______ ____
ROOT
ATOM      1  O   UNL     1     112.761 129.729 138.558  0.00  0.00    +0.000 OA
ENDROOT
BRANCH   1   5
ATOM      2  O   UNL     1     111.776 129.968 136.625  0.00  0.00    +0.000 OA
ATOM      3  O   UNL     1     111.201 129.371 138.958  0.00  0.00    +0.000 OA
ATOM      4  O   UNL     1     109.812 129.203 138.603  0.00  0.00    +0.000 OA
ATOM      5  C   UNL     1     112.173 129.749 137.981  0.00  0.00    +0.000 A 
ATOM      6  C   UNL     1     112.364 129.948 137.202  0.00  0.00    +0.000 A 
ATOM      7  C   UNL     1     111.392 129.570 138.180  0.00  0.00    +0.000 A 
ATOM      8  C   UNL     1     110.804 129.590 137.602  0.00  0.00    +0.000 A 
ATOM      9  C   UNL     1     110.995 129.789 136.825  0.00  0.00    +0.000 A 
ATOM     10  C   UNL     1     109.577 129.628 136.415  0.00  0.00    +0.000 A 
ATOM     11  C   UNL     1     110.391 129.813 136.213  0.00  0.00    +0.000 A 
ATOM     12  C   UNL     1     109.995 129.401 137.823  0.00  0.00    +0.000 A 
ATOM     13  C   UNL     1     109.377 129.420 137.226  0.00  0.00    +0.000 A 
BRANCH   6  15
ATOM     14  O   UNL     1     115.486 130.666 136.407  0.00  0.00    +0.000 OA
ATOM     15  C   UNL     1     113.145 130.127 137.003  0.00  0.00    +0.000 A 
ATOM     16  C   UNL     1     113.620 129.557 136.642  0.00  0.00    +0.000 A 
ATOM     17  C   UNL     1     113.450 130.876 137.166  0.00  0.00    +0.000 A 
ATOM     18  C   UNL     1     114.400 129.737 136.443  0.00  0.00    +0.000 A 
ATOM     19  C   UNL     1     114.230 131.055 136.967  0.00  0.00    +0.000 A 
ATOM     20  C   UNL     1     114.705 130.486 136.606  0.00  0.00    +0.000 A 
ENDBRANCH   6  15
BRANCH  10  21
ATOM     21  O   UNL     1     108.991 129.648 135.836  0.00  0.00    +0.000 OA
BRANCH  21  30
ATOM     22  O   UNL     1     109.086 130.972 135.305  0.00  0.00    +0.000 OA
ATOM     23  O   UNL     1     106.663 131.301 135.691  0.00  0.00    +0.000 OA
ATOM     24  O   UNL     1     107.566 132.515 135.032  0.00  0.00    +0.000 OA
ATOM     25  O   UNL     1     107.376 129.868 136.093  0.00  0.00    +0.000 OA
ATOM     26  C   UNL     1     107.471 131.192 135.562  0.00  0.00    +0.000 C 
ATOM     27  C   UNL     1     107.922 131.798 135.233  0.00  0.00    +0.000 C 
ATOM     28  C   UNL     1     107.827 130.475 135.763  0.00  0.00    +0.000 C 
ATOM     29  C   UNL     1     108.730 131.689 135.104  0.00  0.00    +0.000 C 
ATOM     30  C   UNL     1     108.634 130.365 135.635  0.00  0.00    +0.000 C 
ATOM     31  C   UNL     1     109.182 132.295 134.775  0.00  0.00    +0.000 C 
ENDBRANCH  21  30
ENDBRANCH  10  21
ENDBRANCH   1   5
BRANCH   1  39
ATOM     32  O   UNL     1     112.942 128.313 138.626  0.00  0.00    +0.000 OA
ATOM     33  O   UNL     1     113.111 128.452 141.091  0.00  0.00    +0.000 OA
ATOM     34  O   UNL     1     113.235 126.990 140.337  0.00  0.00    +0.000 OA
ATOM     35  C   UNL     1     112.936 129.091 139.824  0.00  0.00    +0.000 C 
ATOM     36  C   UNL     1     113.055 128.406 140.269  0.00  0.00    +0.000 C 
ATOM     37  C   UNL     1     113.117 127.675 139.892  0.00  0.00    +0.000 C 
ATOM     38  C   UNL     1     113.060 127.629 139.070  0.00  0.00    +0.000 C 
ATOM     39  C   UNL     1     112.880 129.045 139.002  0.00  0.00    +0.000 C 
BRANCH  35  40
ATOM     40  O   UNL     1     112.874 129.822 140.202  0.00  0.00    +0.000 OA
BRANCH  40  45
ATOM     41  O   UNL     1     114.291 130.007 140.182  0.00  0.00    +0.000 OA
ATOM     42  O   UNL     1     112.745 130.945 141.404  0.00  0.00    +0.000 OA
ATOM     43  O   UNL     1     114.096 131.691 141.985  0.00  0.00    +0.000 OA
ATOM     44  O   UNL     1     115.578 131.315 141.364  0.00  0.00    +0.000 OA
ATOM     45  C   UNL     1     113.550 130.195 140.492  0.00  0.00    +0.000 C 
ATOM     46  C   UNL     1     113.485 130.757 141.094  0.00  0.00    +0.000 C 
ATOM     47  C   UNL     1     114.161 131.130 141.384  0.00  0.00    +0.000 C 
ATOM     48  C   UNL     1     114.902 130.941 141.074  0.00  0.00    +0.000 C 
ATOM     49  C   UNL     1     114.967 130.380 140.473  0.00  0.00    +0.000 C 
ATOM     50  C   UNL     1     115.708 130.191 140.163  0.00  0.00    +0.000 C 
ENDBRANCH  40  45
ENDBRANCH  35  40
BRANCH  38  51
ATOM     51  C   UNL     1     113.122 126.897 138.694  0.00  0.00    +0.000 C 
BRANCH  51  52
ATOM     52  O   UNL     1     112.688 126.747 138.009  0.00  0.00    +0.000 OA
BRANCH  52  57
ATOM     53  O   UNL     1     113.522 125.669 137.578  0.00  0.00    +0.000 OA
ATOM     54  O   UNL     1     111.393 126.040 137.270  0.00  0.00    +0.000 OA
ATOM     55  O   UNL     1     111.579 124.609 136.470  0.00  0.00    +0.000 OA
ATOM     56  O   UNL     1     113.060 123.885 136.408  0.00  0.00    +0.000 OA
ATOM     57  C   UNL     1     112.782 126.031 137.609  0.00  0.00    +0.000 C 
ATOM     58  C   UNL     1     112.134 125.678 137.239  0.00  0.00    +0.000 C 
ATOM     59  C   UNL     1     112.226 124.963 136.839  0.00  0.00    +0.000 C 
ATOM     60  C   UNL     1     112.967 124.601 136.808  0.00  0.00    +0.000 C 
ATOM     61  C   UNL     1     113.615 124.955 137.178  0.00  0.00    +0.000 C 
ATOM     62  C   UNL     1     114.355 124.592 137.147  0.00  0.00    +0.000 C 
ENDBRANCH  52  57
ENDBRANCH  51  52
ENDBRANCH  38  51
ENDBRANCH   1  39
TORSDOF 10
ENDMDL
MODEL 7
REMARK VINA RESULT:     -11.5      2.810      6.289
REMARK  Name = 44259005
REMARK  10 active torsions:
REMARK  status: ('A' for Active; 'I' for Inactive)
REMARK    1  A    between atoms: O_1  and  C_24
REMARK    2  A    between atoms: O_1  and  C_29
REMARK    3  A    between atoms: O_4  and  C_33
REMARK    4  A    between atoms: O_4  and  C_35
REMARK    5  A    between atoms: O_6  and  C_28
REMARK    6  A    between atoms: O_6  and  C_42
REMARK    7  A    between atoms: O_16  and  C_47
REMARK    8  A    between atoms: O_16  and  C_53
REMARK    9  A    between atoms: C_27  and  C_33
REMARK   10  A    between atoms: C_48  and  C_54
REMARK                            x       y       z     vdW  Elec       q    Type
REMARK                         _______ _______ _______ _____ _____    ______ ____
ROOT
ATOM      1  O   UNL     1     112.089 129.540 140.189  0.00  0.00    +0.000 OA
ENDROOT
BRANCH   1   5
ATOM      2  O   UNL     1     112.396 129.430 142.347  0.00  0.00    +0.000 OA
ATOM      3  O   UNL     1     110.973 130.634 140.718  0.00  0.00    +0.000 OA
ATOM      4  O   UNL     1     110.308 131.347 141.782  0.00  0.00    +0.000 OA
ATOM      5  C   UNL     1     112.005 129.686 140.996  0.00  0.00    +0.000 A 
ATOM      6  C   UNL     1     112.480 129.284 141.540  0.00  0.00    +0.000 A 
ATOM      7  C   UNL     1     111.447 130.233 141.262  0.00  0.00    +0.000 A 
ATOM      8  C   UNL     1     111.364 130.378 142.069  0.00  0.00    +0.000 A 
ATOM      9  C   UNL     1     111.838 129.977 142.612  0.00  0.00    +0.000 A 
ATOM     10  C   UNL     1     111.181 130.689 143.738  0.00  0.00    +0.000 A 
ATOM     11  C   UNL     1     111.760 130.120 143.456  0.00  0.00    +0.000 A 
ATOM     12  C   UNL     1     110.779 130.950 142.332  0.00  0.00    +0.000 A 
ATOM     13  C   UNL     1     110.686 131.107 143.172  0.00  0.00    +0.000 A 
BRANCH   6  15
ATOM     14  O   UNL     1     114.709 127.095 140.479  0.00  0.00    +0.000 OA
ATOM     15  C   UNL     1     113.037 128.738 141.274  0.00  0.00    +0.000 A 
ATOM     16  C   UNL     1     113.769 128.997 140.996  0.00  0.00    +0.000 A 
ATOM     17  C   UNL     1     112.863 127.931 141.288  0.00  0.00    +0.000 A 
ATOM     18  C   UNL     1     114.327 128.449 140.730  0.00  0.00    +0.000 A 
ATOM     19  C   UNL     1     113.420 127.384 141.023  0.00  0.00    +0.000 A 
ATOM     20  C   UNL     1     114.152 127.643 140.744  0.00  0.00    +0.000 A 
ENDBRANCH   6  15
BRANCH  10  21
ATOM     21  O   UNL     1     111.099 130.832 144.546  0.00  0.00    +0.000 OA
BRANCH  21  30
ATOM     22  O   UNL     1     112.034 131.908 144.646  0.00  0.00    +0.000 OA
ATOM     23  O   UNL     1     110.523 133.076 146.220  0.00  0.00    +0.000 OA
ATOM     24  O   UNL     1     111.961 133.763 145.795  0.00  0.00    +0.000 OA
ATOM     25  O   UNL     1     110.092 131.611 145.595  0.00  0.00    +0.000 OA
ATOM     26  C   UNL     1     111.027 132.687 145.695  0.00  0.00    +0.000 C 
ATOM     27  C   UNL     1     111.746 133.030 145.483  0.00  0.00    +0.000 C 
ATOM     28  C   UNL     1     110.811 131.954 145.383  0.00  0.00    +0.000 C 
ATOM     29  C   UNL     1     112.250 132.641 144.958  0.00  0.00    +0.000 C 
ATOM     30  C   UNL     1     111.315 131.565 144.859  0.00  0.00    +0.000 C 
ATOM     31  C   UNL     1     112.970 132.984 144.745  0.00  0.00    +0.000 C 
ENDBRANCH  21  30
ENDBRANCH  10  21
ENDBRANCH   1   5
BRANCH   1  39
ATOM     32  O   UNL     1     110.888 128.780 140.040  0.00  0.00    +0.000 OA
ATOM     33  O   UNL     1     110.554 129.748 137.787  0.00  0.00    +0.000 OA
ATOM     34  O   UNL     1     109.465 128.665 138.389  0.00  0.00    +0.000 OA
ATOM     35  C   UNL     1     111.322 129.644 138.988  0.00  0.00    +0.000 C 
ATOM     36  C   UNL     1     110.665 129.425 138.538  0.00  0.00    +0.000 C 
ATOM     37  C   UNL     1     110.121 128.884 138.840  0.00  0.00    +0.000 C 
ATOM     38  C   UNL     1     110.233 128.561 139.591  0.00  0.00    +0.000 C 
ATOM     39  C   UNL     1     111.433 129.321 139.739  0.00  0.00    +0.000 C 
BRANCH  35  40
ATOM     40  O   UNL     1     111.866 130.186 138.687  0.00  0.00    +0.000 OA
BRANCH  40  45
ATOM     41  O   UNL     1     112.498 129.146 137.938  0.00  0.00    +0.000 OA
ATOM     42  O   UNL     1     112.817 131.305 137.934  0.00  0.00    +0.000 OA
ATOM     43  O   UNL     1     113.924 130.824 136.809  0.00  0.00    +0.000 OA
ATOM     44  O   UNL     1     114.081 129.224 136.437  0.00  0.00    +0.000 OA
ATOM     45  C   UNL     1     112.420 129.945 138.124  0.00  0.00    +0.000 C 
ATOM     46  C   UNL     1     112.895 130.505 137.748  0.00  0.00    +0.000 C 
ATOM     47  C   UNL     1     113.448 130.265 137.186  0.00  0.00    +0.000 C 
ATOM     48  C   UNL     1     113.527 129.464 136.999  0.00  0.00    +0.000 C 
ATOM     49  C   UNL     1     113.051 128.905 137.376  0.00  0.00    +0.000 C 
ATOM     50  C   UNL     1     113.130 128.105 137.190  0.00  0.00    +0.000 C 
ENDBRANCH  40  45
ENDBRANCH  35  40
BRANCH  38  51
ATOM     51  C   UNL     1     109.688 128.019 139.891  0.00  0.00    +0.000 C 
BRANCH  51  52
ATOM     52  O   UNL     1     109.947 127.301 140.201  0.00  0.00    +0.000 OA
BRANCH  52  57
ATOM     53  O   UNL     1     108.766 127.118 140.985  0.00  0.00    +0.000 OA
ATOM     54  O   UNL     1     110.187 125.668 140.181  0.00  0.00    +0.000 OA
ATOM     55  O   UNL     1     109.127 124.669 140.955  0.00  0.00    +0.000 OA
ATOM     56  O   UNL     1     107.826 125.302 141.749  0.00  0.00    +0.000 OA
ATOM     57  C   UNL     1     109.416 126.802 140.588  0.00  0.00    +0.000 C 
ATOM     58  C   UNL     1     109.536 125.985 140.578  0.00  0.00    +0.000 C 
ATOM     59  C   UNL     1     109.006 125.485 140.965  0.00  0.00    +0.000 C 
ATOM     60  C   UNL     1     108.356 125.802 141.362  0.00  0.00    +0.000 C 
ATOM     61  C   UNL     1     108.236 126.619 141.371  0.00  0.00    +0.000 C 
ATOM     62  C   UNL     1     107.585 126.935 141.768  0.00  0.00    +0.000 C 
ENDBRANCH  52  57
ENDBRANCH  51  52
ENDBRANCH  38  51
ENDBRANCH   1  39
TORSDOF 10
ENDMDL
MODEL 8
REMARK VINA RESULT:     -11.4      2.288      5.765
REMARK  Name = 44259005
REMARK  10 active torsions:
REMARK  status: ('A' for Active; 'I' for Inactive)
REMARK    1  A    between atoms: O_1  and  C_24
REMARK    2  A    between atoms: O_1  and  C_29
REMARK    3  A    between atoms: O_4  and  C_33
REMARK    4  A    between atoms: O_4  and  C_35
REMARK    5  A    between atoms: O_6  and  C_28
REMARK    6  A    between atoms: O_6  and  C_42
REMARK    7  A    between atoms: O_16  and  C_47
REMARK    8  A    between atoms: O_16  and  C_53
REMARK    9  A    between atoms: C_27  and  C_33
REMARK   10  A    between atoms: C_48  and  C_54
REMARK                            x       y       z     vdW  Elec       q    Type
REMARK                         _______ _______ _______ _____ _____    ______ ____
ROOT
ATOM      1  O   UNL     1     110.531 130.709 141.520  0.00  0.00    +0.000 OA
ENDROOT
BRANCH   1   5
ATOM      2  O   UNL     1     108.903 130.289 140.127  0.00  0.00    +0.000 OA
ATOM      3  O   UNL     1     110.917 131.722 140.276  0.00  0.00    +0.000 OA
ATOM      4  O   UNL     1     110.652 132.279 138.971  0.00  0.00    +0.000 OA
ATOM      5  C   UNL     1     110.053 130.738 140.848  0.00  0.00    +0.000 A 
ATOM      6  C   UNL     1     109.382 130.260 140.799  0.00  0.00    +0.000 A 
ATOM      7  C   UNL     1     110.245 131.244 140.226  0.00  0.00    +0.000 A 
ATOM      8  C   UNL     1     109.767 131.273 139.554  0.00  0.00    +0.000 A 
ATOM      9  C   UNL     1     109.097 130.796 139.505  0.00  0.00    +0.000 A 
ATOM     10  C   UNL     1     108.786 131.342 138.159  0.00  0.00    +0.000 A 
ATOM     11  C   UNL     1     108.590 130.816 138.810  0.00  0.00    +0.000 A 
ATOM     12  C   UNL     1     109.979 131.805 138.913  0.00  0.00    +0.000 A 
ATOM     13  C   UNL     1     109.485 131.840 138.211  0.00  0.00    +0.000 A 
BRANCH   6  15
ATOM     14  O   UNL     1     108.612 128.238 143.290  0.00  0.00    +0.000 OA
ATOM     15  C   UNL     1     109.189 129.754 141.421  0.00  0.00    +0.000 A 
ATOM     16  C   UNL     1     109.404 128.958 141.387  0.00  0.00    +0.000 A 
ATOM     17  C   UNL     1     108.782 130.045 142.078  0.00  0.00    +0.000 A 
ATOM     18  C   UNL     1     109.211 128.453 142.011  0.00  0.00    +0.000 A 
ATOM     19  C   UNL     1     108.590 129.539 142.700  0.00  0.00    +0.000 A 
ATOM     20  C   UNL     1     108.804 128.743 142.667  0.00  0.00    +0.000 A 
ENDBRANCH   6  15
BRANCH  10  21
ATOM     21  O   UNL     1     108.306 131.369 137.489  0.00  0.00    +0.000 OA
BRANCH  21  30
ATOM     22  O   UNL     1     108.748 130.141 136.906  0.00  0.00    +0.000 OA
ATOM     23  O   UNL     1     108.605 131.157 134.655  0.00  0.00    +0.000 OA
ATOM     24  O   UNL     1     109.096 129.591 134.823  0.00  0.00    +0.000 OA
ATOM     25  O   UNL     1     108.211 132.046 135.988  0.00  0.00    +0.000 OA
ATOM     26  C   UNL     1     108.653 130.818 135.405  0.00  0.00    +0.000 C 
ATOM     27  C   UNL     1     108.898 130.035 135.489  0.00  0.00    +0.000 C 
ATOM     28  C   UNL     1     108.456 131.263 136.072  0.00  0.00    +0.000 C 
ATOM     29  C   UNL     1     108.946 129.696 136.240  0.00  0.00    +0.000 C 
ATOM     30  C   UNL     1     108.503 130.924 136.822  0.00  0.00    +0.000 C 
ATOM     31  C   UNL     1     109.191 128.913 136.325  0.00  0.00    +0.000 C 
ENDBRANCH  21  30
ENDBRANCH  10  21
ENDBRANCH   1   5
BRANCH   1  39
ATOM     32  O   UNL     1     111.581 129.935 140.937  0.00  0.00    +0.000 OA
ATOM     33  O   UNL     1     113.249 131.208 142.250  0.00  0.00    +0.000 OA
ATOM     34  O   UNL     1     113.743 130.009 141.230  0.00  0.00    +0.000 OA
ATOM     35  C   UNL     1     111.890 130.959 141.885  0.00  0.00    +0.000 C 
ATOM     36  C   UNL     1     112.693 130.784 141.812  0.00  0.00    +0.000 C 
ATOM     37  C   UNL     1     112.939 130.184 141.302  0.00  0.00    +0.000 C 
ATOM     38  C   UNL     1     112.384 129.760 140.865  0.00  0.00    +0.000 C 
ATOM     39  C   UNL     1     111.334 130.534 141.447  0.00  0.00    +0.000 C 
BRANCH  35  40
ATOM     40  O   UNL     1     111.643 131.558 142.395  0.00  0.00    +0.000 OA
BRANCH  40  45
ATOM     41  O   UNL     1     111.683 130.658 143.502  0.00  0.00    +0.000 OA
ATOM     42  O   UNL     1     111.474 132.829 143.434  0.00  0.00    +0.000 OA
ATOM     43  O   UNL     1     111.429 132.562 145.062  0.00  0.00    +0.000 OA
ATOM     44  O   UNL     1     111.554 131.026 145.650  0.00  0.00    +0.000 OA
ATOM     45  C   UNL     1     111.621 131.425 143.209  0.00  0.00    +0.000 C 
ATOM     46  C   UNL     1     111.536 132.061 143.728  0.00  0.00    +0.000 C 
ATOM     47  C   UNL     1     111.514 131.928 144.542  0.00  0.00    +0.000 C 
ATOM     48  C   UNL     1     111.577 131.159 144.836  0.00  0.00    +0.000 C 
ATOM     49  C   UNL     1     111.661 130.524 144.316  0.00  0.00    +0.000 C 
ATOM     50  C   UNL     1     111.724 129.755 144.611  0.00  0.00    +0.000 C 
ENDBRANCH  40  45
ENDBRANCH  35  40
BRANCH  38  51
ATOM     51  C   UNL     1     112.631 129.160 140.355  0.00  0.00    +0.000 C 
BRANCH  51  52
ATOM     52  O   UNL     1     112.398 129.168 139.564  0.00  0.00    +0.000 OA
BRANCH  52  57
ATOM     53  O   UNL     1     112.869 127.829 139.393  0.00  0.00    +0.000 OA
ATOM     54  O   UNL     1     112.217 129.313 137.931  0.00  0.00    +0.000 OA
ATOM     55  O   UNL     1     112.597 128.047 136.943  0.00  0.00    +0.000 OA
ATOM     56  O   UNL     1     113.159 126.636 137.589  0.00  0.00    +0.000 OA
ATOM     57  C   UNL     1     112.588 128.534 139.071  0.00  0.00    +0.000 C 
ATOM     58  C   UNL     1     112.498 128.607 138.254  0.00  0.00    +0.000 C 
ATOM     59  C   UNL     1     112.688 127.974 137.760  0.00  0.00    +0.000 C 
ATOM     60  C   UNL     1     112.968 127.269 138.083  0.00  0.00    +0.000 C 
ATOM     61  C   UNL     1     113.059 127.197 138.900  0.00  0.00    +0.000 C 
ATOM     62  C   UNL     1     113.340 126.491 139.223  0.00  0.00    +0.000 C 
ENDBRANCH  52  57
ENDBRANCH  51  52
ENDBRANCH  38  51
ENDBRANCH   1  39
TORSDOF 10
ENDMDL
MODEL 9
REMARK VINA RESULT:     -11.4      3.541      7.059
REMARK  Name = 44259005
REMARK  10 active torsions:
REMARK  status: ('A' for Active; 'I' for Inactive)
REMARK    1  A    between atoms: O_1  and  C_24
REMARK    2  A    between atoms: O_1  and  C_29
REMARK    3  A    between atoms: O_4  and  C_33
REMARK    4  A    between atoms: O_4  and  C_35
REMARK    5  A    between atoms: O_6  and  C_28
REMARK    6  A    between atoms: O_6  and  C_42
REMARK    7  A    between atoms: O_16  and  C_47
REMARK    8  A    between atoms: O_16  and  C_53
REMARK    9  A    between atoms: C_27  and  C_33
REMARK   10  A    between atoms: C_48  and  C_54
REMARK                            x       y       z     vdW  Elec       q    Type
REMARK                         _______ _______ _______ _____ _____    ______ ____
ROOT
ATOM      1  O   UNL     1     111.577 130.144 141.169  0.00  0.00    +0.000 OA
ENDROOT
BRANCH   1   5
ATOM      2  O   UNL     1     111.643 129.861 143.333  0.00  0.00    +0.000 OA
ATOM      3  O   UNL     1     111.667 131.708 141.685  0.00  0.00    +0.000 OA
ATOM      4  O   UNL     1     111.750 132.688 142.741  0.00  0.00    +0.000 OA
ATOM      5  C   UNL     1     111.614 130.310 141.976  0.00  0.00    +0.000 A 
ATOM      6  C   UNL     1     111.606 129.695 142.526  0.00  0.00    +0.000 A 
ATOM      7  C   UNL     1     111.659 131.093 142.235  0.00  0.00    +0.000 A 
ATOM      8  C   UNL     1     111.696 131.259 143.042  0.00  0.00    +0.000 A 
ATOM      9  C   UNL     1     111.688 130.644 143.590  0.00  0.00    +0.000 A 
ATOM     10  C   UNL     1     111.773 131.618 144.709  0.00  0.00    +0.000 A 
ATOM     11  C   UNL     1     111.726 130.805 144.435  0.00  0.00    +0.000 A 
ATOM     12  C   UNL     1     111.742 132.079 143.297  0.00  0.00    +0.000 A 
ATOM     13  C   UNL     1     111.781 132.259 144.136  0.00  0.00    +0.000 A 
BRANCH   6  15
ATOM     14  O   UNL     1     111.430 126.566 141.492  0.00  0.00    +0.000 OA
ATOM     15  C   UNL     1     111.562 128.913 142.268  0.00  0.00    +0.000 A 
ATOM     16  C   UNL     1     110.835 128.521 142.259  0.00  0.00    +0.000 A 
ATOM     17  C   UNL     1     112.244 128.521 142.018  0.00  0.00    +0.000 A 
ATOM     18  C   UNL     1     110.792 127.739 142.000  0.00  0.00    +0.000 A 
ATOM     19  C   UNL     1     112.200 127.739 141.759  0.00  0.00    +0.000 A 
ATOM     20  C   UNL     1     111.473 127.348 141.751  0.00  0.00    +0.000 A 
ENDBRANCH   6  15
BRANCH  10  21
ATOM     21  O   UNL     1     111.810 131.782 145.517  0.00  0.00    +0.000 OA
BRANCH  21  30
ATOM     22  O   UNL     1     110.409 131.987 145.704  0.00  0.00    +0.000 OA
ATOM     23  O   UNL     1     110.890 133.771 147.351  0.00  0.00    +0.000 OA
ATOM     24  O   UNL     1     109.328 133.382 146.990  0.00  0.00    +0.000 OA
ATOM     25  O   UNL     1     112.131 132.970 146.614  0.00  0.00    +0.000 OA
ATOM     26  C   UNL     1     110.729 133.176 146.802  0.00  0.00    +0.000 C 
ATOM     27  C   UNL     1     109.948 132.982 146.621  0.00  0.00    +0.000 C 
ATOM     28  C   UNL     1     111.350 132.776 146.434  0.00  0.00    +0.000 C 
ATOM     29  C   UNL     1     109.787 132.387 146.072  0.00  0.00    +0.000 C 
ATOM     30  C   UNL     1     111.190 132.182 145.885  0.00  0.00    +0.000 C 
ATOM     31  C   UNL     1     109.006 132.192 145.891  0.00  0.00    +0.000 C 
ENDBRANCH  21  30
ENDBRANCH  10  21
ENDBRANCH   1   5
BRANCH   1  39
ATOM     32  O   UNL     1     110.215 130.532 140.983  0.00  0.00    +0.000 OA
ATOM     33  O   UNL     1     110.777 131.431 138.746  0.00  0.00    +0.000 OA
ATOM     34  O   UNL     1     109.227 131.520 139.306  0.00  0.00    +0.000 OA
ATOM     35  C   UNL     1     111.178 130.787 139.958  0.00  0.00    +0.000 C 
ATOM     36  C   UNL     1     110.590 131.132 139.492  0.00  0.00    +0.000 C 
ATOM     37  C   UNL     1     109.815 131.176 139.772  0.00  0.00    +0.000 C 
ATOM     38  C   UNL     1     109.628 130.876 140.517  0.00  0.00    +0.000 C 
ATOM     39  C   UNL     1     110.990 130.487 140.704  0.00  0.00    +0.000 C 
BRANCH  35  40
ATOM     40  O   UNL     1     111.952 130.743 139.678  0.00  0.00    +0.000 OA
BRANCH  40  45
ATOM     41  O   UNL     1     111.631 129.563 138.941  0.00  0.00    +0.000 OA
ATOM     42  O   UNL     1     113.420 130.812 138.927  0.00  0.00    +0.000 OA
ATOM     43  O   UNL     1     113.832 129.667 137.814  0.00  0.00    +0.000 OA
ATOM     44  O   UNL     1     112.776 128.451 137.451  0.00  0.00    +0.000 OA
ATOM     45  C   UNL     1     112.158 130.170 139.121  0.00  0.00    +0.000 C 
ATOM     46  C   UNL     1     112.892 130.205 138.746  0.00  0.00    +0.000 C 
ATOM     47  C   UNL     1     113.098 129.632 138.189  0.00  0.00    +0.000 C 
ATOM     48  C   UNL     1     112.570 129.024 138.008  0.00  0.00    +0.000 C 
ATOM     49  C   UNL     1     111.837 128.990 138.384  0.00  0.00    +0.000 C 
ATOM     50  C   UNL     1     111.308 128.382 138.202  0.00  0.00    +0.000 C 
ENDBRANCH  40  45
ENDBRANCH  35  40
BRANCH  38  51
ATOM     51  C   UNL     1     108.852 130.921 140.796  0.00  0.00    +0.000 C 
BRANCH  51  52
ATOM     52  O   UNL     1     108.488 130.252 141.112  0.00  0.00    +0.000 OA
BRANCH  52  57
ATOM     53  O   UNL     1     107.546 130.977 141.906  0.00  0.00    +0.000 OA
ATOM     54  O   UNL     1     107.384 129.044 140.905  0.00  0.00    +0.000 OA
ATOM     55  O   UNL     1     105.890 129.164 141.595  0.00  0.00    +0.000 OA
ATOM     56  O   UNL     1     105.500 130.493 142.493  0.00  0.00    +0.000 OA
ATOM     57  C   UNL     1     107.741 130.313 141.458  0.00  0.00    +0.000 C 
ATOM     58  C   UNL     1     107.189 129.709 141.354  0.00  0.00    +0.000 C 
ATOM     59  C   UNL     1     106.442 129.769 141.699  0.00  0.00    +0.000 C 
ATOM     60  C   UNL     1     106.248 130.433 142.148  0.00  0.00    +0.000 C 
ATOM     61  C   UNL     1     106.800 131.037 142.251  0.00  0.00    +0.000 C 
ATOM     62  C   UNL     1     106.605 131.701 142.700  0.00  0.00    +0.000 C 
ENDBRANCH  52  57
ENDBRANCH  51  52
ENDBRANCH  38  51
ENDBRANCH   1  39
TORSDOF 10
ENDMDL
MODEL 10
REMARK VINA RESULT:     -11.4      1.854      5.836
REMARK  Name = 44259005
REMARK  10 active torsions:
REMARK  status: ('A' for Active; 'I' for Inactive)
REMARK    1  A    between atoms: O_1  and  C_24
REMARK    2  A    between atoms: O_1  and  C_29
REMARK    3  A    between atoms: O_4  and  C_33
REMARK    4  A    between atoms: O_4  and  C_35
REMARK    5  A    between atoms: O_6  and  C_28
REMARK    6  A    between atoms: O_6  and  C_42
REMARK    7  A    between atoms: O_16  and  C_47
REMARK    8  A    between atoms: O_16  and  C_53
REMARK    9  A    between atoms: C_27  and  C_33
REMARK   10  A    between atoms: C_48  and  C_54
REMARK                            x       y       z     vdW  Elec       q    Type
REMARK                         _______ _______ _______ _____ _____    ______ ____
ROOT
ATOM      1  O   UNL     1     110.658 129.321 138.092  0.00  0.00    +0.000 OA
ENDROOT
BRANCH   1   5
ATOM      2  O   UNL     1     112.099 129.700 139.688  0.00  0.00    +0.000 OA
ATOM      3  O   UNL     1     109.946 128.526 139.351  0.00  0.00    +0.000 OA
ATOM      4  O   UNL     1     109.926 128.105 140.731  0.00  0.00    +0.000 OA
ATOM      5  C   UNL     1     111.019 129.315 138.834  0.00  0.00    +0.000 A 
ATOM      6  C   UNL     1     111.738 129.707 138.947  0.00  0.00    +0.000 A 
ATOM      7  C   UNL     1     110.664 128.918 139.463  0.00  0.00    +0.000 A 
ATOM      8  C   UNL     1     111.025 128.912 140.205  0.00  0.00    +0.000 A 
ATOM      9  C   UNL     1     111.742 129.303 140.317  0.00  0.00    +0.000 A 
ATOM     10  C   UNL     1     111.763 128.892 141.744  0.00  0.00    +0.000 A 
ATOM     11  C   UNL     1     112.129 129.304 141.085  0.00  0.00    +0.000 A 
ATOM     12  C   UNL     1     110.644 128.494 140.852  0.00  0.00    +0.000 A 
ATOM     13  C   UNL     1     111.015 128.484 141.627  0.00  0.00    +0.000 A 
BRANCH   6  15
ATOM     14  O   UNL     1     113.162 131.293 136.428  0.00  0.00    +0.000 OA
ATOM     15  C   UNL     1     112.093 130.104 138.317  0.00  0.00    +0.000 A 
ATOM     16  C   UNL     1     111.852 130.868 138.122  0.00  0.00    +0.000 A 
ATOM     17  C   UNL     1     112.691 129.736 137.883  0.00  0.00    +0.000 A 
ATOM     18  C   UNL     1     112.209 131.264 137.492  0.00  0.00    +0.000 A 
ATOM     19  C   UNL     1     113.047 130.133 137.254  0.00  0.00    +0.000 A 
ATOM     20  C   UNL     1     112.806 130.897 137.058  0.00  0.00    +0.000 A 
ENDBRANCH   6  15
BRANCH  10  21
ATOM     21  O   UNL     1     112.126 128.887 142.485  0.00  0.00    +0.000 OA
BRANCH  21  30
ATOM     22  O   UNL     1     111.954 130.259 142.846  0.00  0.00    +0.000 OA
ATOM     23  O   UNL     1     111.279 129.575 145.126  0.00  0.00    +0.000 OA
ATOM     24  O   UNL     1     111.331 131.175 144.727  0.00  0.00    +0.000 OA
ATOM     25  O   UNL     1     111.676 128.432 144.005  0.00  0.00    +0.000 OA
ATOM     26  C   UNL     1     111.504 129.803 144.366  0.00  0.00    +0.000 C 
ATOM     27  C   UNL     1     111.530 130.603 144.166  0.00  0.00    +0.000 C 
ATOM     28  C   UNL     1     111.703 129.232 143.805  0.00  0.00    +0.000 C 
ATOM     29  C   UNL     1     111.755 130.832 143.406  0.00  0.00    +0.000 C 
ATOM     30  C   UNL     1     111.928 129.459 143.045  0.00  0.00    +0.000 C 
ATOM     31  C   UNL     1     111.781 131.631 143.205  0.00  0.00    +0.000 C 
ENDBRANCH  21  30
ENDBRANCH  10  21
ENDBRANCH   1   5
BRANCH   1  39
ATOM     32  O   UNL     1     110.935 127.957 137.768  0.00  0.00    +0.000 OA
ATOM     33  O   UNL     1     108.753 127.790 136.611  0.00  0.00    +0.000 OA
ATOM     34  O   UNL     1     109.758 126.482 136.672  0.00  0.00    +0.000 OA
ATOM     35  C   UNL     1     109.706 128.556 137.352  0.00  0.00    +0.000 C 
ATOM     36  C   UNL     1     109.481 127.846 136.997  0.00  0.00    +0.000 C 
ATOM     37  C   UNL     1     109.983 127.192 137.028  0.00  0.00    +0.000 C 
ATOM     38  C   UNL     1     110.710 127.248 137.413  0.00  0.00    +0.000 C 
ATOM     39  C   UNL     1     110.433 128.612 137.738  0.00  0.00    +0.000 C 
BRANCH  35  40
ATOM     40  O   UNL     1     109.204 129.209 137.322  0.00  0.00    +0.000 OA
BRANCH  40  45
ATOM     41  O   UNL     1     109.665 129.504 136.002  0.00  0.00    +0.000 OA
ATOM     42  O   UNL     1     108.180 130.502 137.252  0.00  0.00    +0.000 OA
ATOM     43  O   UNL     1     108.130 131.443 135.898  0.00  0.00    +0.000 OA
ATOM     44  O   UNL     1     109.103 131.091 134.612  0.00  0.00    +0.000 OA
ATOM     45  C   UNL     1     109.178 129.680 136.644  0.00  0.00    +0.000 C 
ATOM     46  C   UNL     1     108.667 130.326 136.610  0.00  0.00    +0.000 C 
ATOM     47  C   UNL     1     108.642 130.796 135.933  0.00  0.00    +0.000 C 
ATOM     48  C   UNL     1     109.128 130.620 135.290  0.00  0.00    +0.000 C 
ATOM     49  C   UNL     1     109.640 129.974 135.325  0.00  0.00    +0.000 C 
ATOM     50  C   UNL     1     110.126 129.798 134.682  0.00  0.00    +0.000 C 
ENDBRANCH  40  45
ENDBRANCH  35  40
BRANCH  38  51
ATOM     51  C   UNL     1     111.212 126.594 137.443  0.00  0.00    +0.000 C 
BRANCH  51  52
ATOM     52  O   UNL     1     112.029 126.701 137.472  0.00  0.00    +0.000 OA
BRANCH  52  57
ATOM     53  O   UNL     1     112.295 125.369 137.026  0.00  0.00    +0.000 OA
ATOM     54  O   UNL     1     113.516 126.758 138.185  0.00  0.00    +0.000 OA
ATOM     55  O   UNL     1     114.525 125.456 138.096  0.00  0.00    +0.000 OA
ATOM     56  O   UNL     1     114.047 124.095 137.294  0.00  0.00    +0.000 OA
ATOM     57  C   UNL     1     112.533 126.049 137.427  0.00  0.00    +0.000 C 
ATOM     58  C   UNL     1     113.276 126.078 137.784  0.00  0.00    +0.000 C 
ATOM     59  C   UNL     1     113.781 125.427 137.740  0.00  0.00    +0.000 C 
ATOM     60  C   UNL     1     113.542 124.747 137.338  0.00  0.00    +0.000 C 
ATOM     61  C   UNL     1     112.799 124.718 136.982  0.00  0.00    +0.000 C 
ATOM     62  C   UNL     1     112.560 124.038 136.581  0.00  0.00    +0.000 C 
ENDBRANCH  52  57
ENDBRANCH  51  52
ENDBRANCH  38  51
ENDBRANCH   1  39
TORSDOF 10
ENDMDL
