MODEL 1
REMARK VINA RESULT:     -10.6      0.000      0.000
REMARK  Name = 44257935
REMARK  5 active torsions:
REMARK  status: ('A' for Active; 'I' for Inactive)
REMARK    1  A    between atoms: O_2  and  C_17
REMARK    2  A    between atoms: O_2  and  C_22
REMARK    3  A    between atoms: C_21  and  C_27
REMARK    4  A    between atoms: C_26  and  C_28
REMARK    5  A    between atoms: C_36  and  C_37
REMARK                            x       y       z     vdW  Elec       q    Type
REMARK                         _______ _______ _______ _____ _____    ______ ____
ROOT
ATOM      1  O   UNL     1     111.883 130.855 141.594  0.00  0.00    +0.000 OA
ATOM      2  O   UNL     1     110.777 130.574 139.733  0.00  0.00    +0.000 OA
ATOM      3  O   UNL     1     109.540 130.831 140.794  0.00  0.00    +0.000 OA
ATOM      4  O   UNL     1     109.865 131.105 142.389  0.00  0.00    +0.000 OA
ATOM      5  C   UNL     1     111.720 130.719 140.796  0.00  0.00    +0.000 C 
ATOM      6  C   UNL     1     110.939 130.711 140.531  0.00  0.00    +0.000 C 
ATOM      7  C   UNL     1     110.321 130.839 141.061  0.00  0.00    +0.000 C 
ATOM      8  C   UNL     1     110.484 130.976 141.858  0.00  0.00    +0.000 C 
ATOM      9  C   UNL     1     111.264 130.984 142.125  0.00  0.00    +0.000 C 
ENDROOT
BRANCH   9  14
ATOM     10  O   UNL     1     111.655 132.503 142.639  0.00  0.00    +0.000 OA
ATOM     11  O   UNL     1     111.199 129.739 143.206  0.00  0.00    +0.000 OA
ATOM     12  O   UNL     1     111.920 131.524 145.349  0.00  0.00    +0.000 OA
ATOM     13  O   UNL     1     112.018 133.428 143.683  0.00  0.00    +0.000 OA
ATOM     14  C   UNL     1     111.427 131.120 142.922  0.00  0.00    +0.000 A 
ATOM     15  C   UNL     1     111.622 131.880 143.178  0.00  0.00    +0.000 A 
ATOM     16  C   UNL     1     111.394 130.498 143.463  0.00  0.00    +0.000 A 
ATOM     17  C   UNL     1     111.785 132.017 143.976  0.00  0.00    +0.000 A 
ATOM     18  C   UNL     1     111.557 130.635 144.259  0.00  0.00    +0.000 A 
ATOM     19  C   UNL     1     111.752 131.394 144.516  0.00  0.00    +0.000 A 
ATOM     20  C   UNL     1     111.988 132.812 144.230  0.00  0.00    +0.000 A 
ATOM     21  C   UNL     1     112.158 132.961 145.060  0.00  0.00    +0.000 A 
ATOM     22  C   UNL     1     112.124 132.312 145.623  0.00  0.00    +0.000 A 
BRANCH  22  25
ATOM     23  O   UNL     1     111.383 133.435 148.145  0.00  0.00    +0.000 OA
ATOM     24  O   UNL     1     112.772 132.849 148.814  0.00  0.00    +0.000 OA
ATOM     25  C   UNL     1     112.286 132.446 146.421  0.00  0.00    +0.000 A 
ATOM     26  C   UNL     1     111.753 132.874 146.884  0.00  0.00    +0.000 A 
ATOM     27  C   UNL     1     112.981 132.153 146.756  0.00  0.00    +0.000 A 
ATOM     28  C   UNL     1     111.915 133.008 147.682  0.00  0.00    +0.000 A 
ATOM     29  C   UNL     1     113.142 132.288 147.553  0.00  0.00    +0.000 A 
ATOM     30  C   UNL     1     112.610 132.715 148.016  0.00  0.00    +0.000 A 
ENDBRANCH  22  25
ENDBRANCH   9  14
BRANCH   5  31
ATOM     31  O   UNL     1     112.338 130.590 140.265  0.00  0.00    +0.000 OA
BRANCH  31  36
ATOM     32  O   UNL     1     112.667 129.228 140.547  0.00  0.00    +0.000 OA
ATOM     33  O   UNL     1     113.938 130.989 140.331  0.00  0.00    +0.000 OA
ATOM     34  O   UNL     1     115.066 129.827 140.645  0.00  0.00    +0.000 OA
ATOM     35  O   UNL     1     114.595 128.266 140.893  0.00  0.00    +0.000 OA
ATOM     36  C   UNL     1     112.902 130.009 140.422  0.00  0.00    +0.000 C 
ATOM     37  C   UNL     1     113.702 130.209 140.455  0.00  0.00    +0.000 C 
ATOM     38  C   UNL     1     114.266 129.627 140.612  0.00  0.00    +0.000 C 
ATOM     39  C   UNL     1     114.030 128.847 140.736  0.00  0.00    +0.000 C 
ATOM     40  C   UNL     1     113.230 128.647 140.704  0.00  0.00    +0.000 C 
BRANCH  40  42
ATOM     41  O   UNL     1     112.357 127.555 140.407  0.00  0.00    +0.000 OA
ATOM     42  C   UNL     1     112.995 127.867 140.828  0.00  0.00    +0.000 C 
ENDBRANCH  40  42
ENDBRANCH  31  36
ENDBRANCH   5  31
TORSDOF 5
ENDMDL
MODEL 2
REMARK VINA RESULT:     -10.6      4.607      7.949
REMARK  Name = 44257935
REMARK  5 active torsions:
REMARK  status: ('A' for Active; 'I' for Inactive)
REMARK    1  A    between atoms: O_2  and  C_17
REMARK    2  A    between atoms: O_2  and  C_22
REMARK    3  A    between atoms: C_21  and  C_27
REMARK    4  A    between atoms: C_26  and  C_28
REMARK    5  A    between atoms: C_36  and  C_37
REMARK                            x       y       z     vdW  Elec       q    Type
REMARK                         _______ _______ _______ _____ _____    ______ ____
ROOT
ATOM      1  O   UNL     1     109.827 129.939 137.541  0.00  0.00    +0.000 OA
ATOM      2  O   UNL     1     108.144 131.126 136.816  0.00  0.00    +0.000 OA
ATOM      3  O   UNL     1     108.003 129.777 135.876  0.00  0.00    +0.000 OA
ATOM      4  O   UNL     1     109.077 128.536 136.047  0.00  0.00    +0.000 OA
ATOM      5  C   UNL     1     109.289 130.560 137.456  0.00  0.00    +0.000 C 
ATOM      6  C   UNL     1     108.682 130.505 136.901  0.00  0.00    +0.000 C 
ATOM      7  C   UNL     1     108.611 129.830 136.431  0.00  0.00    +0.000 C 
ATOM      8  C   UNL     1     109.148 129.211 136.516  0.00  0.00    +0.000 C 
ATOM      9  C   UNL     1     109.756 129.265 137.071  0.00  0.00    +0.000 C 
ENDROOT
BRANCH   9  14
ATOM     10  O   UNL     1     111.215 129.326 136.303  0.00  0.00    +0.000 OA
ATOM     11  O   UNL     1     109.373 127.963 138.010  0.00  0.00    +0.000 OA
ATOM     12  O   UNL     1     111.921 126.753 137.423  0.00  0.00    +0.000 OA
ATOM     13  O   UNL     1     112.500 128.754 135.984  0.00  0.00    +0.000 OA
ATOM     14  C   UNL     1     110.293 128.645 137.157  0.00  0.00    +0.000 A 
ATOM     15  C   UNL     1     111.023 128.676 136.772  0.00  0.00    +0.000 A 
ATOM     16  C   UNL     1     110.102 127.994 137.626  0.00  0.00    +0.000 A 
ATOM     17  C   UNL     1     111.561 128.055 136.857  0.00  0.00    +0.000 A 
ATOM     18  C   UNL     1     110.639 127.374 137.711  0.00  0.00    +0.000 A 
ATOM     19  C   UNL     1     111.369 127.405 137.327  0.00  0.00    +0.000 A 
ATOM     20  C   UNL     1     112.317 128.100 136.452  0.00  0.00    +0.000 A 
ATOM     21  C   UNL     1     112.882 127.457 136.536  0.00  0.00    +0.000 A 
ATOM     22  C   UNL     1     112.682 126.779 137.026  0.00  0.00    +0.000 A 
BRANCH  22  25
ATOM     23  O   UNL     1     114.838 125.550 138.443  0.00  0.00    +0.000 OA
ATOM     24  O   UNL     1     114.825 124.294 137.374  0.00  0.00    +0.000 OA
ATOM     25  C   UNL     1     113.218 126.157 137.113  0.00  0.00    +0.000 A 
ATOM     26  C   UNL     1     113.760 126.165 137.735  0.00  0.00    +0.000 A 
ATOM     27  C   UNL     1     113.211 125.529 136.578  0.00  0.00    +0.000 A 
ATOM     28  C   UNL     1     114.296 125.543 137.822  0.00  0.00    +0.000 A 
ATOM     29  C   UNL     1     113.747 124.908 136.666  0.00  0.00    +0.000 A 
ATOM     30  C   UNL     1     114.289 124.915 137.287  0.00  0.00    +0.000 A 
ENDBRANCH  22  25
ENDBRANCH   9  14
BRANCH   5  31
ATOM     31  O   UNL     1     109.360 131.234 137.926  0.00  0.00    +0.000 OA
BRANCH  31  36
ATOM     32  O   UNL     1     108.882 130.760 139.186  0.00  0.00    +0.000 OA
ATOM     33  O   UNL     1     110.679 131.887 138.672  0.00  0.00    +0.000 OA
ATOM     34  O   UNL     1     110.860 131.739 140.305  0.00  0.00    +0.000 OA
ATOM     35  O   UNL     1     109.723 130.939 141.192  0.00  0.00    +0.000 OA
ATOM     36  C   UNL     1     109.450 131.160 138.742  0.00  0.00    +0.000 C 
ATOM     37  C   UNL     1     110.110 131.487 139.115  0.00  0.00    +0.000 C 
ATOM     38  C   UNL     1     110.201 131.413 139.932  0.00  0.00    +0.000 C 
ATOM     39  C   UNL     1     109.632 131.012 140.375  0.00  0.00    +0.000 C 
ATOM     40  C   UNL     1     108.972 130.686 140.002  0.00  0.00    +0.000 C 
BRANCH  40  42
ATOM     41  O   UNL     1     107.603 130.375 140.269  0.00  0.00    +0.000 OA
ATOM     42  C   UNL     1     108.404 130.286 140.446  0.00  0.00    +0.000 C 
ENDBRANCH  40  42
ENDBRANCH  31  36
ENDBRANCH   5  31
TORSDOF 5
ENDMDL
MODEL 3
REMARK VINA RESULT:     -10.5      5.249      8.397
REMARK  Name = 44257935
REMARK  5 active torsions:
REMARK  status: ('A' for Active; 'I' for Inactive)
REMARK    1  A    between atoms: O_2  and  C_17
REMARK    2  A    between atoms: O_2  and  C_22
REMARK    3  A    between atoms: C_21  and  C_27
REMARK    4  A    between atoms: C_26  and  C_28
REMARK    5  A    between atoms: C_36  and  C_37
REMARK                            x       y       z     vdW  Elec       q    Type
REMARK                         _______ _______ _______ _____ _____    ______ ____
ROOT
ATOM      1  O   UNL     1     109.562 129.509 137.052  0.00  0.00    +0.000 OA
ATOM      2  O   UNL     1     107.950 130.648 136.118  0.00  0.00    +0.000 OA
ATOM      3  O   UNL     1     108.667 129.978 134.792  0.00  0.00    +0.000 OA
ATOM      4  O   UNL     1     109.980 128.995 134.972  0.00  0.00    +0.000 OA
ATOM      5  C   UNL     1     108.905 130.001 136.962  0.00  0.00    +0.000 C 
ATOM      6  C   UNL     1     108.607 130.156 136.208  0.00  0.00    +0.000 C 
ATOM      7  C   UNL     1     108.966 129.821 135.545  0.00  0.00    +0.000 C 
ATOM      8  C   UNL     1     109.622 129.330 135.636  0.00  0.00    +0.000 C 
ATOM      9  C   UNL     1     109.920 129.174 136.389  0.00  0.00    +0.000 C 
ENDROOT
BRANCH   9  14
ATOM     10  O   UNL     1     109.714 127.588 136.794  0.00  0.00    +0.000 OA
ATOM     11  O   UNL     1     111.440 129.777 136.164  0.00  0.00    +0.000 OA
ATOM     12  O   UNL     1     112.581 127.198 136.751  0.00  0.00    +0.000 OA
ATOM     13  O   UNL     1     110.246 126.281 137.094  0.00  0.00    +0.000 OA
ATOM     14  C   UNL     1     110.577 128.683 136.479  0.00  0.00    +0.000 A 
ATOM     15  C   UNL     1     110.473 127.890 136.682  0.00  0.00    +0.000 A 
ATOM     16  C   UNL     1     111.337 128.984 136.367  0.00  0.00    +0.000 A 
ATOM     17  C   UNL     1     111.130 127.398 136.772  0.00  0.00    +0.000 A 
ATOM     18  C   UNL     1     111.993 128.493 136.457  0.00  0.00    +0.000 A 
ATOM     19  C   UNL     1     111.890 127.700 136.660  0.00  0.00    +0.000 A 
ATOM     20  C   UNL     1     111.009 126.574 136.983  0.00  0.00    +0.000 A 
ATOM     21  C   UNL     1     111.689 126.057 137.079  0.00  0.00    +0.000 A 
ATOM     22  C   UNL     1     112.481 126.371 136.962  0.00  0.00    +0.000 A 
BRANCH  22  25
ATOM     23  O   UNL     1     114.772 125.556 138.464  0.00  0.00    +0.000 OA
ATOM     24  O   UNL     1     115.114 124.415 137.322  0.00  0.00    +0.000 OA
ATOM     25  C   UNL     1     113.139 125.882 137.052  0.00  0.00    +0.000 A 
ATOM     26  C   UNL     1     113.626 125.964 137.714  0.00  0.00    +0.000 A 
ATOM     27  C   UNL     1     113.311 125.312 136.481  0.00  0.00    +0.000 A 
ATOM     28  C   UNL     1     114.285 125.475 137.803  0.00  0.00    +0.000 A 
ATOM     29  C   UNL     1     113.969 124.823 136.571  0.00  0.00    +0.000 A 
ATOM     30  C   UNL     1     114.456 124.904 137.232  0.00  0.00    +0.000 A 
ENDBRANCH  22  25
ENDBRANCH   9  14
BRANCH   5  31
ATOM     31  O   UNL     1     108.546 130.336 137.625  0.00  0.00    +0.000 OA
BRANCH  31  36
ATOM     32  O   UNL     1     109.416 131.443 137.868  0.00  0.00    +0.000 OA
ATOM     33  O   UNL     1     108.587 129.951 139.229  0.00  0.00    +0.000 OA
ATOM     34  O   UNL     1     109.477 130.866 140.274  0.00  0.00    +0.000 OA
ATOM     35  O   UNL     1     110.327 132.165 139.715  0.00  0.00    +0.000 OA
ATOM     36  C   UNL     1     108.991 130.793 138.147  0.00  0.00    +0.000 C 
ATOM     37  C   UNL     1     109.011 130.601 138.949  0.00  0.00    +0.000 C 
ATOM     38  C   UNL     1     109.457 131.058 139.472  0.00  0.00    +0.000 C 
ATOM     39  C   UNL     1     109.882 131.708 139.192  0.00  0.00    +0.000 C 
ATOM     40  C   UNL     1     109.861 131.900 138.390  0.00  0.00    +0.000 C 
BRANCH  40  42
ATOM     41  O   UNL     1     109.975 133.019 137.509  0.00  0.00    +0.000 OA
ATOM     42  C   UNL     1     110.286 132.549 138.111  0.00  0.00    +0.000 C 
ENDBRANCH  40  42
ENDBRANCH  31  36
ENDBRANCH   5  31
TORSDOF 5
ENDMDL
MODEL 4
REMARK VINA RESULT:     -10.5      5.240      7.662
REMARK  Name = 44257935
REMARK  5 active torsions:
REMARK  status: ('A' for Active; 'I' for Inactive)
REMARK    1  A    between atoms: O_2  and  C_17
REMARK    2  A    between atoms: O_2  and  C_22
REMARK    3  A    between atoms: C_21  and  C_27
REMARK    4  A    between atoms: C_26  and  C_28
REMARK    5  A    between atoms: C_36  and  C_37
REMARK                            x       y       z     vdW  Elec       q    Type
REMARK                         _______ _______ _______ _____ _____    ______ ____
ROOT
ATOM      1  O   UNL     1     109.802 130.481 138.671  0.00  0.00    +0.000 OA
ATOM      2  O   UNL     1     108.217 131.291 139.936  0.00  0.00    +0.000 OA
ATOM      3  O   UNL     1     108.184 129.701 140.375  0.00  0.00    +0.000 OA
ATOM      4  O   UNL     1     109.229 128.631 139.678  0.00  0.00    +0.000 OA
ATOM      5  C   UNL     1     109.279 131.016 139.020  0.00  0.00    +0.000 C 
ATOM      6  C   UNL     1     108.740 130.755 139.587  0.00  0.00    +0.000 C 
ATOM      7  C   UNL     1     108.723 129.960 139.807  0.00  0.00    +0.000 C 
ATOM      8  C   UNL     1     109.246 129.426 139.459  0.00  0.00    +0.000 C 
ATOM      9  C   UNL     1     109.785 129.685 138.891  0.00  0.00    +0.000 C 
ENDROOT
BRANCH   9  14
ATOM     10  O   UNL     1     111.344 129.589 139.424  0.00  0.00    +0.000 OA
ATOM     11  O   UNL     1     109.273 128.712 137.661  0.00  0.00    +0.000 OA
ATOM     12  O   UNL     1     111.889 127.520 137.476  0.00  0.00    +0.000 OA
ATOM     13  O   UNL     1     112.666 129.018 139.364  0.00  0.00    +0.000 OA
ATOM     14  C   UNL     1     110.308 129.151 138.543  0.00  0.00    +0.000 A 
ATOM     15  C   UNL     1     111.087 129.103 138.810  0.00  0.00    +0.000 A 
ATOM     16  C   UNL     1     110.052 128.664 137.928  0.00  0.00    +0.000 A 
ATOM     17  C   UNL     1     111.610 128.568 138.461  0.00  0.00    +0.000 A 
ATOM     18  C   UNL     1     110.574 128.130 137.580  0.00  0.00    +0.000 A 
ATOM     19  C   UNL     1     111.354 128.082 137.846  0.00  0.00    +0.000 A 
ATOM     20  C   UNL     1     112.419 128.528 138.749  0.00  0.00    +0.000 A 
ATOM     21  C   UNL     1     112.969 127.973 138.390  0.00  0.00    +0.000 A 
ATOM     22  C   UNL     1     112.702 127.465 137.749  0.00  0.00    +0.000 A 
BRANCH  22  25
ATOM     23  O   UNL     1     114.005 124.922 137.747  0.00  0.00    +0.000 OA
ATOM     24  O   UNL     1     114.785 125.322 136.350  0.00  0.00    +0.000 OA
ATOM     25  C   UNL     1     113.223 126.930 137.399  0.00  0.00    +0.000 A 
ATOM     26  C   UNL     1     113.353 126.193 137.749  0.00  0.00    +0.000 A 
ATOM     27  C   UNL     1     113.613 127.130 136.700  0.00  0.00    +0.000 A 
ATOM     28  C   UNL     1     113.874 125.658 137.399  0.00  0.00    +0.000 A 
ATOM     29  C   UNL     1     114.133 126.594 136.351  0.00  0.00    +0.000 A 
ATOM     30  C   UNL     1     114.264 125.858 136.700  0.00  0.00    +0.000 A 
ENDBRANCH  22  25
ENDBRANCH   9  14
BRANCH   5  31
ATOM     31  O   UNL     1     109.295 131.811 138.800  0.00  0.00    +0.000 OA
BRANCH  31  36
ATOM     32  O   UNL     1     108.698 131.742 137.504  0.00  0.00    +0.000 OA
ATOM     33  O   UNL     1     110.488 132.779 138.199  0.00  0.00    +0.000 OA
ATOM     34  O   UNL     1     110.488 133.194 136.602  0.00  0.00    +0.000 OA
ATOM     35  O   UNL     1     109.295 132.641 135.607  0.00  0.00    +0.000 OA
ATOM     36  C   UNL     1     109.295 132.018 138.002  0.00  0.00    +0.000 C 
ATOM     37  C   UNL     1     109.891 132.502 137.702  0.00  0.00    +0.000 C 
ATOM     38  C   UNL     1     109.891 132.710 136.903  0.00  0.00    +0.000 C 
ATOM     39  C   UNL     1     109.295 132.433 136.405  0.00  0.00    +0.000 C 
ATOM     40  C   UNL     1     108.698 131.949 136.706  0.00  0.00    +0.000 C 
BRANCH  40  42
ATOM     41  O   UNL     1     107.332 131.587 136.493  0.00  0.00    +0.000 OA
ATOM     42  C   UNL     1     108.102 131.673 136.208  0.00  0.00    +0.000 C 
ENDBRANCH  40  42
ENDBRANCH  31  36
ENDBRANCH   5  31
TORSDOF 5
ENDMDL
MODEL 5
REMARK VINA RESULT:     -10.5      6.182      7.226
REMARK  Name = 44257935
REMARK  5 active torsions:
REMARK  status: ('A' for Active; 'I' for Inactive)
REMARK    1  A    between atoms: O_2  and  C_17
REMARK    2  A    between atoms: O_2  and  C_22
REMARK    3  A    between atoms: C_21  and  C_27
REMARK    4  A    between atoms: C_26  and  C_28
REMARK    5  A    between atoms: C_36  and  C_37
REMARK                            x       y       z     vdW  Elec       q    Type
REMARK                         _______ _______ _______ _____ _____    ______ ____
ROOT
ATOM      1  O   UNL     1     106.891 127.460 142.871  0.00  0.00    +0.000 OA
ATOM      2  O   UNL     1     106.058 128.682 141.266  0.00  0.00    +0.000 OA
ATOM      3  O   UNL     1     104.720 128.441 142.200  0.00  0.00    +0.000 OA
ATOM      4  O   UNL     1     104.829 127.546 143.582  0.00  0.00    +0.000 OA
ATOM      5  C   UNL     1     106.836 127.908 142.180  0.00  0.00    +0.000 C 
ATOM      6  C   UNL     1     106.112 128.234 141.957  0.00  0.00    +0.000 C 
ATOM      7  C   UNL     1     105.443 128.114 142.424  0.00  0.00    +0.000 C 
ATOM      8  C   UNL     1     105.498 127.667 143.115  0.00  0.00    +0.000 C 
ATOM      9  C   UNL     1     106.221 127.339 143.339  0.00  0.00    +0.000 C 
ENDROOT
BRANCH   9  14
ATOM     10  O   UNL     1     106.777 128.033 144.729  0.00  0.00    +0.000 OA
ATOM     11  O   UNL     1     105.776 125.750 143.331  0.00  0.00    +0.000 OA
ATOM     12  O   UNL     1     106.439 125.521 146.125  0.00  0.00    +0.000 OA
ATOM     13  O   UNL     1     107.120 127.959 146.128  0.00  0.00    +0.000 OA
ATOM     14  C   UNL     1     106.276 126.892 144.029  0.00  0.00    +0.000 A 
ATOM     15  C   UNL     1     106.554 127.239 144.724  0.00  0.00    +0.000 A 
ATOM     16  C   UNL     1     106.054 126.097 144.026  0.00  0.00    +0.000 A 
ATOM     17  C   UNL     1     106.609 126.791 145.416  0.00  0.00    +0.000 A 
ATOM     18  C   UNL     1     106.109 125.650 144.716  0.00  0.00    +0.000 A 
ATOM     19  C   UNL     1     106.386 125.997 145.411  0.00  0.00    +0.000 A 
ATOM     20  C   UNL     1     106.899 127.165 146.133  0.00  0.00    +0.000 A 
ATOM     21  C   UNL     1     106.959 126.704 146.857  0.00  0.00    +0.000 A 
ATOM     22  C   UNL     1     106.727 125.876 146.852  0.00  0.00    +0.000 A 
BRANCH  22  25
ATOM     23  O   UNL     1     108.310 124.478 148.778  0.00  0.00    +0.000 OA
ATOM     24  O   UNL     1     106.943 124.077 149.610  0.00  0.00    +0.000 OA
ATOM     25  C   UNL     1     106.781 125.426 147.542  0.00  0.00    +0.000 A 
ATOM     26  C   UNL     1     107.519 125.177 147.815  0.00  0.00    +0.000 A 
ATOM     27  C   UNL     1     106.097 125.225 147.958  0.00  0.00    +0.000 A 
ATOM     28  C   UNL     1     107.573 124.727 148.504  0.00  0.00    +0.000 A 
ATOM     29  C   UNL     1     106.152 124.776 148.647  0.00  0.00    +0.000 A 
ATOM     30  C   UNL     1     106.889 124.527 148.921  0.00  0.00    +0.000 A 
ENDBRANCH  22  25
ENDBRANCH   9  14
BRANCH   5  31
ATOM     31  O   UNL     1     107.505 128.028 141.713  0.00  0.00    +0.000 OA
BRANCH  31  36
ATOM     32  O   UNL     1     107.697 126.725 141.159  0.00  0.00    +0.000 OA
ATOM     33  O   UNL     1     109.108 128.101 142.098  0.00  0.00    +0.000 OA
ATOM     34  O   UNL     1     110.101 126.834 141.738  0.00  0.00    +0.000 OA
ATOM     35  O   UNL     1     109.492 125.495 140.992  0.00  0.00    +0.000 OA
ATOM     36  C   UNL     1     108.001 127.395 141.532  0.00  0.00    +0.000 C 
ATOM     37  C   UNL     1     108.803 127.431 141.725  0.00  0.00    +0.000 C 
ATOM     38  C   UNL     1     109.300 126.797 141.545  0.00  0.00    +0.000 C 
ATOM     39  C   UNL     1     108.995 126.128 141.172  0.00  0.00    +0.000 C 
ATOM     40  C   UNL     1     108.194 126.091 140.979  0.00  0.00    +0.000 C 
BRANCH  40  42
ATOM     41  O   UNL     1     107.370 125.503 139.971  0.00  0.00    +0.000 OA
ATOM     42  C   UNL     1     107.890 125.422 140.606  0.00  0.00    +0.000 C 
ENDBRANCH  40  42
ENDBRANCH  31  36
ENDBRANCH   5  31
TORSDOF 5
ENDMDL
MODEL 6
REMARK VINA RESULT:     -10.4      3.022      7.375
REMARK  Name = 44257935
REMARK  5 active torsions:
REMARK  status: ('A' for Active; 'I' for Inactive)
REMARK    1  A    between atoms: O_2  and  C_17
REMARK    2  A    between atoms: O_2  and  C_22
REMARK    3  A    between atoms: C_21  and  C_27
REMARK    4  A    between atoms: C_26  and  C_28
REMARK    5  A    between atoms: C_36  and  C_37
REMARK                            x       y       z     vdW  Elec       q    Type
REMARK                         _______ _______ _______ _____ _____    ______ ____
ROOT
ATOM      1  O   UNL     1     113.058 129.639 141.174  0.00  0.00    +0.000 OA
ATOM      2  O   UNL     1     113.836 131.451 142.112  0.00  0.00    +0.000 OA
ATOM      3  O   UNL     1     114.786 131.365 140.766  0.00  0.00    +0.000 OA
ATOM      4  O   UNL     1     114.584 130.128 139.692  0.00  0.00    +0.000 OA
ATOM      5  C   UNL     1     113.159 130.258 141.711  0.00  0.00    +0.000 C 
ATOM      6  C   UNL     1     113.735 130.832 141.575  0.00  0.00    +0.000 C 
ATOM      7  C   UNL     1     114.210 130.789 140.901  0.00  0.00    +0.000 C 
ATOM      8  C   UNL     1     114.109 130.171 140.365  0.00  0.00    +0.000 C 
ATOM      9  C   UNL     1     113.533 129.596 140.501  0.00  0.00    +0.000 C 
ENDROOT
BRANCH   9  14
ATOM     10  O   UNL     1     114.192 128.116 140.814  0.00  0.00    +0.000 OA
ATOM     11  O   UNL     1     112.673 129.839 139.114  0.00  0.00    +0.000 OA
ATOM     12  O   UNL     1     113.119 127.104 138.324  0.00  0.00    +0.000 OA
ATOM     13  O   UNL     1     114.438 126.741 140.455  0.00  0.00    +0.000 OA
ATOM     14  C   UNL     1     113.433 128.978 139.964  0.00  0.00    +0.000 A 
ATOM     15  C   UNL     1     113.762 128.238 140.121  0.00  0.00    +0.000 A 
ATOM     16  C   UNL     1     113.002 129.099 139.271  0.00  0.00    +0.000 A 
ATOM     17  C   UNL     1     113.661 127.619 139.584  0.00  0.00    +0.000 A 
ATOM     18  C   UNL     1     112.902 128.481 138.734  0.00  0.00    +0.000 A 
ATOM     19  C   UNL     1     113.231 127.741 138.891  0.00  0.00    +0.000 A 
ATOM     20  C   UNL     1     114.010 126.853 139.760  0.00  0.00    +0.000 A 
ATOM     21  C   UNL     1     113.908 126.205 139.205  0.00  0.00    +0.000 A 
ATOM     22  C   UNL     1     113.460 126.331 138.482  0.00  0.00    +0.000 A 
BRANCH  22  25
ATOM     23  O   UNL     1     111.773 124.394 137.229  0.00  0.00    +0.000 OA
ATOM     24  O   UNL     1     113.050 123.864 136.328  0.00  0.00    +0.000 OA
ATOM     25  C   UNL     1     113.357 125.714 137.943  0.00  0.00    +0.000 A 
ATOM     26  C   UNL     1     112.616 125.363 137.856  0.00  0.00    +0.000 A 
ATOM     27  C   UNL     1     113.996 125.450 137.493  0.00  0.00    +0.000 A 
ATOM     28  C   UNL     1     112.513 124.746 137.317  0.00  0.00    +0.000 A 
ATOM     29  C   UNL     1     113.893 124.833 136.955  0.00  0.00    +0.000 A 
ATOM     30  C   UNL     1     113.152 124.481 136.867  0.00  0.00    +0.000 A 
ENDBRANCH  22  25
ENDBRANCH   9  14
BRANCH   5  31
ATOM     31  O   UNL     1     112.684 130.301 142.384  0.00  0.00    +0.000 OA
BRANCH  31  36
ATOM     32  O   UNL     1     111.420 130.661 141.823  0.00  0.00    +0.000 OA
ATOM     33  O   UNL     1     111.955 129.109 143.262  0.00  0.00    +0.000 OA
ATOM     34  O   UNL     1     110.327 128.872 143.139  0.00  0.00    +0.000 OA
ATOM     35  O   UNL     1     109.428 129.827 142.139  0.00  0.00    +0.000 OA
ATOM     36  C   UNL     1     111.871 130.183 142.323  0.00  0.00    +0.000 C 
ATOM     37  C   UNL     1     111.506 129.587 142.762  0.00  0.00    +0.000 C 
ATOM     38  C   UNL     1     110.691 129.468 142.700  0.00  0.00    +0.000 C 
ATOM     39  C   UNL     1     110.242 129.946 142.200  0.00  0.00    +0.000 C 
ATOM     40  C   UNL     1     110.607 130.542 141.761  0.00  0.00    +0.000 C 
BRANCH  40  42
ATOM     41  O   UNL     1     110.460 131.739 140.994  0.00  0.00    +0.000 OA
ATOM     42  C   UNL     1     110.157 131.019 141.261  0.00  0.00    +0.000 C 
ENDBRANCH  40  42
ENDBRANCH  31  36
ENDBRANCH   5  31
TORSDOF 5
ENDMDL
MODEL 7
REMARK VINA RESULT:     -10.4      8.016     10.280
REMARK  Name = 44257935
REMARK  5 active torsions:
REMARK  status: ('A' for Active; 'I' for Inactive)
REMARK    1  A    between atoms: O_2  and  C_17
REMARK    2  A    between atoms: O_2  and  C_22
REMARK    3  A    between atoms: C_21  and  C_27
REMARK    4  A    between atoms: C_26  and  C_28
REMARK    5  A    between atoms: C_36  and  C_37
REMARK                            x       y       z     vdW  Elec       q    Type
REMARK                         _______ _______ _______ _____ _____    ______ ____
ROOT
ATOM      1  O   UNL     1     105.321 125.640 146.747  0.00  0.00    +0.000 OA
ATOM      2  O   UNL     1     106.465 124.239 147.970  0.00  0.00    +0.000 OA
ATOM      3  O   UNL     1     107.681 125.047 147.202  0.00  0.00    +0.000 OA
ATOM      4  O   UNL     1     107.323 126.250 146.131  0.00  0.00    +0.000 OA
ATOM      5  C   UNL     1     105.499 125.037 147.283  0.00  0.00    +0.000 C 
ATOM      6  C   UNL     1     106.286 124.841 147.434  0.00  0.00    +0.000 C 
ATOM      7  C   UNL     1     106.894 125.245 147.050  0.00  0.00    +0.000 C 
ATOM      8  C   UNL     1     106.715 125.846 146.515  0.00  0.00    +0.000 C 
ATOM      9  C   UNL     1     105.929 126.044 146.363  0.00  0.00    +0.000 C 
ENDROOT
BRANCH   9  14
ATOM     10  O   UNL     1     105.826 125.709 144.750  0.00  0.00    +0.000 OA
ATOM     11  O   UNL     1     105.673 127.582 146.904  0.00  0.00    +0.000 OA
ATOM     12  O   UNL     1     105.205 128.483 144.207  0.00  0.00    +0.000 OA
ATOM     13  O   UNL     1     105.599 126.120 143.387  0.00  0.00    +0.000 OA
ATOM     14  C   UNL     1     105.750 126.645 145.828  0.00  0.00    +0.000 A 
ATOM     15  C   UNL     1     105.699 126.477 145.021  0.00  0.00    +0.000 A 
ATOM     16  C   UNL     1     105.622 127.414 146.097  0.00  0.00    +0.000 A 
ATOM     17  C   UNL     1     105.520 127.079 144.485  0.00  0.00    +0.000 A 
ATOM     18  C   UNL     1     105.444 128.015 145.562  0.00  0.00    +0.000 A 
ATOM     19  C   UNL     1     105.392 127.848 144.756  0.00  0.00    +0.000 A 
ATOM     20  C   UNL     1     105.469 126.892 143.648  0.00  0.00    +0.000 A 
ATOM     21  C   UNL     1     105.284 127.514 143.085  0.00  0.00    +0.000 A 
ATOM     22  C   UNL     1     105.151 128.315 143.367  0.00  0.00    +0.000 A 
BRANCH  22  25
ATOM     23  O   UNL     1     106.007 130.302 141.499  0.00  0.00    +0.000 OA
ATOM     24  O   UNL     1     104.436 130.729 141.233  0.00  0.00    +0.000 OA
ATOM     25  C   UNL     1     104.972 128.919 142.833  0.00  0.00    +0.000 A 
ATOM     26  C   UNL     1     105.579 129.308 142.433  0.00  0.00    +0.000 A 
ATOM     27  C   UNL     1     104.186 129.132 142.700  0.00  0.00    +0.000 A 
ATOM     28  C   UNL     1     105.400 129.912 141.899  0.00  0.00    +0.000 A 
ATOM     29  C   UNL     1     104.008 129.735 142.167  0.00  0.00    +0.000 A 
ATOM     30  C   UNL     1     104.615 130.125 141.766  0.00  0.00    +0.000 A 
ENDBRANCH  22  25
ENDBRANCH   9  14
BRANCH   5  31
ATOM     31  O   UNL     1     104.891 124.633 147.667  0.00  0.00    +0.000 OA
BRANCH  31  36
ATOM     32  O   UNL     1     104.320 123.867 146.604  0.00  0.00    +0.000 OA
ATOM     33  O   UNL     1     103.388 125.164 148.092  0.00  0.00    +0.000 OA
ATOM     34  O   UNL     1     102.065 124.663 147.243  0.00  0.00    +0.000 OA
ATOM     35  O   UNL     1     102.246 123.633 145.968  0.00  0.00    +0.000 OA
ATOM     36  C   UNL     1     104.230 124.383 147.242  0.00  0.00    +0.000 C 
ATOM     37  C   UNL     1     103.479 124.648 147.455  0.00  0.00    +0.000 C 
ATOM     38  C   UNL     1     102.817 124.398 147.030  0.00  0.00    +0.000 C 
ATOM     39  C   UNL     1     102.907 123.882 146.393  0.00  0.00    +0.000 C 
ATOM     40  C   UNL     1     103.659 123.617 146.180  0.00  0.00    +0.000 C 
BRANCH  40  42
ATOM     41  O   UNL     1     104.477 122.739 145.404  0.00  0.00    +0.000 OA
ATOM     42  C   UNL     1     103.749 123.102 145.543  0.00  0.00    +0.000 C 
ENDBRANCH  40  42
ENDBRANCH  31  36
ENDBRANCH   5  31
TORSDOF 5
ENDMDL
MODEL 8
REMARK VINA RESULT:     -10.3      3.218      7.428
REMARK  Name = 44257935
REMARK  5 active torsions:
REMARK  status: ('A' for Active; 'I' for Inactive)
REMARK    1  A    between atoms: O_2  and  C_17
REMARK    2  A    between atoms: O_2  and  C_22
REMARK    3  A    between atoms: C_21  and  C_27
REMARK    4  A    between atoms: C_26  and  C_28
REMARK    5  A    between atoms: C_36  and  C_37
REMARK                            x       y       z     vdW  Elec       q    Type
REMARK                         _______ _______ _______ _____ _____    ______ ____
ROOT
ATOM      1  O   UNL     1     111.654 129.830 140.592  0.00  0.00    +0.000 OA
ATOM      2  O   UNL     1     111.838 131.402 142.097  0.00  0.00    +0.000 OA
ATOM      3  O   UNL     1     113.426 131.052 141.815  0.00  0.00    +0.000 OA
ATOM      4  O   UNL     1     113.832 129.889 140.718  0.00  0.00    +0.000 OA
ATOM      5  C   UNL     1     111.451 130.413 141.141  0.00  0.00    +0.000 C 
ATOM      6  C   UNL     1     112.042 130.819 141.548  0.00  0.00    +0.000 C 
ATOM      7  C   UNL     1     112.836 130.645 141.407  0.00  0.00    +0.000 C 
ATOM      8  C   UNL     1     113.039 130.063 140.859  0.00  0.00    +0.000 C 
ATOM      9  C   UNL     1     112.448 129.656 140.451  0.00  0.00    +0.000 C 
ENDROOT
BRANCH   9  14
ATOM     10  O   UNL     1     112.425 128.065 140.889  0.00  0.00    +0.000 OA
ATOM     11  O   UNL     1     112.877 130.082 138.916  0.00  0.00    +0.000 OA
ATOM     12  O   UNL     1     113.271 127.313 138.225  0.00  0.00    +0.000 OA
ATOM     13  O   UNL     1     112.611 126.668 140.583  0.00  0.00    +0.000 OA
ATOM     14  C   UNL     1     112.651 129.074 139.903  0.00  0.00    +0.000 A 
ATOM     15  C   UNL     1     112.640 128.279 140.122  0.00  0.00    +0.000 A 
ATOM     16  C   UNL     1     112.866 129.287 139.135  0.00  0.00    +0.000 A 
ATOM     17  C   UNL     1     112.843 127.697 139.573  0.00  0.00    +0.000 A 
ATOM     18  C   UNL     1     113.069 128.706 138.587  0.00  0.00    +0.000 A 
ATOM     19  C   UNL     1     113.057 127.911 138.806  0.00  0.00    +0.000 A 
ATOM     20  C   UNL     1     112.827 126.872 139.814  0.00  0.00    +0.000 A 
ATOM     21  C   UNL     1     113.037 126.261 139.247  0.00  0.00    +0.000 A 
ATOM     22  C   UNL     1     113.261 126.483 138.447  0.00  0.00    +0.000 A 
BRANCH  22  25
ATOM     23  O   UNL     1     112.550 124.796 136.253  0.00  0.00    +0.000 OA
ATOM     24  O   UNL     1     114.074 124.164 136.245  0.00  0.00    +0.000 OA
ATOM     25  C   UNL     1     113.464 125.903 137.897  0.00  0.00    +0.000 A 
ATOM     26  C   UNL     1     112.905 125.640 137.350  0.00  0.00    +0.000 A 
ATOM     27  C   UNL     1     114.226 125.587 137.893  0.00  0.00    +0.000 A 
ATOM     28  C   UNL     1     113.108 125.060 136.799  0.00  0.00    +0.000 A 
ATOM     29  C   UNL     1     114.429 125.008 137.342  0.00  0.00    +0.000 A 
ATOM     30  C   UNL     1     113.870 124.744 136.796  0.00  0.00    +0.000 A 
ENDBRANCH  22  25
ENDBRANCH   9  14
BRANCH   5  31
ATOM     31  O   UNL     1     110.657 130.587 141.282  0.00  0.00    +0.000 OA
BRANCH  31  36
ATOM     32  O   UNL     1     110.299 131.259 140.072  0.00  0.00    +0.000 OA
ATOM     33  O   UNL     1     109.299 129.658 141.167  0.00  0.00    +0.000 OA
ATOM     34  O   UNL     1     108.262 129.864 139.900  0.00  0.00    +0.000 OA
ATOM     35  O   UNL     1     108.584 131.000 138.749  0.00  0.00    +0.000 OA
ATOM     36  C   UNL     1     110.139 130.691 140.649  0.00  0.00    +0.000 C 
ATOM     37  C   UNL     1     109.460 130.226 140.592  0.00  0.00    +0.000 C 
ATOM     38  C   UNL     1     108.941 130.329 139.958  0.00  0.00    +0.000 C 
ATOM     39  C   UNL     1     109.102 130.898 139.382  0.00  0.00    +0.000 C 
ATOM     40  C   UNL     1     109.782 131.362 139.439  0.00  0.00    +0.000 C 
BRANCH  40  42
ATOM     41  O   UNL     1     110.281 132.652 139.077  0.00  0.00    +0.000 OA
ATOM     42  C   UNL     1     109.942 131.930 138.863  0.00  0.00    +0.000 C 
ENDBRANCH  40  42
ENDBRANCH  31  36
ENDBRANCH   5  31
TORSDOF 5
ENDMDL
MODEL 9
REMARK VINA RESULT:     -10.2      6.998      8.554
REMARK  Name = 44257935
REMARK  5 active torsions:
REMARK  status: ('A' for Active; 'I' for Inactive)
REMARK    1  A    between atoms: O_2  and  C_17
REMARK    2  A    between atoms: O_2  and  C_22
REMARK    3  A    between atoms: C_21  and  C_27
REMARK    4  A    between atoms: C_26  and  C_28
REMARK    5  A    between atoms: C_36  and  C_37
REMARK                            x       y       z     vdW  Elec       q    Type
REMARK                         _______ _______ _______ _____ _____    ______ ____
ROOT
ATOM      1  O   UNL     1     112.484 128.030 136.724  0.00  0.00    +0.000 OA
ATOM      2  O   UNL     1     114.554 127.339 136.662  0.00  0.00    +0.000 OA
ATOM      3  O   UNL     1     114.513 128.320 135.337  0.00  0.00    +0.000 OA
ATOM      4  O   UNL     1     113.120 129.108 134.936  0.00  0.00    +0.000 OA
ATOM      5  C   UNL     1     113.181 127.635 136.925  0.00  0.00    +0.000 C 
ATOM      6  C   UNL     1     113.857 127.733 136.462  0.00  0.00    +0.000 C 
ATOM      7  C   UNL     1     113.837 128.224 135.799  0.00  0.00    +0.000 C 
ATOM      8  C   UNL     1     113.140 128.617 135.599  0.00  0.00    +0.000 C 
ATOM      9  C   UNL     1     112.464 128.520 136.061  0.00  0.00    +0.000 C 
ENDROOT
BRANCH   9  14
ATOM     10  O   UNL     1     112.099 129.964 136.772  0.00  0.00    +0.000 OA
ATOM     11  O   UNL     1     111.435 127.864 134.950  0.00  0.00    +0.000 OA
ATOM     12  O   UNL     1     109.644 130.102 135.245  0.00  0.00    +0.000 OA
ATOM     13  O   UNL     1     111.229 131.101 136.948  0.00  0.00    +0.000 OA
ATOM     14  C   UNL     1     111.767 128.914 135.861  0.00  0.00    +0.000 A 
ATOM     15  C   UNL     1     111.585 129.636 136.217  0.00  0.00    +0.000 A 
ATOM     16  C   UNL     1     111.252 128.586 135.306  0.00  0.00    +0.000 A 
ATOM     17  C   UNL     1     110.887 130.030 136.017  0.00  0.00    +0.000 A 
ATOM     18  C   UNL     1     110.556 128.979 135.106  0.00  0.00    +0.000 A 
ATOM     19  C   UNL     1     110.374 129.701 135.461  0.00  0.00    +0.000 A 
ATOM     20  C   UNL     1     110.709 130.781 136.394  0.00  0.00    +0.000 A 
ATOM     21  C   UNL     1     109.985 131.196 136.190  0.00  0.00    +0.000 A 
ATOM     22  C   UNL     1     109.448 130.854 135.611  0.00  0.00    +0.000 A 
BRANCH  22  25
ATOM     23  O   UNL     1     106.647 131.273 135.990  0.00  0.00    +0.000 OA
ATOM     24  O   UNL     1     106.658 132.420 134.804  0.00  0.00    +0.000 OA
ATOM     25  C   UNL     1     108.751 131.246 135.409  0.00  0.00    +0.000 A 
ATOM     26  C   UNL     1     108.048 131.063 135.801  0.00  0.00    +0.000 A 
ATOM     27  C   UNL     1     108.757 131.820 134.817  0.00  0.00    +0.000 A 
ATOM     28  C   UNL     1     107.350 131.455 135.599  0.00  0.00    +0.000 A 
ATOM     29  C   UNL     1     108.059 132.211 134.615  0.00  0.00    +0.000 A 
ATOM     30  C   UNL     1     107.356 132.029 135.006  0.00  0.00    +0.000 A 
ENDBRANCH  22  25
ENDBRANCH   9  14
BRANCH   5  31
ATOM     31  O   UNL     1     113.202 127.145 137.587  0.00  0.00    +0.000 OA
BRANCH  31  36
ATOM     32  O   UNL     1     112.644 125.949 137.038  0.00  0.00    +0.000 OA
ATOM     33  O   UNL     1     112.236 126.985 138.915  0.00  0.00    +0.000 OA
ATOM     34  O   UNL     1     111.195 125.710 139.030  0.00  0.00    +0.000 OA
ATOM     35  O   UNL     1     111.121 124.595 137.817  0.00  0.00    +0.000 OA
ATOM     36  C   UNL     1     112.682 126.507 137.644  0.00  0.00    +0.000 C 
ATOM     37  C   UNL     1     112.199 126.428 138.308  0.00  0.00    +0.000 C 
ATOM     38  C   UNL     1     111.678 125.790 138.366  0.00  0.00    +0.000 C 
ATOM     39  C   UNL     1     111.641 125.232 137.759  0.00  0.00    +0.000 C 
ATOM     40  C   UNL     1     112.124 125.312 137.095  0.00  0.00    +0.000 C 
BRANCH  40  42
ATOM     41  O   UNL     1     112.781 124.433 136.180  0.00  0.00    +0.000 OA
ATOM     42  C   UNL     1     112.087 124.754 136.489  0.00  0.00    +0.000 C 
ENDBRANCH  40  42
ENDBRANCH  31  36
ENDBRANCH   5  31
TORSDOF 5
ENDMDL
MODEL 10
REMARK VINA RESULT:     -10.2      5.948      8.515
REMARK  Name = 44257935
REMARK  5 active torsions:
REMARK  status: ('A' for Active; 'I' for Inactive)
REMARK    1  A    between atoms: O_2  and  C_17
REMARK    2  A    between atoms: O_2  and  C_22
REMARK    3  A    between atoms: C_21  and  C_27
REMARK    4  A    between atoms: C_26  and  C_28
REMARK    5  A    between atoms: C_36  and  C_37
REMARK                            x       y       z     vdW  Elec       q    Type
REMARK                         _______ _______ _______ _____ _____    ______ ____
ROOT
ATOM      1  O   UNL     1     112.394 127.299 136.895  0.00  0.00    +0.000 OA
ATOM      2  O   UNL     1     114.275 126.203 136.732  0.00  0.00    +0.000 OA
ATOM      3  O   UNL     1     114.576 127.487 135.741  0.00  0.00    +0.000 OA
ATOM      4  O   UNL     1     113.422 128.646 135.520  0.00  0.00    +0.000 OA
ATOM      5  C   UNL     1     112.971 126.719 137.006  0.00  0.00    +0.000 C 
ATOM      6  C   UNL     1     113.698 126.783 136.621  0.00  0.00    +0.000 C 
ATOM      7  C   UNL     1     113.848 127.425 136.126  0.00  0.00    +0.000 C 
ATOM      8  C   UNL     1     113.272 128.004 136.015  0.00  0.00    +0.000 C 
ATOM      9  C   UNL     1     112.544 127.941 136.400  0.00  0.00    +0.000 C 
ENDROOT
BRANCH   9  14
ATOM     10  O   UNL     1     111.336 127.703 135.301  0.00  0.00    +0.000 OA
ATOM     11  O   UNL     1     112.598 129.338 137.276  0.00  0.00    +0.000 OA
ATOM     12  O   UNL     1     110.218 130.289 135.961  0.00  0.00    +0.000 OA
ATOM     13  O   UNL     1     110.144 128.142 134.620  0.00  0.00    +0.000 OA
ATOM     14  C   UNL     1     111.968 128.520 136.289  0.00  0.00    +0.000 A 
ATOM     15  C   UNL     1     111.364 128.401 135.740  0.00  0.00    +0.000 A 
ATOM     16  C   UNL     1     111.994 129.219 136.727  0.00  0.00    +0.000 A 
ATOM     17  C   UNL     1     110.786 128.980 135.629  0.00  0.00    +0.000 A 
ATOM     18  C   UNL     1     111.418 129.798 136.617  0.00  0.00    +0.000 A 
ATOM     19  C   UNL     1     110.814 129.678 136.067  0.00  0.00    +0.000 A 
ATOM     20  C   UNL     1     110.163 128.843 135.054  0.00  0.00    +0.000 A 
ATOM     21  C   UNL     1     109.558 129.443 134.933  0.00  0.00    +0.000 A 
ATOM     22  C   UNL     1     109.586 130.171 135.390  0.00  0.00    +0.000 A 
BRANCH  22  25
ATOM     23  O   UNL     1     107.055 131.306 136.078  0.00  0.00    +0.000 OA
ATOM     24  O   UNL     1     107.283 132.494 134.956  0.00  0.00    +0.000 OA
ATOM     25  C   UNL     1     109.011 130.752 135.282  0.00  0.00    +0.000 A 
ATOM     26  C   UNL     1     108.321 130.738 135.735  0.00  0.00    +0.000 A 
ATOM     27  C   UNL     1     109.124 131.346 134.720  0.00  0.00    +0.000 A 
ATOM     28  C   UNL     1     107.745 131.319 135.626  0.00  0.00    +0.000 A 
ATOM     29  C   UNL     1     108.548 131.926 134.612  0.00  0.00    +0.000 A 
ATOM     30  C   UNL     1     107.859 131.913 135.065  0.00  0.00    +0.000 A 
ENDBRANCH  22  25
ENDBRANCH   9  14
BRANCH   5  31
ATOM     31  O   UNL     1     112.821 126.077 137.502  0.00  0.00    +0.000 OA
BRANCH  31  36
ATOM     32  O   UNL     1     113.062 126.632 138.796  0.00  0.00    +0.000 OA
ATOM     33  O   UNL     1     111.378 125.475 138.029  0.00  0.00    +0.000 OA
ATOM     34  O   UNL     1     110.898 125.730 139.587  0.00  0.00    +0.000 OA
ATOM     35  O   UNL     1     111.861 126.586 140.617  0.00  0.00    +0.000 OA
ATOM     36  C   UNL     1     112.581 126.204 138.280  0.00  0.00    +0.000 C 
ATOM     37  C   UNL     1     111.860 125.903 138.544  0.00  0.00    +0.000 C 
ATOM     38  C   UNL     1     111.619 126.030 139.323  0.00  0.00    +0.000 C 
ATOM     39  C   UNL     1     112.101 126.459 139.838  0.00  0.00    +0.000 C 
ATOM     40  C   UNL     1     112.823 126.760 139.574  0.00  0.00    +0.000 C 
BRANCH  40  42
ATOM     41  O   UNL     1     114.105 127.003 140.156  0.00  0.00    +0.000 OA
ATOM     42  C   UNL     1     113.303 127.188 140.089  0.00  0.00    +0.000 C 
ENDBRANCH  40  42
ENDBRANCH  31  36
ENDBRANCH   5  31
TORSDOF 5
ENDMDL
