MODEL 1
REMARK VINA RESULT:     -11.0      0.000      0.000
REMARK  Name = 44258095
REMARK  6 active torsions:
REMARK  status: ('A' for Active; 'I' for Inactive)
REMARK    1  A    between atoms: O_3  and  C_22
REMARK    2  A    between atoms: O_3  and  C_29
REMARK    3  A    between atoms: O_7  and  C_26
REMARK    4  A    between atoms: O_7  and  C_30
REMARK    5  A    between atoms: C_25  and  C_28
REMARK    6  A    between atoms: C_36  and  C_41
REMARK                            x       y       z     vdW  Elec       q    Type
REMARK                         _______ _______ _______ _____ _____    ______ ____
ROOT
ATOM      1  O   UNL     1     110.287 128.336 136.062  0.00  0.00    +0.000 OA
ATOM      2  O   UNL     1     107.838 129.850 135.817  0.00  0.00    +0.000 OA
ATOM      3  O   UNL     1     107.834 128.410 135.744  0.00  0.00    +0.000 OA
ATOM      4  C   UNL     1     109.945 130.543 136.129  0.00  0.00    +0.000 A 
ATOM      5  C   UNL     1     110.349 129.785 136.144  0.00  0.00    +0.000 A 
ATOM      6  C   UNL     1     109.094 130.569 136.019  0.00  0.00    +0.000 A 
ATOM      7  C   UNL     1     109.895 129.061 136.047  0.00  0.00    +0.000 A 
ATOM      8  C   UNL     1     109.076 129.086 135.941  0.00  0.00    +0.000 A 
ATOM      9  C   UNL     1     108.656 129.835 135.924  0.00  0.00    +0.000 A 
ATOM     10  C   UNL     1     109.862 127.635 135.971  0.00  0.00    +0.000 A 
ATOM     11  C   UNL     1     108.652 128.385 135.850  0.00  0.00    +0.000 A 
ATOM     12  C   UNL     1     109.045 127.660 135.865  0.00  0.00    +0.000 A 
ENDROOT
BRANCH  10  17
ATOM     13  O   UNL     1     110.811 125.306 134.614  0.00  0.00    +0.000 OA
ATOM     14  C   UNL     1     111.039 125.458 136.015  0.00  0.00    +0.000 A 
ATOM     15  C   UNL     1     110.729 125.745 135.308  0.00  0.00    +0.000 A 
ATOM     16  C   UNL     1     110.956 125.897 136.710  0.00  0.00    +0.000 A 
ATOM     17  C   UNL     1     110.254 126.909 135.985  0.00  0.00    +0.000 A 
ATOM     18  C   UNL     1     110.336 126.470 135.292  0.00  0.00    +0.000 A 
ATOM     19  C   UNL     1     110.564 126.622 136.694  0.00  0.00    +0.000 A 
BRANCH  14  20
ATOM     20  O   UNL     1     111.431 124.733 136.031  0.00  0.00    +0.000 OA
BRANCH  20  29
ATOM     21  O   UNL     1     112.743 125.279 136.173  0.00  0.00    +0.000 OA
ATOM     22  O   UNL     1     113.397 123.347 137.575  0.00  0.00    +0.000 OA
ATOM     23  O   UNL     1     114.491 124.538 137.251  0.00  0.00    +0.000 OA
ATOM     24  O   UNL     1     111.866 123.444 136.965  0.00  0.00    +0.000 OA
ATOM     25  C   UNL     1     113.179 123.991 137.108  0.00  0.00    +0.000 C 
ATOM     26  C   UNL     1     113.726 124.586 136.946  0.00  0.00    +0.000 C 
ATOM     27  C   UNL     1     112.414 124.040 136.803  0.00  0.00    +0.000 C 
ATOM     28  C   UNL     1     113.508 125.230 136.478  0.00  0.00    +0.000 C 
ATOM     29  C   UNL     1     112.196 124.684 136.335  0.00  0.00    +0.000 C 
ATOM     30  C   UNL     1     114.056 125.826 136.316  0.00  0.00    +0.000 C 
ENDBRANCH  20  29
ENDBRANCH  14  20
ENDBRANCH  10  17
BRANCH   4  31
ATOM     31  O   UNL     1     110.374 131.243 136.221  0.00  0.00    +0.000 OA
BRANCH  31  40
ATOM     32  O   UNL     1     110.464 131.217 137.646  0.00  0.00    +0.000 OA
ATOM     33  O   UNL     1     110.155 133.671 137.711  0.00  0.00    +0.000 OA
ATOM     34  O   UNL     1     110.348 132.827 139.116  0.00  0.00    +0.000 OA
ATOM     35  O   UNL     1     110.167 132.879 136.264  0.00  0.00    +0.000 OA
ATOM     36  C   UNL     1     110.258 132.853 137.690  0.00  0.00    +0.000 C 
ATOM     37  C   UNL     1     110.355 132.430 138.392  0.00  0.00    +0.000 C 
ATOM     38  C   UNL     1     110.264 132.457 136.967  0.00  0.00    +0.000 C 
ATOM     39  C   UNL     1     110.458 131.612 138.371  0.00  0.00    +0.000 C 
ATOM     40  C   UNL     1     110.367 131.638 136.944  0.00  0.00    +0.000 C 
BRANCH  39  43
ATOM     41  O   UNL     1     111.313 131.020 139.350  0.00  0.00    +0.000 OA
ATOM     42  O   UNL     1     109.893 130.937 139.496  0.00  0.00    +0.000 OA
ATOM     43  C   UNL     1     110.555 131.190 139.072  0.00  0.00    +0.000 C 
ENDBRANCH  39  43
ENDBRANCH  31  40
ENDBRANCH   4  31
TORSDOF 6
ENDMDL
MODEL 2
REMARK VINA RESULT:     -10.7      1.319      6.448
REMARK  Name = 44258095
REMARK  6 active torsions:
REMARK  status: ('A' for Active; 'I' for Inactive)
REMARK    1  A    between atoms: O_3  and  C_22
REMARK    2  A    between atoms: O_3  and  C_29
REMARK    3  A    between atoms: O_7  and  C_26
REMARK    4  A    between atoms: O_7  and  C_30
REMARK    5  A    between atoms: C_25  and  C_28
REMARK    6  A    between atoms: C_36  and  C_41
REMARK                            x       y       z     vdW  Elec       q    Type
REMARK                         _______ _______ _______ _____ _____    ______ ____
ROOT
ATOM      1  O   UNL     1     110.296 127.692 136.607  0.00  0.00    +0.000 OA
ATOM      2  O   UNL     1     110.468 125.147 135.250  0.00  0.00    +0.000 OA
ATOM      3  O   UNL     1     109.866 126.292 134.613  0.00  0.00    +0.000 OA
ATOM      4  C   UNL     1     111.153 125.747 137.296  0.00  0.00    +0.000 A 
ATOM      5  C   UNL     1     110.913 126.571 137.296  0.00  0.00    +0.000 A 
ATOM      6  C   UNL     1     111.004 125.261 136.604  0.00  0.00    +0.000 A 
ATOM      7  C   UNL     1     110.526 126.900 136.603  0.00  0.00    +0.000 A 
ATOM      8  C   UNL     1     110.382 126.433 135.937  0.00  0.00    +0.000 A 
ATOM      9  C   UNL     1     110.615 125.606 135.919  0.00  0.00    +0.000 A 
ATOM     10  C   UNL     1     109.924 128.018 135.947  0.00  0.00    +0.000 A 
ATOM     11  C   UNL     1     110.009 126.759 135.277  0.00  0.00    +0.000 A 
ATOM     12  C   UNL     1     109.781 127.551 135.283  0.00  0.00    +0.000 A 
ENDROOT
BRANCH  10  17
ATOM     13  O   UNL     1     107.869 130.000 136.056  0.00  0.00    +0.000 OA
ATOM     14  C   UNL     1     109.237 130.396 135.961  0.00  0.00    +0.000 A 
ATOM     15  C   UNL     1     108.668 129.802 136.006  0.00  0.00    +0.000 A 
ATOM     16  C   UNL     1     110.037 130.197 135.911  0.00  0.00    +0.000 A 
ATOM     17  C   UNL     1     109.695 128.811 135.951  0.00  0.00    +0.000 A 
ATOM     18  C   UNL     1     108.896 129.009 136.001  0.00  0.00    +0.000 A 
ATOM     19  C   UNL     1     110.266 129.405 135.906  0.00  0.00    +0.000 A 
BRANCH  14  20
ATOM     20  O   UNL     1     109.009 131.188 135.966  0.00  0.00    +0.000 OA
BRANCH  20  29
ATOM     21  O   UNL     1     109.352 131.523 137.311  0.00  0.00    +0.000 OA
ATOM     22  O   UNL     1     110.336 133.656 136.533  0.00  0.00    +0.000 OA
ATOM     23  O   UNL     1     110.351 133.279 138.138  0.00  0.00    +0.000 OA
ATOM     24  O   UNL     1     109.665 132.610 135.446  0.00  0.00    +0.000 OA
ATOM     25  C   UNL     1     110.008 132.944 136.793  0.00  0.00    +0.000 C 
ATOM     26  C   UNL     1     110.016 132.756 137.595  0.00  0.00    +0.000 C 
ATOM     27  C   UNL     1     109.672 132.422 136.249  0.00  0.00    +0.000 C 
ATOM     28  C   UNL     1     109.687 132.045 137.855  0.00  0.00    +0.000 C 
ATOM     29  C   UNL     1     109.344 131.711 136.509  0.00  0.00    +0.000 C 
ATOM     30  C   UNL     1     109.695 131.857 138.658  0.00  0.00    +0.000 C 
ENDBRANCH  20  29
ENDBRANCH  14  20
ENDBRANCH  10  17
BRANCH   4  31
ATOM     31  O   UNL     1     111.526 125.424 137.958  0.00  0.00    +0.000 OA
BRANCH  31  40
ATOM     32  O   UNL     1     112.895 125.398 137.553  0.00  0.00    +0.000 OA
ATOM     33  O   UNL     1     113.545 126.492 139.676  0.00  0.00    +0.000 OA
ATOM     34  O   UNL     1     114.698 126.102 138.562  0.00  0.00    +0.000 OA
ATOM     35  O   UNL     1     111.958 126.153 139.373  0.00  0.00    +0.000 OA
ATOM     36  C   UNL     1     113.329 126.127 138.968  0.00  0.00    +0.000 C 
ATOM     37  C   UNL     1     113.905 125.932 138.411  0.00  0.00    +0.000 C 
ATOM     38  C   UNL     1     112.536 125.958 138.817  0.00  0.00    +0.000 C 
ATOM     39  C   UNL     1     113.689 125.568 137.704  0.00  0.00    +0.000 C 
ATOM     40  C   UNL     1     112.319 125.593 138.109  0.00  0.00    +0.000 C 
BRANCH  39  43
ATOM     41  O   UNL     1     114.479 125.918 136.566  0.00  0.00    +0.000 OA
ATOM     42  O   UNL     1     114.627 124.632 137.171  0.00  0.00    +0.000 OA
ATOM     43  C   UNL     1     114.265 125.372 137.147  0.00  0.00    +0.000 C 
ENDBRANCH  39  43
ENDBRANCH  31  40
ENDBRANCH   4  31
TORSDOF 6
ENDMDL
MODEL 3
REMARK VINA RESULT:     -10.6      8.155     10.951
REMARK  Name = 44258095
REMARK  6 active torsions:
REMARK  status: ('A' for Active; 'I' for Inactive)
REMARK    1  A    between atoms: O_3  and  C_22
REMARK    2  A    between atoms: O_3  and  C_29
REMARK    3  A    between atoms: O_7  and  C_26
REMARK    4  A    between atoms: O_7  and  C_30
REMARK    5  A    between atoms: C_25  and  C_28
REMARK    6  A    between atoms: C_36  and  C_41
REMARK                            x       y       z     vdW  Elec       q    Type
REMARK                         _______ _______ _______ _____ _____    ______ ____
ROOT
ATOM      1  O   UNL     1     104.967 127.635 142.450  0.00  0.00    +0.000 OA
ATOM      2  O   UNL     1     107.828 127.407 142.780  0.00  0.00    +0.000 OA
ATOM      3  O   UNL     1     107.228 128.628 142.302  0.00  0.00    +0.000 OA
ATOM      4  C   UNL     1     106.203 125.913 143.158  0.00  0.00    +0.000 A 
ATOM      5  C   UNL     1     105.518 126.381 142.935  0.00  0.00    +0.000 A 
ATOM      6  C   UNL     1     106.988 126.258 143.107  0.00  0.00    +0.000 A 
ATOM      7  C   UNL     1     105.627 127.189 142.663  0.00  0.00    +0.000 A 
ATOM      8  C   UNL     1     106.382 127.521 142.613  0.00  0.00    +0.000 A 
ATOM      9  C   UNL     1     107.078 127.068 142.832  0.00  0.00    +0.000 A 
ATOM     10  C   UNL     1     105.060 128.411 142.187  0.00  0.00    +0.000 A 
ATOM     11  C   UNL     1     106.474 128.297 142.351  0.00  0.00    +0.000 A 
ATOM     12  C   UNL     1     105.813 128.742 142.138  0.00  0.00    +0.000 A 
ENDROOT
BRANCH  10  17
ATOM     13  O   UNL     1     102.997 129.038 140.312  0.00  0.00    +0.000 OA
ATOM     14  C   UNL     1     103.077 129.747 141.548  0.00  0.00    +0.000 A 
ATOM     15  C   UNL     1     103.367 129.170 141.037  0.00  0.00    +0.000 A 
ATOM     16  C   UNL     1     103.447 129.880 142.274  0.00  0.00    +0.000 A 
ATOM     17  C   UNL     1     104.398 128.857 141.974  0.00  0.00    +0.000 A 
ATOM     18  C   UNL     1     104.028 128.724 141.249  0.00  0.00    +0.000 A 
ATOM     19  C   UNL     1     104.108 129.434 142.487  0.00  0.00    +0.000 A 
BRANCH  14  20
ATOM     20  O   UNL     1     102.416 130.193 141.336  0.00  0.00    +0.000 OA
BRANCH  20  29
ATOM     21  O   UNL     1     103.122 131.378 140.966  0.00  0.00    +0.000 OA
ATOM     22  O   UNL     1     101.298 132.760 141.910  0.00  0.00    +0.000 OA
ATOM     23  O   UNL     1     102.612 133.485 141.226  0.00  0.00    +0.000 OA
ATOM     24  O   UNL     1     101.200 131.113 141.965  0.00  0.00    +0.000 OA
ATOM     25  C   UNL     1     101.906 132.299 141.595  0.00  0.00    +0.000 C 
ATOM     26  C   UNL     1     102.563 132.662 141.254  0.00  0.00    +0.000 C 
ATOM     27  C   UNL     1     101.857 131.476 141.623  0.00  0.00    +0.000 C 
ATOM     28  C   UNL     1     103.171 132.201 140.939  0.00  0.00    +0.000 C 
ATOM     29  C   UNL     1     102.465 131.016 141.308  0.00  0.00    +0.000 C 
ATOM     30  C   UNL     1     103.828 132.565 140.596  0.00  0.00    +0.000 C 
ENDBRANCH  20  29
ENDBRANCH  14  20
ENDBRANCH  10  17
BRANCH   4  31
ATOM     31  O   UNL     1     106.107 125.136 143.420  0.00  0.00    +0.000 OA
BRANCH  31  40
ATOM     32  O   UNL     1     106.368 125.383 144.802  0.00  0.00    +0.000 OA
ATOM     33  O   UNL     1     104.628 123.739 145.427  0.00  0.00    +0.000 OA
ATOM     34  O   UNL     1     105.469 124.535 146.601  0.00  0.00    +0.000 OA
ATOM     35  O   UNL     1     104.947 124.040 143.836  0.00  0.00    +0.000 OA
ATOM     36  C   UNL     1     105.208 124.287 145.219  0.00  0.00    +0.000 C 
ATOM     37  C   UNL     1     105.629 124.685 145.806  0.00  0.00    +0.000 C 
ATOM     38  C   UNL     1     105.367 124.437 144.424  0.00  0.00    +0.000 C 
ATOM     39  C   UNL     1     106.209 125.233 145.599  0.00  0.00    +0.000 C 
ATOM     40  C   UNL     1     105.948 124.986 144.215  0.00  0.00    +0.000 C 
BRANCH  39  43
ATOM     41  O   UNL     1     106.332 126.332 146.504  0.00  0.00    +0.000 OA
ATOM     42  O   UNL     1     107.349 125.330 146.453  0.00  0.00    +0.000 OA
ATOM     43  C   UNL     1     106.630 125.632 146.185  0.00  0.00    +0.000 C 
ENDBRANCH  39  43
ENDBRANCH  31  40
ENDBRANCH   4  31
TORSDOF 6
ENDMDL
MODEL 4
REMARK VINA RESULT:     -10.5      6.235      7.759
REMARK  Name = 44258095
REMARK  6 active torsions:
REMARK  status: ('A' for Active; 'I' for Inactive)
REMARK    1  A    between atoms: O_3  and  C_22
REMARK    2  A    between atoms: O_3  and  C_29
REMARK    3  A    between atoms: O_7  and  C_26
REMARK    4  A    between atoms: O_7  and  C_30
REMARK    5  A    between atoms: C_25  and  C_28
REMARK    6  A    between atoms: C_36  and  C_41
REMARK                            x       y       z     vdW  Elec       q    Type
REMARK                         _______ _______ _______ _____ _____    ______ ____
ROOT
ATOM      1  O   UNL     1     106.552 125.852 141.065  0.00  0.00    +0.000 OA
ATOM      2  O   UNL     1     106.563 126.611 143.853  0.00  0.00    +0.000 OA
ATOM      3  O   UNL     1     105.660 125.600 143.359  0.00  0.00    +0.000 OA
ATOM      4  C   UNL     1     107.803 127.357 142.144  0.00  0.00    +0.000 A 
ATOM      5  C   UNL     1     107.483 126.876 141.509  0.00  0.00    +0.000 A 
ATOM      6  C   UNL     1     107.493 127.270 142.940  0.00  0.00    +0.000 A 
ATOM      7  C   UNL     1     106.857 126.312 141.678  0.00  0.00    +0.000 A 
ATOM      8  C   UNL     1     106.558 126.228 142.444  0.00  0.00    +0.000 A 
ATOM      9  C   UNL     1     106.866 126.701 143.091  0.00  0.00    +0.000 A 
ATOM     10  C   UNL     1     105.951 125.308 141.216  0.00  0.00    +0.000 A 
ATOM     11  C   UNL     1     105.957 125.684 142.594  0.00  0.00    +0.000 A 
ATOM     12  C   UNL     1     105.654 125.224 141.980  0.00  0.00    +0.000 A 
ENDROOT
BRANCH  10  17
ATOM     13  O   UNL     1     105.780 122.803 139.851  0.00  0.00    +0.000 OA
ATOM     14  C   UNL     1     105.039 123.927 139.375  0.00  0.00    +0.000 A 
ATOM     15  C   UNL     1     105.562 123.596 139.920  0.00  0.00    +0.000 A 
ATOM     16  C   UNL     1     104.821 124.720 139.444  0.00  0.00    +0.000 A 
ATOM     17  C   UNL     1     105.647 124.847 140.602  0.00  0.00    +0.000 A 
ATOM     18  C   UNL     1     105.866 124.055 140.534  0.00  0.00    +0.000 A 
ATOM     19  C   UNL     1     105.124 125.180 140.057  0.00  0.00    +0.000 A 
BRANCH  14  20
ATOM     20  O   UNL     1     104.736 123.468 138.761  0.00  0.00    +0.000 OA
BRANCH  20  29
ATOM     21  O   UNL     1     103.408 123.290 139.258  0.00  0.00    +0.000 OA
ATOM     22  O   UNL     1     102.506 123.662 136.983  0.00  0.00    +0.000 OA
ATOM     23  O   UNL     1     101.479 123.361 138.238  0.00  0.00    +0.000 OA
ATOM     24  O   UNL     1     104.135 123.715 137.245  0.00  0.00    +0.000 OA
ATOM     25  C   UNL     1     102.807 123.538 137.742  0.00  0.00    +0.000 C 
ATOM     26  C   UNL     1     102.293 123.387 138.369  0.00  0.00    +0.000 C 
ATOM     27  C   UNL     1     103.621 123.565 137.872  0.00  0.00    +0.000 C 
ATOM     28  C   UNL     1     102.594 123.263 139.127  0.00  0.00    +0.000 C 
ATOM     29  C   UNL     1     103.921 123.441 138.631  0.00  0.00    +0.000 C 
ATOM     30  C   UNL     1     102.080 123.113 139.755  0.00  0.00    +0.000 C 
ENDBRANCH  20  29
ENDBRANCH  14  20
ENDBRANCH  10  17
BRANCH   4  31
ATOM     31  O   UNL     1     108.404 127.901 141.989  0.00  0.00    +0.000 OA
BRANCH  31  40
ATOM     32  O   UNL     1     107.563 129.053 141.914  0.00  0.00    +0.000 OA
ATOM     33  O   UNL     1     109.002 129.990 140.132  0.00  0.00    +0.000 OA
ATOM     34  O   UNL     1     107.680 130.829 140.651  0.00  0.00    +0.000 OA
ATOM     35  O   UNL     1     109.364 128.525 140.802  0.00  0.00    +0.000 OA
ATOM     36  C   UNL     1     108.522 129.678 140.727  0.00  0.00    +0.000 C 
ATOM     37  C   UNL     1     107.861 130.097 140.986  0.00  0.00    +0.000 C 
ATOM     38  C   UNL     1     108.703 128.946 141.061  0.00  0.00    +0.000 C 
ATOM     39  C   UNL     1     107.381 129.785 141.580  0.00  0.00    +0.000 C 
ATOM     40  C   UNL     1     108.223 128.633 141.655  0.00  0.00    +0.000 C 
BRANCH  39  43
ATOM     41  O   UNL     1     105.999 130.123 141.446  0.00  0.00    +0.000 OA
ATOM     42  O   UNL     1     106.780 130.705 142.492  0.00  0.00    +0.000 OA
ATOM     43  C   UNL     1     106.720 130.205 141.839  0.00  0.00    +0.000 C 
ENDBRANCH  39  43
ENDBRANCH  31  40
ENDBRANCH   4  31
TORSDOF 6
ENDMDL
MODEL 5
REMARK VINA RESULT:     -10.5      5.726      7.632
REMARK  Name = 44258095
REMARK  6 active torsions:
REMARK  status: ('A' for Active; 'I' for Inactive)
REMARK    1  A    between atoms: O_3  and  C_22
REMARK    2  A    between atoms: O_3  and  C_29
REMARK    3  A    between atoms: O_7  and  C_26
REMARK    4  A    between atoms: O_7  and  C_30
REMARK    5  A    between atoms: C_25  and  C_28
REMARK    6  A    between atoms: C_36  and  C_41
REMARK                            x       y       z     vdW  Elec       q    Type
REMARK                         _______ _______ _______ _____ _____    ______ ____
ROOT
ATOM      1  O   UNL     1     107.259 125.017 140.489  0.00  0.00    +0.000 OA
ATOM      2  O   UNL     1     108.378 127.157 142.075  0.00  0.00    +0.000 OA
ATOM      3  O   UNL     1     106.972 126.844 142.133  0.00  0.00    +0.000 OA
ATOM      4  C   UNL     1     109.364 125.754 140.634  0.00  0.00    +0.000 A 
ATOM      5  C   UNL     1     108.683 125.290 140.392  0.00  0.00    +0.000 A 
ATOM      6  C   UNL     1     109.264 126.388 141.205  0.00  0.00    +0.000 A 
ATOM      7  C   UNL     1     107.910 125.466 140.724  0.00  0.00    +0.000 A 
ATOM      8  C   UNL     1     107.814 126.075 141.273  0.00  0.00    +0.000 A 
ATOM      9  C   UNL     1     108.483 126.550 141.526  0.00  0.00    +0.000 A 
ATOM     10  C   UNL     1     106.512 125.177 140.801  0.00  0.00    +0.000 A 
ATOM     11  C   UNL     1     107.067 126.235 141.585  0.00  0.00    +0.000 A 
ATOM     12  C   UNL     1     106.417 125.786 141.349  0.00  0.00    +0.000 A 
ENDROOT
BRANCH  10  17
ATOM     13  O   UNL     1     105.025 122.739 140.889  0.00  0.00    +0.000 OA
ATOM     14  C   UNL     1     104.560 123.831 140.094  0.00  0.00    +0.000 A 
ATOM     15  C   UNL     1     105.117 123.510 140.609  0.00  0.00    +0.000 A 
ATOM     16  C   UNL     1     104.653 124.602 139.814  0.00  0.00    +0.000 A 
ATOM     17  C   UNL     1     105.861 124.728 140.566  0.00  0.00    +0.000 A 
ATOM     18  C   UNL     1     105.769 123.958 140.845  0.00  0.00    +0.000 A 
ATOM     19  C   UNL     1     105.303 125.050 140.050  0.00  0.00    +0.000 A 
BRANCH  14  20
ATOM     20  O   UNL     1     103.909 123.382 139.858  0.00  0.00    +0.000 OA
BRANCH  20  29
ATOM     21  O   UNL     1     104.167 123.363 138.453  0.00  0.00    +0.000 OA
ATOM     22  O   UNL     1     101.757 123.699 138.004  0.00  0.00    +0.000 OA
ATOM     23  O   UNL     1     102.819 123.567 136.749  0.00  0.00    +0.000 OA
ATOM     24  O   UNL     1     102.302 123.606 139.559  0.00  0.00    +0.000 OA
ATOM     25  C   UNL     1     102.561 123.587 138.154  0.00  0.00    +0.000 C 
ATOM     26  C   UNL     1     103.091 123.521 137.526  0.00  0.00    +0.000 C 
ATOM     27  C   UNL     1     102.833 123.541 138.931  0.00  0.00    +0.000 C 
ATOM     28  C   UNL     1     103.895 123.409 137.676  0.00  0.00    +0.000 C 
ATOM     29  C   UNL     1     103.637 123.428 139.081  0.00  0.00    +0.000 C 
ATOM     30  C   UNL     1     104.426 123.343 137.048  0.00  0.00    +0.000 C 
ENDBRANCH  20  29
ENDBRANCH  14  20
ENDBRANCH  10  17
BRANCH   4  31
ATOM     31  O   UNL     1     110.110 125.592 140.319  0.00  0.00    +0.000 OA
BRANCH  31  40
ATOM     32  O   UNL     1     109.909 126.186 139.036  0.00  0.00    +0.000 OA
ATOM     33  O   UNL     1     112.224 127.059 139.077  0.00  0.00    +0.000 OA
ATOM     34  O   UNL     1     111.251 127.362 137.779  0.00  0.00    +0.000 OA
ATOM     35  O   UNL     1     111.653 126.173 140.347  0.00  0.00    +0.000 OA
ATOM     36  C   UNL     1     111.452 126.768 139.063  0.00  0.00    +0.000 C 
ATOM     37  C   UNL     1     110.965 126.919 138.414  0.00  0.00    +0.000 C 
ATOM     38  C   UNL     1     111.167 126.325 139.698  0.00  0.00    +0.000 C 
ATOM     39  C   UNL     1     110.194 126.629 138.400  0.00  0.00    +0.000 C 
ATOM     40  C   UNL     1     110.395 126.034 139.684  0.00  0.00    +0.000 C 
BRANCH  39  43
ATOM     41  O   UNL     1     109.264 127.475 137.722  0.00  0.00    +0.000 OA
ATOM     42  O   UNL     1     109.664 126.236 137.133  0.00  0.00    +0.000 OA
ATOM     43  C   UNL     1     109.707 126.780 137.752  0.00  0.00    +0.000 C 
ENDBRANCH  39  43
ENDBRANCH  31  40
ENDBRANCH   4  31
TORSDOF 6
ENDMDL
MODEL 6
REMARK VINA RESULT:     -10.4      8.125      9.629
REMARK  Name = 44258095
REMARK  6 active torsions:
REMARK  status: ('A' for Active; 'I' for Inactive)
REMARK    1  A    between atoms: O_3  and  C_22
REMARK    2  A    between atoms: O_3  and  C_29
REMARK    3  A    between atoms: O_7  and  C_26
REMARK    4  A    between atoms: O_7  and  C_30
REMARK    5  A    between atoms: C_25  and  C_28
REMARK    6  A    between atoms: C_36  and  C_41
REMARK                            x       y       z     vdW  Elec       q    Type
REMARK                         _______ _______ _______ _____ _____    ______ ____
ROOT
ATOM      1  O   UNL     1     104.755 128.595 143.237  0.00  0.00    +0.000 OA
ATOM      2  O   UNL     1     103.823 128.420 140.507  0.00  0.00    +0.000 OA
ATOM      3  O   UNL     1     104.768 127.467 141.034  0.00  0.00    +0.000 OA
ATOM      4  C   UNL     1     103.315 129.889 142.120  0.00  0.00    +0.000 A 
ATOM      5  C   UNL     1     103.802 129.582 142.757  0.00  0.00    +0.000 A 
ATOM      6  C   UNL     1     103.320 129.497 141.355  0.00  0.00    +0.000 A 
ATOM      7  C   UNL     1     104.288 128.887 142.622  0.00  0.00    +0.000 A 
ATOM      8  C   UNL     1     104.293 128.510 141.887  0.00  0.00    +0.000 A 
ATOM      9  C   UNL     1     103.812 128.803 141.238  0.00  0.00    +0.000 A 
ATOM     10  C   UNL     1     105.226 127.928 143.118  0.00  0.00    +0.000 A 
ATOM     11  C   UNL     1     104.764 127.843 141.769  0.00  0.00    +0.000 A 
ATOM     12  C   UNL     1     105.230 127.553 142.384  0.00  0.00    +0.000 A 
ENDROOT
BRANCH  10  17
ATOM     13  O   UNL     1     107.595 128.071 144.708  0.00  0.00    +0.000 OA
ATOM     14  C   UNL     1     106.624 127.056 144.964  0.00  0.00    +0.000 A 
ATOM     15  C   UNL     1     106.876 127.708 144.529  0.00  0.00    +0.000 A 
ATOM     16  C   UNL     1     105.904 126.693 144.784  0.00  0.00    +0.000 A 
ATOM     17  C   UNL     1     105.692 127.637 143.734  0.00  0.00    +0.000 A 
ATOM     18  C   UNL     1     106.411 128.000 143.913  0.00  0.00    +0.000 A 
ATOM     19  C   UNL     1     105.439 126.984 144.169  0.00  0.00    +0.000 A 
BRANCH  14  20
ATOM     20  O   UNL     1     107.090 126.765 145.579  0.00  0.00    +0.000 OA
BRANCH  20  29
ATOM     21  O   UNL     1     106.304 127.214 146.684  0.00  0.00    +0.000 OA
ATOM     22  O   UNL     1     106.652 125.042 147.818  0.00  0.00    +0.000 OA
ATOM     23  O   UNL     1     105.749 126.216 148.545  0.00  0.00    +0.000 OA
ATOM     24  O   UNL     1     107.322 125.316 146.335  0.00  0.00    +0.000 OA
ATOM     25  C   UNL     1     106.536 125.766 147.440  0.00  0.00    +0.000 C 
ATOM     26  C   UNL     1     106.085 126.353 147.803  0.00  0.00    +0.000 C 
ATOM     27  C   UNL     1     106.871 125.903 146.699  0.00  0.00    +0.000 C 
ATOM     28  C   UNL     1     105.968 127.077 147.425  0.00  0.00    +0.000 C 
ATOM     29  C   UNL     1     106.755 126.628 146.321  0.00  0.00    +0.000 C 
ATOM     30  C   UNL     1     105.517 127.664 147.789  0.00  0.00    +0.000 C 
ENDBRANCH  20  29
ENDBRANCH  14  20
ENDBRANCH  10  17
BRANCH   4  31
ATOM     31  O   UNL     1     102.845 130.557 142.242  0.00  0.00    +0.000 OA
BRANCH  31  40
ATOM     32  O   UNL     1     103.869 131.464 141.833  0.00  0.00    +0.000 OA
ATOM     33  O   UNL     1     102.146 133.103 141.149  0.00  0.00    +0.000 OA
ATOM     34  O   UNL     1     103.745 133.464 140.968  0.00  0.00    +0.000 OA
ATOM     35  O   UNL     1     101.696 131.649 141.786  0.00  0.00    +0.000 OA
ATOM     36  C   UNL     1     102.721 132.557 141.377  0.00  0.00    +0.000 C 
ATOM     37  C   UNL     1     103.521 132.737 141.287  0.00  0.00    +0.000 C 
ATOM     38  C   UNL     1     102.496 131.830 141.695  0.00  0.00    +0.000 C 
ATOM     39  C   UNL     1     104.095 132.192 141.515  0.00  0.00    +0.000 C 
ATOM     40  C   UNL     1     103.070 131.283 141.923  0.00  0.00    +0.000 C 
BRANCH  39  43
ATOM     41  O   UNL     1     105.309 132.730 142.042  0.00  0.00    +0.000 OA
ATOM     42  O   UNL     1     105.280 132.194 140.717  0.00  0.00    +0.000 OA
ATOM     43  C   UNL     1     104.895 132.372 141.425  0.00  0.00    +0.000 C 
ENDBRANCH  39  43
ENDBRANCH  31  40
ENDBRANCH   4  31
TORSDOF 6
ENDMDL
MODEL 7
REMARK VINA RESULT:     -10.4      1.989      3.246
REMARK  Name = 44258095
REMARK  6 active torsions:
REMARK  status: ('A' for Active; 'I' for Inactive)
REMARK    1  A    between atoms: O_3  and  C_22
REMARK    2  A    between atoms: O_3  and  C_29
REMARK    3  A    between atoms: O_7  and  C_26
REMARK    4  A    between atoms: O_7  and  C_30
REMARK    5  A    between atoms: C_25  and  C_28
REMARK    6  A    between atoms: C_36  and  C_41
REMARK                            x       y       z     vdW  Elec       q    Type
REMARK                         _______ _______ _______ _____ _____    ______ ____
ROOT
ATOM      1  O   UNL     1     111.662 129.654 137.731  0.00  0.00    +0.000 OA
ATOM      2  O   UNL     1     113.061 131.914 136.599  0.00  0.00    +0.000 OA
ATOM      3  O   UNL     1     113.687 130.619 136.688  0.00  0.00    +0.000 OA
ATOM      4  C   UNL     1     110.993 131.767 137.448  0.00  0.00    +0.000 A 
ATOM      5  C   UNL     1     110.983 130.937 137.666  0.00  0.00    +0.000 A 
ATOM      6  C   UNL     1     111.696 132.102 137.086  0.00  0.00    +0.000 A 
ATOM      7  C   UNL     1     111.676 130.451 137.520  0.00  0.00    +0.000 A 
ATOM      8  C   UNL     1     112.353 130.772 137.171  0.00  0.00    +0.000 A 
ATOM      9  C   UNL     1     112.381 131.601 136.947  0.00  0.00    +0.000 A 
ATOM     10  C   UNL     1     112.322 129.178 137.595  0.00  0.00    +0.000 A 
ATOM     11  C   UNL     1     113.012 130.297 137.036  0.00  0.00    +0.000 A 
ATOM     12  C   UNL     1     112.996 129.500 137.248  0.00  0.00    +0.000 A 
ENDROOT
BRANCH  10  17
ATOM     13  O   UNL     1     112.907 127.103 139.471  0.00  0.00    +0.000 OA
ATOM     14  C   UNL     1     112.276 126.786 138.230  0.00  0.00    +0.000 A 
ATOM     15  C   UNL     1     112.599 127.343 138.744  0.00  0.00    +0.000 A 
ATOM     16  C   UNL     1     111.968 127.026 137.502  0.00  0.00    +0.000 A 
ATOM     17  C   UNL     1     112.307 128.380 137.807  0.00  0.00    +0.000 A 
ATOM     18  C   UNL     1     112.615 128.141 138.533  0.00  0.00    +0.000 A 
ATOM     19  C   UNL     1     111.983 127.823 137.291  0.00  0.00    +0.000 A 
BRANCH  14  20
ATOM     20  O   UNL     1     112.261 125.989 138.441  0.00  0.00    +0.000 OA
BRANCH  20  29
ATOM     21  O   UNL     1     113.266 125.489 137.558  0.00  0.00    +0.000 OA
ATOM     22  O   UNL     1     111.826 123.552 137.011  0.00  0.00    +0.000 OA
ATOM     23  O   UNL     1     113.312 123.698 136.311  0.00  0.00    +0.000 OA
ATOM     24  O   UNL     1     111.300 124.698 138.077  0.00  0.00    +0.000 OA
ATOM     25  C   UNL     1     112.307 124.198 137.194  0.00  0.00    +0.000 C 
ATOM     26  C   UNL     1     113.049 124.271 136.844  0.00  0.00    +0.000 C 
ATOM     27  C   UNL     1     112.043 124.771 137.726  0.00  0.00    +0.000 C 
ATOM     28  C   UNL     1     113.529 124.917 137.026  0.00  0.00    +0.000 C 
ATOM     29  C   UNL     1     112.524 125.417 137.908  0.00  0.00    +0.000 C 
ATOM     30  C   UNL     1     114.273 124.989 136.675  0.00  0.00    +0.000 C 
ENDBRANCH  20  29
ENDBRANCH  14  20
ENDBRANCH  10  17
BRANCH   4  31
ATOM     31  O   UNL     1     110.331 132.241 137.585  0.00  0.00    +0.000 OA
BRANCH  31  40
ATOM     32  O   UNL     1     109.664 132.045 136.337  0.00  0.00    +0.000 OA
ATOM     33  O   UNL     1     107.498 131.867 137.521  0.00  0.00    +0.000 OA
ATOM     34  O   UNL     1     107.554 131.730 135.878  0.00  0.00    +0.000 OA
ATOM     35  O   UNL     1     108.887 132.122 138.375  0.00  0.00    +0.000 OA
ATOM     36  C   UNL     1     108.220 131.926 137.126  0.00  0.00    +0.000 C 
ATOM     37  C   UNL     1     108.248 131.858 136.304  0.00  0.00    +0.000 C 
ATOM     38  C   UNL     1     108.914 132.054 137.553  0.00  0.00    +0.000 C 
ATOM     39  C   UNL     1     108.969 131.917 135.910  0.00  0.00    +0.000 C 
ATOM     40  C   UNL     1     109.637 132.113 137.158  0.00  0.00    +0.000 C 
BRANCH  39  43
ATOM     41  O   UNL     1     109.019 131.102 134.736  0.00  0.00    +0.000 OA
ATOM     42  O   UNL     1     109.005 132.527 134.618  0.00  0.00    +0.000 OA
ATOM     43  C   UNL     1     108.998 131.849 135.088  0.00  0.00    +0.000 C 
ENDBRANCH  39  43
ENDBRANCH  31  40
ENDBRANCH   4  31
TORSDOF 6
ENDMDL
MODEL 8
REMARK VINA RESULT:     -10.3      1.775      7.095
REMARK  Name = 44258095
REMARK  6 active torsions:
REMARK  status: ('A' for Active; 'I' for Inactive)
REMARK    1  A    between atoms: O_3  and  C_22
REMARK    2  A    between atoms: O_3  and  C_29
REMARK    3  A    between atoms: O_7  and  C_26
REMARK    4  A    between atoms: O_7  and  C_30
REMARK    5  A    between atoms: C_25  and  C_28
REMARK    6  A    between atoms: C_36  and  C_41
REMARK                            x       y       z     vdW  Elec       q    Type
REMARK                         _______ _______ _______ _____ _____    ______ ____
ROOT
ATOM      1  O   UNL     1     112.249 128.824 136.990  0.00  0.00    +0.000 OA
ATOM      2  O   UNL     1     114.544 128.140 135.373  0.00  0.00    +0.000 OA
ATOM      3  O   UNL     1     113.791 129.345 135.125  0.00  0.00    +0.000 OA
ATOM      4  C   UNL     1     113.617 127.061 137.103  0.00  0.00    +0.000 A 
ATOM      5  C   UNL     1     112.972 127.599 137.283  0.00  0.00    +0.000 A 
ATOM      6  C   UNL     1     114.152 127.242 136.456  0.00  0.00    +0.000 A 
ATOM      7  C   UNL     1     112.870 128.311 136.813  0.00  0.00    +0.000 A 
ATOM      8  C   UNL     1     113.384 128.485 136.191  0.00  0.00    +0.000 A 
ATOM      9  C   UNL     1     114.035 127.959 135.996  0.00  0.00    +0.000 A 
ATOM     10  C   UNL     1     112.142 129.511 136.545  0.00  0.00    +0.000 A 
ATOM     11  C   UNL     1     113.276 129.171 135.747  0.00  0.00    +0.000 A 
ATOM     12  C   UNL     1     112.655 129.684 135.924  0.00  0.00    +0.000 A 
ENDROOT
BRANCH  10  17
ATOM     13  O   UNL     1     111.210 132.001 137.591  0.00  0.00    +0.000 OA
ATOM     14  C   UNL     1     110.277 131.050 137.077  0.00  0.00    +0.000 A 
ATOM     15  C   UNL     1     111.054 131.269 137.245  0.00  0.00    +0.000 A 
ATOM     16  C   UNL     1     110.122 130.317 136.730  0.00  0.00    +0.000 A 
ATOM     17  C   UNL     1     111.520 130.024 136.723  0.00  0.00    +0.000 A 
ATOM     18  C   UNL     1     111.676 130.757 137.069  0.00  0.00    +0.000 A 
ATOM     19  C   UNL     1     110.743 129.804 136.553  0.00  0.00    +0.000 A 
BRANCH  14  20
ATOM     20  O   UNL     1     109.656 131.563 137.253  0.00  0.00    +0.000 OA
BRANCH  20  29
ATOM     21  O   UNL     1     109.296 131.972 135.933  0.00  0.00    +0.000 OA
ATOM     22  O   UNL     1     106.903 131.686 136.496  0.00  0.00    +0.000 OA
ATOM     23  O   UNL     1     107.340 132.190 134.988  0.00  0.00    +0.000 OA
ATOM     24  O   UNL     1     108.061 131.372 137.629  0.00  0.00    +0.000 OA
ATOM     25  C   UNL     1     107.701 131.781 136.308  0.00  0.00    +0.000 C 
ATOM     26  C   UNL     1     107.919 132.033 135.554  0.00  0.00    +0.000 C 
ATOM     27  C   UNL     1     108.279 131.624 136.875  0.00  0.00    +0.000 C 
ATOM     28  C   UNL     1     108.717 132.129 135.367  0.00  0.00    +0.000 C 
ATOM     29  C   UNL     1     109.078 131.720 136.687  0.00  0.00    +0.000 C 
ATOM     30  C   UNL     1     108.935 132.381 134.612  0.00  0.00    +0.000 C 
ENDBRANCH  20  29
ENDBRANCH  14  20
ENDBRANCH  10  17
BRANCH   4  31
ATOM     31  O   UNL     1     113.722 126.375 137.550  0.00  0.00    +0.000 OA
BRANCH  31  40
ATOM     32  O   UNL     1     112.579 125.678 137.053  0.00  0.00    +0.000 OA
ATOM     33  O   UNL     1     113.834 123.548 137.146  0.00  0.00    +0.000 OA
ATOM     34  O   UNL     1     112.271 123.561 136.618  0.00  0.00    +0.000 OA
ATOM     35  O   UNL     1     114.559 124.955 137.612  0.00  0.00    +0.000 OA
ATOM     36  C   UNL     1     113.415 124.258 137.115  0.00  0.00    +0.000 C 
ATOM     37  C   UNL     1     112.634 124.265 136.851  0.00  0.00    +0.000 C 
ATOM     38  C   UNL     1     113.778 124.961 137.348  0.00  0.00    +0.000 C 
ATOM     39  C   UNL     1     112.215 124.974 136.819  0.00  0.00    +0.000 C 
ATOM     40  C   UNL     1     113.359 125.672 137.317  0.00  0.00    +0.000 C 
BRANCH  39  43
ATOM     41  O   UNL     1     110.814 125.007 137.100  0.00  0.00    +0.000 OA
ATOM     42  O   UNL     1     111.272 124.964 135.746  0.00  0.00    +0.000 OA
ATOM     43  C   UNL     1     111.434 124.982 136.555  0.00  0.00    +0.000 C 
ENDBRANCH  39  43
ENDBRANCH  31  40
ENDBRANCH   4  31
TORSDOF 6
ENDMDL
MODEL 9
REMARK VINA RESULT:     -10.3      1.933      7.052
REMARK  Name = 44258095
REMARK  6 active torsions:
REMARK  status: ('A' for Active; 'I' for Inactive)
REMARK    1  A    between atoms: O_3  and  C_22
REMARK    2  A    between atoms: O_3  and  C_29
REMARK    3  A    between atoms: O_7  and  C_26
REMARK    4  A    between atoms: O_7  and  C_30
REMARK    5  A    between atoms: C_25  and  C_28
REMARK    6  A    between atoms: C_36  and  C_41
REMARK                            x       y       z     vdW  Elec       q    Type
REMARK                         _______ _______ _______ _____ _____    ______ ____
ROOT
ATOM      1  O   UNL     1     110.941 128.066 138.349  0.00  0.00    +0.000 OA
ATOM      2  O   UNL     1     113.450 127.944 139.777  0.00  0.00    +0.000 OA
ATOM      3  O   UNL     1     112.785 129.203 139.544  0.00  0.00    +0.000 OA
ATOM      4  C   UNL     1     112.216 126.307 138.874  0.00  0.00    +0.000 A 
ATOM      5  C   UNL     1     111.567 126.771 138.556  0.00  0.00    +0.000 A 
ATOM      6  C   UNL     1     112.856 126.702 139.289  0.00  0.00    +0.000 A 
ATOM      7  C   UNL     1     111.566 127.624 138.656  0.00  0.00    +0.000 A 
ATOM      8  C   UNL     1     112.182 128.004 139.055  0.00  0.00    +0.000 A 
ATOM      9  C   UNL     1     112.839 127.557 139.380  0.00  0.00    +0.000 A 
ATOM     10  C   UNL     1     110.930 128.886 138.440  0.00  0.00    +0.000 A 
ATOM     11  C   UNL     1     112.170 128.824 139.146  0.00  0.00    +0.000 A 
ATOM     12  C   UNL     1     111.544 129.264 138.838  0.00  0.00    +0.000 A 
ENDROOT
BRANCH  10  17
ATOM     13  O   UNL     1     108.573 130.451 138.839  0.00  0.00    +0.000 OA
ATOM     14  C   UNL     1     109.052 130.208 137.516  0.00  0.00    +0.000 A 
ATOM     15  C   UNL     1     109.126 130.109 138.331  0.00  0.00    +0.000 A 
ATOM     16  C   UNL     1     109.606 129.866 137.008  0.00  0.00    +0.000 A 
ATOM     17  C   UNL     1     110.304 129.327 138.132  0.00  0.00    +0.000 A 
ATOM     18  C   UNL     1     109.751 129.669 138.640  0.00  0.00    +0.000 A 
ATOM     19  C   UNL     1     110.231 129.426 137.316  0.00  0.00    +0.000 A 
BRANCH  14  20
ATOM     20  O   UNL     1     108.427 130.649 137.209  0.00  0.00    +0.000 OA
BRANCH  20  29
ATOM     21  O   UNL     1     109.175 131.745 136.679  0.00  0.00    +0.000 OA
ATOM     22  O   UNL     1     107.758 131.734 134.650  0.00  0.00    +0.000 OA
ATOM     23  O   UNL     1     108.978 132.834 134.798  0.00  0.00    +0.000 OA
ATOM     24  O   UNL     1     107.482 130.641 135.856  0.00  0.00    +0.000 OA
ATOM     25  C   UNL     1     108.231 131.738 135.327  0.00  0.00    +0.000 C 
ATOM     26  C   UNL     1     108.840 132.287 135.400  0.00  0.00    +0.000 C 
ATOM     27  C   UNL     1     108.093 131.191 135.929  0.00  0.00    +0.000 C 
ATOM     28  C   UNL     1     109.313 132.291 136.077  0.00  0.00    +0.000 C 
ATOM     29  C   UNL     1     108.565 131.195 136.606  0.00  0.00    +0.000 C 
ATOM     30  C   UNL     1     109.923 132.842 136.150  0.00  0.00    +0.000 C 
ENDBRANCH  20  29
ENDBRANCH  14  20
ENDBRANCH  10  17
BRANCH   4  31
ATOM     31  O   UNL     1     112.224 125.487 138.782  0.00  0.00    +0.000 OA
BRANCH  31  40
ATOM     32  O   UNL     1     113.297 125.362 137.847  0.00  0.00    +0.000 OA
ATOM     33  O   UNL     1     111.974 123.726 136.545  0.00  0.00    +0.000 OA
ATOM     34  O   UNL     1     113.488 124.147 136.044  0.00  0.00    +0.000 OA
ATOM     35  O   UNL     1     111.342 124.396 137.914  0.00  0.00    +0.000 OA
ATOM     36  C   UNL     1     112.415 124.271 136.979  0.00  0.00    +0.000 C 
ATOM     37  C   UNL     1     113.172 124.482 136.729  0.00  0.00    +0.000 C 
ATOM     38  C   UNL     1     112.099 124.606 137.663  0.00  0.00    +0.000 C 
ATOM     39  C   UNL     1     113.614 125.027 137.162  0.00  0.00    +0.000 C 
ATOM     40  C   UNL     1     112.540 125.152 138.097  0.00  0.00    +0.000 C 
BRANCH  39  43
ATOM     41  O   UNL     1     114.472 125.863 136.383  0.00  0.00    +0.000 OA
ATOM     42  O   UNL     1     115.027 124.824 137.191  0.00  0.00    +0.000 OA
ATOM     43  C   UNL     1     114.371 125.238 136.912  0.00  0.00    +0.000 C 
ENDBRANCH  39  43
ENDBRANCH  31  40
ENDBRANCH   4  31
TORSDOF 6
ENDMDL
MODEL 10
REMARK VINA RESULT:     -10.3      3.051      7.081
REMARK  Name = 44258095
REMARK  6 active torsions:
REMARK  status: ('A' for Active; 'I' for Inactive)
REMARK    1  A    between atoms: O_3  and  C_22
REMARK    2  A    between atoms: O_3  and  C_29
REMARK    3  A    between atoms: O_7  and  C_26
REMARK    4  A    between atoms: O_7  and  C_30
REMARK    5  A    between atoms: C_25  and  C_28
REMARK    6  A    between atoms: C_36  and  C_41
REMARK                            x       y       z     vdW  Elec       q    Type
REMARK                         _______ _______ _______ _____ _____    ______ ____
ROOT
ATOM      1  O   UNL     1     112.780 128.537 138.256  0.00  0.00    +0.000 OA
ATOM      2  O   UNL     1     113.343 128.819 135.436  0.00  0.00    +0.000 OA
ATOM      3  O   UNL     1     113.766 129.820 136.383  0.00  0.00    +0.000 OA
ATOM      4  C   UNL     1     112.275 127.192 136.544  0.00  0.00    +0.000 A 
ATOM      5  C   UNL     1     112.331 127.498 137.345  0.00  0.00    +0.000 A 
ATOM      6  C   UNL     1     112.618 127.637 135.894  0.00  0.00    +0.000 A 
ATOM      7  C   UNL     1     112.729 128.247 137.485  0.00  0.00    +0.000 A 
ATOM      8  C   UNL     1     113.058 128.676 136.861  0.00  0.00    +0.000 A 
ATOM      9  C   UNL     1     113.012 128.384 136.054  0.00  0.00    +0.000 A 
ATOM     10  C   UNL     1     113.160 129.255 138.402  0.00  0.00    +0.000 A 
ATOM     11  C   UNL     1     113.437 129.393 137.008  0.00  0.00    +0.000 A 
ATOM     12  C   UNL     1     113.488 129.682 137.778  0.00  0.00    +0.000 A 
ENDROOT
BRANCH  10  17
ATOM     13  O   UNL     1     114.631 129.591 140.828  0.00  0.00    +0.000 OA
ATOM     14  C   UNL     1     113.312 130.125 140.715  0.00  0.00    +0.000 A 
ATOM     15  C   UNL     1     113.946 129.713 140.386  0.00  0.00    +0.000 A 
ATOM     16  C   UNL     1     112.626 130.247 140.272  0.00  0.00    +0.000 A 
ATOM     17  C   UNL     1     113.210 129.545 139.173  0.00  0.00    +0.000 A 
ATOM     18  C   UNL     1     113.896 129.423 139.615  0.00  0.00    +0.000 A 
ATOM     19  C   UNL     1     112.575 129.957 139.501  0.00  0.00    +0.000 A 
BRANCH  14  20
ATOM     20  O   UNL     1     113.362 130.415 141.485  0.00  0.00    +0.000 OA
BRANCH  20  29
ATOM     21  O   UNL     1     112.522 129.458 142.132  0.00  0.00    +0.000 OA
ATOM     22  O   UNL     1     111.492 131.265 143.472  0.00  0.00    +0.000 OA
ATOM     23  O   UNL     1     110.995 129.705 143.672  0.00  0.00    +0.000 OA
ATOM     24  O   UNL     1     112.675 131.620 142.378  0.00  0.00    +0.000 OA
ATOM     25  C   UNL     1     111.835 130.662 143.025  0.00  0.00    +0.000 C 
ATOM     26  C   UNL     1     111.587 129.883 143.126  0.00  0.00    +0.000 C 
ATOM     27  C   UNL     1     112.427 130.840 142.478  0.00  0.00    +0.000 C 
ATOM     28  C   UNL     1     111.931 129.280 142.679  0.00  0.00    +0.000 C 
ATOM     29  C   UNL     1     112.771 130.237 142.032  0.00  0.00    +0.000 C 
ATOM     30  C   UNL     1     111.682 128.500 142.779  0.00  0.00    +0.000 C 
ENDBRANCH  20  29
ENDBRANCH  14  20
ENDBRANCH  10  17
BRANCH   4  31
ATOM     31  O   UNL     1     111.895 126.473 136.401  0.00  0.00    +0.000 OA
BRANCH  31  40
ATOM     32  O   UNL     1     113.099 125.719 136.549  0.00  0.00    +0.000 OA
ATOM     33  O   UNL     1     111.772 123.718 137.150  0.00  0.00    +0.000 OA
ATOM     34  O   UNL     1     113.419 123.630 137.098  0.00  0.00    +0.000 OA
ATOM     35  O   UNL     1     111.010 125.140 136.801  0.00  0.00    +0.000 OA
ATOM     36  C   UNL     1     112.215 124.385 136.950  0.00  0.00    +0.000 C 
ATOM     37  C   UNL     1     113.038 124.342 136.923  0.00  0.00    +0.000 C 
ATOM     38  C   UNL     1     111.834 125.095 136.775  0.00  0.00    +0.000 C 
ATOM     39  C   UNL     1     113.481 125.008 136.723  0.00  0.00    +0.000 C 
ATOM     40  C   UNL     1     112.276 125.763 136.575  0.00  0.00    +0.000 C 
BRANCH  39  43
ATOM     41  O   UNL     1     114.688 124.853 135.975  0.00  0.00    +0.000 OA
ATOM     42  O   UNL     1     114.742 125.033 137.392  0.00  0.00    +0.000 OA
ATOM     43  C   UNL     1     114.304 124.964 136.697  0.00  0.00    +0.000 C 
ENDBRANCH  39  43
ENDBRANCH  31  40
ENDBRANCH   4  31
TORSDOF 6
ENDMDL
