MODEL 1
REMARK VINA RESULT:      -7.8      0.000      0.000
REMARK  Name = null
REMARK  3 active torsions:
REMARK  status: ('A' for Active; 'I' for Inactive)
REMARK    1  A    between atoms: O_2  and  C_3
REMARK    2  A    between atoms: C_6  and  C_9
REMARK    3  A    between atoms: C_17  and  O_20
REMARK                            x       y       z     vdW  Elec       q    Type
REMARK                         _______ _______ _______ _____ _____    ______ ____
ROOT
ATOM      1  C   UNL     1     111.408 125.227 136.321  0.00  0.00    +0.000 C 
ATOM      2  C   UNL     1     111.341 124.454 136.605  0.00  0.00    +0.000 C 
ATOM      3  C   UNL     1     112.017 124.037 136.829  0.00  0.00    +0.000 C 
ATOM      4  O   UNL     1     111.950 123.266 137.113  0.00  0.00    +0.000 OA
ATOM      5  C   UNL     1     112.760 124.391 136.770  0.00  0.00    +0.000 A 
ATOM      6  C   UNL     1     112.827 125.164 136.486  0.00  0.00    +0.000 A 
ATOM      7  O   UNL     1     112.151 125.581 136.262  0.00  0.00    +0.000 OA
ATOM      8  C   UNL     1     113.569 125.518 136.426  0.00  0.00    +0.000 A 
ATOM      9  C   UNL     1     114.244 125.101 136.650  0.00  0.00    +0.000 A 
ATOM     10  C   UNL     1     114.177 124.329 136.934  0.00  0.00    +0.000 A 
ATOM     11  C   UNL     1     113.435 123.975 136.993  0.00  0.00    +0.000 A 
ENDROOT
BRANCH   1  15
ATOM     12  C   UNL     1     109.382 126.478 135.649  0.00  0.00    +0.000 A 
ATOM     13  C   UNL     1     109.786 126.018 135.095  0.00  0.00    +0.000 A 
ATOM     14  C   UNL     1     110.461 125.601 135.320  0.00  0.00    +0.000 A 
ATOM     15  C   UNL     1     110.733 125.644 136.097  0.00  0.00    +0.000 A 
ATOM     16  C   UNL     1     110.329 126.103 136.650  0.00  0.00    +0.000 A 
ATOM     17  C   UNL     1     109.654 126.520 136.427  0.00  0.00    +0.000 A 
BRANCH  12  19
ATOM     18  C   UNL     1     108.573 127.654 135.720  0.00  0.00    +0.000 C 
ATOM     19  O   UNL     1     108.706 126.895 135.424  0.00  0.00    +0.000 OA
ENDBRANCH  12  19
ENDBRANCH   1  15
BRANCH   9  20
ATOM     20  O   UNL     1     114.987 125.455 136.591  0.00  0.00    +0.000 OA
ATOM     21  C   UNL     1     115.424 125.381 135.895  0.00  0.00    +0.000 C 
ENDBRANCH   9  20
TORSDOF 3
ENDMDL
MODEL 2
REMARK VINA RESULT:      -7.8     11.978     12.859
REMARK  Name = null
REMARK  3 active torsions:
REMARK  status: ('A' for Active; 'I' for Inactive)
REMARK    1  A    between atoms: O_2  and  C_3
REMARK    2  A    between atoms: C_6  and  C_9
REMARK    3  A    between atoms: C_17  and  O_20
REMARK                            x       y       z     vdW  Elec       q    Type
REMARK                         _______ _______ _______ _____ _____    ______ ____
ROOT
ATOM      1  C   UNL     1     104.978 124.491 146.698  0.00  0.00    +0.000 C 
ATOM      2  C   UNL     1     105.447 124.785 146.084  0.00  0.00    +0.000 C 
ATOM      3  C   UNL     1     106.214 125.045 146.240  0.00  0.00    +0.000 C 
ATOM      4  O   UNL     1     106.682 125.338 145.627  0.00  0.00    +0.000 OA
ATOM      5  C   UNL     1     106.515 125.010 147.007  0.00  0.00    +0.000 A 
ATOM      6  C   UNL     1     106.047 124.716 147.621  0.00  0.00    +0.000 A 
ATOM      7  O   UNL     1     105.279 124.457 147.466  0.00  0.00    +0.000 OA
ATOM      8  C   UNL     1     106.347 124.682 148.388  0.00  0.00    +0.000 A 
ATOM      9  C   UNL     1     107.114 124.941 148.543  0.00  0.00    +0.000 A 
ATOM     10  C   UNL     1     107.582 125.235 147.929  0.00  0.00    +0.000 A 
ATOM     11  C   UNL     1     107.282 125.270 147.162  0.00  0.00    +0.000 A 
ENDROOT
BRANCH   1  15
ATOM     12  C   UNL     1     102.676 123.714 146.233  0.00  0.00    +0.000 A 
ATOM     13  C   UNL     1     102.798 124.402 146.672  0.00  0.00    +0.000 A 
ATOM     14  C   UNL     1     103.566 124.661 146.827  0.00  0.00    +0.000 A 
ATOM     15  C   UNL     1     104.211 124.232 146.543  0.00  0.00    +0.000 A 
ATOM     16  C   UNL     1     104.089 123.545 146.105  0.00  0.00    +0.000 A 
ATOM     17  C   UNL     1     103.321 123.285 145.950  0.00  0.00    +0.000 A 
BRANCH  12  19
ATOM     18  C   UNL     1     101.506 122.998 146.638  0.00  0.00    +0.000 C 
ATOM     19  O   UNL     1     101.908 123.455 146.079  0.00  0.00    +0.000 OA
ENDBRANCH  12  19
ENDBRANCH   1  15
BRANCH   9  20
ATOM     20  O   UNL     1     107.415 124.907 149.311  0.00  0.00    +0.000 OA
ATOM     21  C   UNL     1     107.931 124.300 149.524  0.00  0.00    +0.000 C 
ENDBRANCH   9  20
TORSDOF 3
ENDMDL
MODEL 3
REMARK VINA RESULT:      -7.6      9.767     11.971
REMARK  Name = null
REMARK  3 active torsions:
REMARK  status: ('A' for Active; 'I' for Inactive)
REMARK    1  A    between atoms: O_2  and  C_3
REMARK    2  A    between atoms: C_6  and  C_9
REMARK    3  A    between atoms: C_17  and  O_20
REMARK                            x       y       z     vdW  Elec       q    Type
REMARK                         _______ _______ _______ _____ _____    ______ ____
ROOT
ATOM      1  C   UNL     1     102.352 130.820 141.463  0.00  0.00    +0.000 C 
ATOM      2  C   UNL     1     102.216 130.440 140.742  0.00  0.00    +0.000 C 
ATOM      3  C   UNL     1     102.617 129.742 140.563  0.00  0.00    +0.000 C 
ATOM      4  O   UNL     1     102.482 129.362 139.843  0.00  0.00    +0.000 OA
ATOM      5  C   UNL     1     103.154 129.423 141.102  0.00  0.00    +0.000 A 
ATOM      6  C   UNL     1     103.290 129.803 141.822  0.00  0.00    +0.000 A 
ATOM      7  O   UNL     1     102.889 130.501 142.002  0.00  0.00    +0.000 OA
ATOM      8  C   UNL     1     103.827 129.485 142.361  0.00  0.00    +0.000 A 
ATOM      9  C   UNL     1     104.227 128.787 142.181  0.00  0.00    +0.000 A 
ATOM     10  C   UNL     1     104.091 128.407 141.461  0.00  0.00    +0.000 A 
ATOM     11  C   UNL     1     103.555 128.725 140.922  0.00  0.00    +0.000 A 
ENDROOT
BRANCH   1  15
ATOM     12  C   UNL     1     101.149 132.914 142.003  0.00  0.00    +0.000 A 
ATOM     13  C   UNL     1     100.784 132.184 142.130  0.00  0.00    +0.000 A 
ATOM     14  C   UNL     1     101.186 131.487 141.949  0.00  0.00    +0.000 A 
ATOM     15  C   UNL     1     101.951 131.518 141.643  0.00  0.00    +0.000 A 
ATOM     16  C   UNL     1     102.315 132.247 141.517  0.00  0.00    +0.000 A 
ATOM     17  C   UNL     1     101.914 132.946 141.697  0.00  0.00    +0.000 A 
BRANCH  12  19
ATOM     18  C   UNL     1     100.711 134.222 141.628  0.00  0.00    +0.000 C 
ATOM     19  O   UNL     1     100.747 133.612 142.184  0.00  0.00    +0.000 OA
ENDBRANCH  12  19
ENDBRANCH   1  15
BRANCH   9  20
ATOM     20  O   UNL     1     104.764 128.468 142.721  0.00  0.00    +0.000 OA
ATOM     21  C   UNL     1     105.193 127.791 142.524  0.00  0.00    +0.000 C 
ENDBRANCH   9  20
TORSDOF 3
ENDMDL
MODEL 4
REMARK VINA RESULT:      -7.6      6.536      7.946
REMARK  Name = null
REMARK  3 active torsions:
REMARK  status: ('A' for Active; 'I' for Inactive)
REMARK    1  A    between atoms: O_2  and  C_3
REMARK    2  A    between atoms: C_6  and  C_9
REMARK    3  A    between atoms: C_17  and  O_20
REMARK                            x       y       z     vdW  Elec       q    Type
REMARK                         _______ _______ _______ _____ _____    ______ ____
ROOT
ATOM      1  C   UNL     1     104.476 123.717 139.228  0.00  0.00    +0.000 C 
ATOM      2  C   UNL     1     104.360 123.258 139.905  0.00  0.00    +0.000 C 
ATOM      3  C   UNL     1     104.849 123.359 140.561  0.00  0.00    +0.000 C 
ATOM      4  O   UNL     1     104.733 122.901 141.237  0.00  0.00    +0.000 OA
ATOM      5  C   UNL     1     105.455 123.919 140.543  0.00  0.00    +0.000 A 
ATOM      6  C   UNL     1     105.572 124.378 139.866  0.00  0.00    +0.000 A 
ATOM      7  O   UNL     1     105.082 124.277 139.209  0.00  0.00    +0.000 OA
ATOM      8  C   UNL     1     106.177 124.938 139.847  0.00  0.00    +0.000 A 
ATOM      9  C   UNL     1     106.666 125.039 140.503  0.00  0.00    +0.000 A 
ATOM     10  C   UNL     1     106.549 124.580 141.179  0.00  0.00    +0.000 A 
ATOM     11  C   UNL     1     105.944 124.021 141.198  0.00  0.00    +0.000 A 
ENDROOT
BRANCH   1  15
ATOM     12  C   UNL     1     103.008 123.413 137.259  0.00  0.00    +0.000 A 
ATOM     13  C   UNL     1     102.688 123.661 137.979  0.00  0.00    +0.000 A 
ATOM     14  C   UNL     1     103.178 123.762 138.635  0.00  0.00    +0.000 A 
ATOM     15  C   UNL     1     103.987 123.615 138.572  0.00  0.00    +0.000 A 
ATOM     16  C   UNL     1     104.307 123.368 137.854  0.00  0.00    +0.000 A 
ATOM     17  C   UNL     1     103.818 123.266 137.197  0.00  0.00    +0.000 A 
BRANCH  12  19
ATOM     18  C   UNL     1     102.845 123.109 135.873  0.00  0.00    +0.000 C 
ATOM     19  O   UNL     1     102.518 123.312 136.604  0.00  0.00    +0.000 OA
ENDBRANCH  12  19
ENDBRANCH   1  15
BRANCH   9  20
ATOM     20  O   UNL     1     107.272 125.599 140.484  0.00  0.00    +0.000 OA
ATOM     21  C   UNL     1     108.034 125.389 140.721  0.00  0.00    +0.000 C 
ENDBRANCH   9  20
TORSDOF 3
ENDMDL
MODEL 5
REMARK VINA RESULT:      -7.5      1.018      4.469
REMARK  Name = null
REMARK  3 active torsions:
REMARK  status: ('A' for Active; 'I' for Inactive)
REMARK    1  A    between atoms: O_2  and  C_3
REMARK    2  A    between atoms: C_6  and  C_9
REMARK    3  A    between atoms: C_17  and  O_20
REMARK                            x       y       z     vdW  Elec       q    Type
REMARK                         _______ _______ _______ _____ _____    ______ ____
ROOT
ATOM      1  C   UNL     1     111.143 125.667 136.158  0.00  0.00    +0.000 C 
ATOM      2  C   UNL     1     110.720 125.382 135.507  0.00  0.00    +0.000 C 
ATOM      3  C   UNL     1     110.032 125.767 135.262  0.00  0.00    +0.000 C 
ATOM      4  O   UNL     1     109.611 125.482 134.613  0.00  0.00    +0.000 OA
ATOM      5  C   UNL     1     109.766 126.435 135.666  0.00  0.00    +0.000 A 
ATOM      6  C   UNL     1     110.188 126.720 136.317  0.00  0.00    +0.000 A 
ATOM      7  O   UNL     1     110.876 126.335 136.562  0.00  0.00    +0.000 OA
ATOM      8  C   UNL     1     109.922 127.387 136.721  0.00  0.00    +0.000 A 
ATOM      9  C   UNL     1     109.234 127.771 136.475  0.00  0.00    +0.000 A 
ATOM     10  C   UNL     1     108.812 127.486 135.825  0.00  0.00    +0.000 A 
ATOM     11  C   UNL     1     109.078 126.819 135.421  0.00  0.00    +0.000 A 
ENDROOT
BRANCH   1  15
ATOM     12  C   UNL     1     113.206 124.516 136.893  0.00  0.00    +0.000 A 
ATOM     13  C   UNL     1     113.255 125.240 136.500  0.00  0.00    +0.000 A 
ATOM     14  C   UNL     1     112.567 125.624 136.255  0.00  0.00    +0.000 A 
ATOM     15  C   UNL     1     111.830 125.283 136.403  0.00  0.00    +0.000 A 
ATOM     16  C   UNL     1     111.781 124.560 136.795  0.00  0.00    +0.000 A 
ATOM     17  C   UNL     1     112.469 124.176 137.040  0.00  0.00    +0.000 A 
BRANCH  12  19
ATOM     18  C   UNL     1     114.589 124.564 137.248  0.00  0.00    +0.000 C 
ATOM     19  O   UNL     1     113.894 124.133 137.138  0.00  0.00    +0.000 OA
ENDBRANCH  12  19
ENDBRANCH   1  15
BRANCH   9  20
ATOM     20  O   UNL     1     108.968 128.439 136.879  0.00  0.00    +0.000 OA
ATOM     21  C   UNL     1     109.052 129.186 136.540  0.00  0.00    +0.000 C 
ENDBRANCH   9  20
TORSDOF 3
ENDMDL
MODEL 6
REMARK VINA RESULT:      -7.4      2.900      4.320
REMARK  Name = null
REMARK  3 active torsions:
REMARK  status: ('A' for Active; 'I' for Inactive)
REMARK    1  A    between atoms: O_2  and  C_3
REMARK    2  A    between atoms: C_6  and  C_9
REMARK    3  A    between atoms: C_17  and  O_20
REMARK                            x       y       z     vdW  Elec       q    Type
REMARK                         _______ _______ _______ _____ _____    ______ ____
ROOT
ATOM      1  C   UNL     1     113.530 126.211 138.577  0.00  0.00    +0.000 C 
ATOM      2  C   UNL     1     114.237 125.858 138.337  0.00  0.00    +0.000 C 
ATOM      3  C   UNL     1     114.230 125.277 137.751  0.00  0.00    +0.000 C 
ATOM      4  O   UNL     1     114.936 124.924 137.512  0.00  0.00    +0.000 OA
ATOM      5  C   UNL     1     113.517 125.048 137.404  0.00  0.00    +0.000 A 
ATOM      6  C   UNL     1     112.810 125.401 137.644  0.00  0.00    +0.000 A 
ATOM      7  O   UNL     1     112.817 125.982 138.230  0.00  0.00    +0.000 OA
ATOM      8  C   UNL     1     112.097 125.173 137.297  0.00  0.00    +0.000 A 
ATOM      9  C   UNL     1     112.091 124.592 136.712  0.00  0.00    +0.000 A 
ATOM     10  C   UNL     1     112.798 124.239 136.473  0.00  0.00    +0.000 A 
ATOM     11  C   UNL     1     113.510 124.467 136.819  0.00  0.00    +0.000 A 
ENDROOT
BRANCH   1  15
ATOM     12  C   UNL     1     113.551 127.953 140.334  0.00  0.00    +0.000 A 
ATOM     13  C   UNL     1     113.736 127.171 140.525  0.00  0.00    +0.000 A 
ATOM     14  C   UNL     1     113.729 126.591 139.939  0.00  0.00    +0.000 A 
ATOM     15  C   UNL     1     113.537 126.791 139.162  0.00  0.00    +0.000 A 
ATOM     16  C   UNL     1     113.352 127.572 138.971  0.00  0.00    +0.000 A 
ATOM     17  C   UNL     1     113.359 128.153 139.557  0.00  0.00    +0.000 A 
BRANCH  12  19
ATOM     18  C   UNL     1     114.040 129.198 140.836  0.00  0.00    +0.000 C 
ATOM     19  O   UNL     1     113.558 128.533 140.920  0.00  0.00    +0.000 OA
ENDBRANCH  12  19
ENDBRANCH   1  15
BRANCH   9  20
ATOM     20  O   UNL     1     111.378 124.364 136.365  0.00  0.00    +0.000 OA
ATOM     21  C   UNL     1     111.019 124.849 135.803  0.00  0.00    +0.000 C 
ENDBRANCH   9  20
TORSDOF 3
ENDMDL
MODEL 7
REMARK VINA RESULT:      -7.3      9.712     12.904
REMARK  Name = null
REMARK  3 active torsions:
REMARK  status: ('A' for Active; 'I' for Inactive)
REMARK    1  A    between atoms: O_2  and  C_3
REMARK    2  A    between atoms: C_6  and  C_9
REMARK    3  A    between atoms: C_17  and  O_20
REMARK                            x       y       z     vdW  Elec       q    Type
REMARK                         _______ _______ _______ _____ _____    ______ ____
ROOT
ATOM      1  C   UNL     1     102.419 131.280 141.528  0.00  0.00    +0.000 C 
ATOM      2  C   UNL     1     101.734 131.334 141.986  0.00  0.00    +0.000 C 
ATOM      3  C   UNL     1     101.394 132.071 142.134  0.00  0.00    +0.000 C 
ATOM      4  O   UNL     1     100.710 132.125 142.592  0.00  0.00    +0.000 OA
ATOM      5  C   UNL     1     101.737 132.755 141.824  0.00  0.00    +0.000 A 
ATOM      6  C   UNL     1     102.422 132.701 141.365  0.00  0.00    +0.000 A 
ATOM      7  O   UNL     1     102.762 131.964 141.218  0.00  0.00    +0.000 OA
ATOM      8  C   UNL     1     102.765 133.383 141.055  0.00  0.00    +0.000 A 
ATOM      9  C   UNL     1     102.425 134.120 141.203  0.00  0.00    +0.000 A 
ATOM     10  C   UNL     1     101.740 134.173 141.661  0.00  0.00    +0.000 A 
ATOM     11  C   UNL     1     101.397 133.491 141.971  0.00  0.00    +0.000 A 
ENDROOT
BRANCH   1  15
ATOM     12  C   UNL     1     103.440 129.070 141.085  0.00  0.00    +0.000 A 
ATOM     13  C   UNL     1     102.912 129.398 140.541  0.00  0.00    +0.000 A 
ATOM     14  C   UNL     1     102.572 130.134 140.689  0.00  0.00    +0.000 A 
ATOM     15  C   UNL     1     102.759 130.544 141.380  0.00  0.00    +0.000 A 
ATOM     16  C   UNL     1     103.286 130.217 141.923  0.00  0.00    +0.000 A 
ATOM     17  C   UNL     1     103.627 129.480 141.776  0.00  0.00    +0.000 A 
BRANCH  12  19
ATOM     18  C   UNL     1     104.429 128.082 141.380  0.00  0.00    +0.000 C 
ATOM     19  O   UNL     1     103.780 128.333 140.936  0.00  0.00    +0.000 OA
ENDBRANCH  12  19
ENDBRANCH   1  15
BRANCH   9  20
ATOM     20  O   UNL     1     102.768 134.803 140.893  0.00  0.00    +0.000 OA
ATOM     21  C   UNL     1     102.311 135.329 140.451  0.00  0.00    +0.000 C 
ENDBRANCH   9  20
TORSDOF 3
ENDMDL
MODEL 8
REMARK VINA RESULT:      -7.2      2.952      4.418
REMARK  Name = null
REMARK  3 active torsions:
REMARK  status: ('A' for Active; 'I' for Inactive)
REMARK    1  A    between atoms: O_2  and  C_3
REMARK    2  A    between atoms: C_6  and  C_9
REMARK    3  A    between atoms: C_17  and  O_20
REMARK                            x       y       z     vdW  Elec       q    Type
REMARK                         _______ _______ _______ _____ _____    ______ ____
ROOT
ATOM      1  C   UNL     1     113.456 127.202 136.617  0.00  0.00    +0.000 C 
ATOM      2  C   UNL     1     113.140 127.656 137.231  0.00  0.00    +0.000 C 
ATOM      3  C   UNL     1     113.216 128.477 137.217  0.00  0.00    +0.000 C 
ATOM      4  O   UNL     1     112.901 128.930 137.831  0.00  0.00    +0.000 OA
ATOM      5  C   UNL     1     113.606 128.847 136.591  0.00  0.00    +0.000 A 
ATOM      6  C   UNL     1     113.921 128.393 135.977  0.00  0.00    +0.000 A 
ATOM      7  O   UNL     1     113.846 127.571 135.991  0.00  0.00    +0.000 OA
ATOM      8  C   UNL     1     114.311 128.762 135.351  0.00  0.00    +0.000 A 
ATOM      9  C   UNL     1     114.386 129.582 135.338  0.00  0.00    +0.000 A 
ATOM     10  C   UNL     1     114.071 130.036 135.952  0.00  0.00    +0.000 A 
ATOM     11  C   UNL     1     113.681 129.667 136.578  0.00  0.00    +0.000 A 
ENDROOT
BRANCH   1  15
ATOM     12  C   UNL     1     113.230 124.738 136.657  0.00  0.00    +0.000 A 
ATOM     13  C   UNL     1     113.938 125.092 136.894  0.00  0.00    +0.000 A 
ATOM     14  C   UNL     1     114.012 125.913 136.880  0.00  0.00    +0.000 A 
ATOM     15  C   UNL     1     113.380 126.381 136.630  0.00  0.00    +0.000 A 
ATOM     16  C   UNL     1     112.674 126.028 136.394  0.00  0.00    +0.000 A 
ATOM     17  C   UNL     1     112.599 125.206 136.407  0.00  0.00    +0.000 A 
BRANCH  12  19
ATOM     18  C   UNL     1     112.429 123.572 136.857  0.00  0.00    +0.000 C 
ATOM     19  O   UNL     1     113.156 123.917 136.671  0.00  0.00    +0.000 OA
ENDBRANCH  12  19
ENDBRANCH   1  15
BRANCH   9  20
ATOM     20  O   UNL     1     114.776 129.952 134.711  0.00  0.00    +0.000 OA
ATOM     21  C   UNL     1     115.365 130.509 134.864  0.00  0.00    +0.000 C 
ENDBRANCH   9  20
TORSDOF 3
ENDMDL
MODEL 9
REMARK VINA RESULT:      -7.2     11.610     12.602
REMARK  Name = null
REMARK  3 active torsions:
REMARK  status: ('A' for Active; 'I' for Inactive)
REMARK    1  A    between atoms: O_2  and  C_3
REMARK    2  A    between atoms: C_6  and  C_9
REMARK    3  A    between atoms: C_17  and  O_20
REMARK                            x       y       z     vdW  Elec       q    Type
REMARK                         _______ _______ _______ _____ _____    ______ ____
ROOT
ATOM      1  C   UNL     1     104.014 124.181 146.401  0.00  0.00    +0.000 C 
ATOM      2  C   UNL     1     104.344 124.157 147.158  0.00  0.00    +0.000 C 
ATOM      3  C   UNL     1     105.074 124.515 147.300  0.00  0.00    +0.000 C 
ATOM      4  O   UNL     1     105.404 124.491 148.055  0.00  0.00    +0.000 OA
ATOM      5  C   UNL     1     105.474 124.897 146.687  0.00  0.00    +0.000 A 
ATOM      6  C   UNL     1     105.143 124.921 145.930  0.00  0.00    +0.000 A 
ATOM      7  O   UNL     1     104.414 124.563 145.788  0.00  0.00    +0.000 OA
ATOM      8  C   UNL     1     105.543 125.302 145.318  0.00  0.00    +0.000 A 
ATOM      9  C   UNL     1     106.272 125.659 145.461  0.00  0.00    +0.000 A 
ATOM     10  C   UNL     1     106.602 125.635 146.217  0.00  0.00    +0.000 A 
ATOM     11  C   UNL     1     106.203 125.254 146.829  0.00  0.00    +0.000 A 
ENDROOT
BRANCH   1  15
ATOM     12  C   UNL     1     101.825 123.108 145.973  0.00  0.00    +0.000 A 
ATOM     13  C   UNL     1     102.521 122.740 145.725  0.00  0.00    +0.000 A 
ATOM     14  C   UNL     1     103.250 123.098 145.868  0.00  0.00    +0.000 A 
ATOM     15  C   UNL     1     103.285 123.824 146.259  0.00  0.00    +0.000 A 
ATOM     16  C   UNL     1     102.590 124.191 146.506  0.00  0.00    +0.000 A 
ATOM     17  C   UNL     1     101.859 123.834 146.364  0.00  0.00    +0.000 A 
BRANCH  12  19
ATOM     18  C   UNL     1     100.763 122.780 145.075  0.00  0.00    +0.000 C 
ATOM     19  O   UNL     1     101.096 122.750 145.830  0.00  0.00    +0.000 OA
ENDBRANCH  12  19
ENDBRANCH   1  15
BRANCH   9  20
ATOM     20  O   UNL     1     106.672 126.041 144.848  0.00  0.00    +0.000 OA
ATOM     21  C   UNL     1     106.621 126.861 144.771  0.00  0.00    +0.000 C 
ENDBRANCH   9  20
TORSDOF 3
ENDMDL
MODEL 10
REMARK VINA RESULT:      -7.1      2.270      2.792
REMARK  Name = null
REMARK  3 active torsions:
REMARK  status: ('A' for Active; 'I' for Inactive)
REMARK    1  A    between atoms: O_2  and  C_3
REMARK    2  A    between atoms: C_6  and  C_9
REMARK    3  A    between atoms: C_17  and  O_20
REMARK                            x       y       z     vdW  Elec       q    Type
REMARK                         _______ _______ _______ _____ _____    ______ ____
ROOT
ATOM      1  C   UNL     1     112.481 125.853 137.119  0.00  0.00    +0.000 C 
ATOM      2  C   UNL     1     113.248 125.567 137.010  0.00  0.00    +0.000 C 
ATOM      3  C   UNL     1     113.811 125.660 137.606  0.00  0.00    +0.000 C 
ATOM      4  O   UNL     1     114.577 125.374 137.498  0.00  0.00    +0.000 OA
ATOM      5  C   UNL     1     113.609 126.039 138.311  0.00  0.00    +0.000 A 
ATOM      6  C   UNL     1     112.842 126.326 138.420  0.00  0.00    +0.000 A 
ATOM      7  O   UNL     1     112.279 126.232 137.824  0.00  0.00    +0.000 OA
ATOM      8  C   UNL     1     112.640 126.704 139.123  0.00  0.00    +0.000 A 
ATOM      9  C   UNL     1     113.203 126.797 139.718  0.00  0.00    +0.000 A 
ATOM     10  C   UNL     1     113.970 126.511 139.610  0.00  0.00    +0.000 A 
ATOM     11  C   UNL     1     114.172 126.132 138.906  0.00  0.00    +0.000 A 
ENDROOT
BRANCH   1  15
ATOM     12  C   UNL     1     110.792 125.574 135.333  0.00  0.00    +0.000 A 
ATOM     13  C   UNL     1     110.956 124.949 135.847  0.00  0.00    +0.000 A 
ATOM     14  C   UNL     1     111.519 125.043 136.442  0.00  0.00    +0.000 A 
ATOM     15  C   UNL     1     111.918 125.760 136.524  0.00  0.00    +0.000 A 
ATOM     16  C   UNL     1     111.754 126.384 136.011  0.00  0.00    +0.000 A 
ATOM     17  C   UNL     1     111.191 126.291 135.415  0.00  0.00    +0.000 A 
BRANCH  12  19
ATOM     18  C   UNL     1     109.507 125.878 134.787  0.00  0.00    +0.000 C 
ATOM     19  O   UNL     1     110.228 125.480 134.738  0.00  0.00    +0.000 OA
ENDBRANCH  12  19
ENDBRANCH   1  15
BRANCH   9  20
ATOM     20  O   UNL     1     113.001 127.176 140.423  0.00  0.00    +0.000 OA
ATOM     21  C   UNL     1     113.524 127.168 141.060  0.00  0.00    +0.000 C 
ENDBRANCH   9  20
TORSDOF 3
ENDMDL
