MODEL 1
REMARK VINA RESULT:      -8.7      0.000      0.000
REMARK  Name = 9839293
REMARK  2 active torsions:
REMARK  status: ('A' for Active; 'I' for Inactive)
REMARK    1  A    between atoms: O_2  and  C_10
REMARK    2  A    between atoms: C_7  and  C_11
REMARK                            x       y       z     vdW  Elec       q    Type
REMARK                         _______ _______ _______ _____ _____    ______ ____
ROOT
ATOM      1  O   UNL     1     105.616 124.438 147.721  0.00  0.00    +0.000 OA
ATOM      2  O   UNL     1     107.049 125.571 146.050  0.00  0.00    +0.000 OA
ATOM      3  O   UNL     1     107.830 124.383 149.612  0.00  0.00    +0.000 OA
ATOM      4  C   UNL     1     105.308 124.638 146.982  0.00  0.00    +0.000 A 
ATOM      5  C   UNL     1     106.878 124.993 147.346  0.00  0.00    +0.000 A 
ATOM      6  C   UNL     1     106.401 124.616 147.903  0.00  0.00    +0.000 A 
ATOM      7  C   UNL     1     105.786 125.016 146.425  0.00  0.00    +0.000 A 
ATOM      8  C   UNL     1     106.571 125.193 146.607  0.00  0.00    +0.000 A 
ATOM      9  C   UNL     1     107.697 125.183 147.524  0.00  0.00    +0.000 A 
ATOM     10  C   UNL     1     106.709 124.402 148.676  0.00  0.00    +0.000 A 
ATOM     11  C   UNL     1     107.526 124.584 148.872  0.00  0.00    +0.000 A 
ATOM     12  C   UNL     1     108.023 124.977 148.292  0.00  0.00    +0.000 A 
ENDROOT
BRANCH   4  15
ATOM     13  O   UNL     1     103.372 122.881 145.827  0.00  0.00    +0.000 OA
ATOM     14  O   UNL     1     102.169 123.928 146.252  0.00  0.00    +0.000 OA
ATOM     15  C   UNL     1     104.524 124.461 146.799  0.00  0.00    +0.000 A 
ATOM     16  C   UNL     1     104.341 123.760 146.405  0.00  0.00    +0.000 A 
ATOM     17  C   UNL     1     103.922 124.984 147.011  0.00  0.00    +0.000 A 
ATOM     18  C   UNL     1     103.556 123.582 146.222  0.00  0.00    +0.000 A 
ATOM     19  C   UNL     1     103.138 124.806 146.829  0.00  0.00    +0.000 A 
ATOM     20  C   UNL     1     102.955 124.106 146.434  0.00  0.00    +0.000 A 
ENDBRANCH   4  15
BRANCH   7  21
ATOM     21  O   UNL     1     105.479 125.216 145.686  0.00  0.00    +0.000 OA
ATOM     22  C   UNL     1     105.966 125.563 145.117  0.00  0.00    +0.000 C 
ENDBRANCH   7  21
TORSDOF 2
ENDMDL
MODEL 2
REMARK VINA RESULT:      -8.1      1.128      4.180
REMARK  Name = 9839293
REMARK  2 active torsions:
REMARK  status: ('A' for Active; 'I' for Inactive)
REMARK    1  A    between atoms: O_2  and  C_10
REMARK    2  A    between atoms: C_7  and  C_11
REMARK                            x       y       z     vdW  Elec       q    Type
REMARK                         _______ _______ _______ _____ _____    ______ ____
ROOT
ATOM      1  O   UNL     1     105.146 124.193 147.319  0.00  0.00    +0.000 OA
ATOM      2  O   UNL     1     103.567 125.723 148.456  0.00  0.00    +0.000 OA
ATOM      3  O   UNL     1     103.000 123.215 145.611  0.00  0.00    +0.000 OA
ATOM      4  C   UNL     1     105.413 124.685 147.925  0.00  0.00    +0.000 A 
ATOM      5  C   UNL     1     103.827 124.721 147.471  0.00  0.00    +0.000 A 
ATOM      6  C   UNL     1     104.354 124.211 147.092  0.00  0.00    +0.000 A 
ATOM      7  C   UNL     1     104.887 125.195 148.304  0.00  0.00    +0.000 A 
ATOM      8  C   UNL     1     104.093 125.213 148.077  0.00  0.00    +0.000 A 
ATOM      9  C   UNL     1     102.999 124.749 147.243  0.00  0.00    +0.000 A 
ATOM     10  C   UNL     1     104.088 123.694 146.459  0.00  0.00    +0.000 A 
ATOM     11  C   UNL     1     103.264 123.708 146.218  0.00  0.00    +0.000 A 
ATOM     12  C   UNL     1     102.716 124.239 146.612  0.00  0.00    +0.000 A 
ENDROOT
BRANCH   4  15
ATOM     13  O   UNL     1     108.138 125.413 147.461  0.00  0.00    +0.000 OA
ATOM     14  O   UNL     1     108.585 124.614 148.834  0.00  0.00    +0.000 OA
ATOM     15  C   UNL     1     106.205 124.668 148.152  0.00  0.00    +0.000 A 
ATOM     16  C   UNL     1     106.775 125.049 147.693  0.00  0.00    +0.000 A 
ATOM     17  C   UNL     1     106.430 124.268 148.839  0.00  0.00    +0.000 A 
ATOM     18  C   UNL     1     107.568 125.031 147.921  0.00  0.00    +0.000 A 
ATOM     19  C   UNL     1     107.222 124.251 149.066  0.00  0.00    +0.000 A 
ATOM     20  C   UNL     1     107.791 124.632 148.607  0.00  0.00    +0.000 A 
ENDBRANCH   4  15
BRANCH   7  21
ATOM     21  O   UNL     1     105.153 125.687 148.910  0.00  0.00    +0.000 OA
ATOM     22  C   UNL     1     104.674 126.301 149.184  0.00  0.00    +0.000 C 
ENDBRANCH   7  21
TORSDOF 2
ENDMDL
MODEL 3
REMARK VINA RESULT:      -8.0     12.470     13.524
REMARK  Name = 9839293
REMARK  2 active torsions:
REMARK  status: ('A' for Active; 'I' for Inactive)
REMARK    1  A    between atoms: O_2  and  C_10
REMARK    2  A    between atoms: C_7  and  C_11
REMARK                            x       y       z     vdW  Elec       q    Type
REMARK                         _______ _______ _______ _____ _____    ______ ____
ROOT
ATOM      1  O   UNL     1     111.930 125.821 136.054  0.00  0.00    +0.000 OA
ATOM      2  O   UNL     1     111.846 128.270 135.710  0.00  0.00    +0.000 OA
ATOM      3  O   UNL     1     109.419 125.511 134.613  0.00  0.00    +0.000 OA
ATOM      4  C   UNL     1     112.533 126.300 136.351  0.00  0.00    +0.000 A 
ATOM      5  C   UNL     1     111.272 126.974 135.528  0.00  0.00    +0.000 A 
ATOM      6  C   UNL     1     111.300 126.157 135.643  0.00  0.00    +0.000 A 
ATOM      7  C   UNL     1     112.505 127.116 136.237  0.00  0.00    +0.000 A 
ATOM      8  C   UNL     1     111.874 127.454 135.825  0.00  0.00    +0.000 A 
ATOM      9  C   UNL     1     110.620 127.337 135.101  0.00  0.00    +0.000 A 
ATOM     10  C   UNL     1     110.679 125.647 135.338  0.00  0.00    +0.000 A 
ATOM     11  C   UNL     1     110.020 125.993 134.909  0.00  0.00    +0.000 A 
ATOM     12  C   UNL     1     109.991 126.843 134.789  0.00  0.00    +0.000 A 
ENDROOT
BRANCH   4  15
ATOM     13  O   UNL     1     115.095 125.032 136.350  0.00  0.00    +0.000 OA
ATOM     14  O   UNL     1     115.056 124.952 137.998  0.00  0.00    +0.000 OA
ATOM     15  C   UNL     1     113.163 125.963 136.763  0.00  0.00    +0.000 A 
ATOM     16  C   UNL     1     113.813 125.666 136.351  0.00  0.00    +0.000 A 
ATOM     17  C   UNL     1     113.144 125.922 137.587  0.00  0.00    +0.000 A 
ATOM     18  C   UNL     1     114.444 125.329 136.762  0.00  0.00    +0.000 A 
ATOM     19  C   UNL     1     113.774 125.586 137.998  0.00  0.00    +0.000 A 
ATOM     20  C   UNL     1     114.424 125.289 137.586  0.00  0.00    +0.000 A 
ENDBRANCH   4  15
BRANCH   7  21
ATOM     21  O   UNL     1     113.107 127.596 136.533  0.00  0.00    +0.000 OA
ATOM     22  C   UNL     1     113.194 128.368 136.256  0.00  0.00    +0.000 C 
ENDBRANCH   7  21
TORSDOF 2
ENDMDL
MODEL 4
REMARK VINA RESULT:      -7.8     10.748     12.587
REMARK  Name = 9839293
REMARK  2 active torsions:
REMARK  status: ('A' for Active; 'I' for Inactive)
REMARK    1  A    between atoms: O_2  and  C_10
REMARK    2  A    between atoms: C_7  and  C_11
REMARK                            x       y       z     vdW  Elec       q    Type
REMARK                         _______ _______ _______ _____ _____    ______ ____
ROOT
ATOM      1  O   UNL     1     111.522 126.544 136.681  0.00  0.00    +0.000 OA
ATOM      2  O   UNL     1     111.249 124.238 135.824  0.00  0.00    +0.000 OA
ATOM      3  O   UNL     1     109.734 127.546 134.612  0.00  0.00    +0.000 OA
ATOM      4  C   UNL     1     111.916 125.919 137.047  0.00  0.00    +0.000 A 
ATOM      5  C   UNL     1     110.946 125.633 135.743  0.00  0.00    +0.000 A 
ATOM      6  C   UNL     1     111.037 126.401 136.029  0.00  0.00    +0.000 A 
ATOM      7  C   UNL     1     111.825 125.150 136.762  0.00  0.00    +0.000 A 
ATOM      8  C   UNL     1     111.340 125.007 136.109  0.00  0.00    +0.000 A 
ATOM      9  C   UNL     1     110.444 125.471 135.065  0.00  0.00    +0.000 A 
ATOM     10  C   UNL     1     110.632 127.061 135.656  0.00  0.00    +0.000 A 
ATOM     11  C   UNL     1     110.126 126.919 134.976  0.00  0.00    +0.000 A 
ATOM     12  C   UNL     1     110.031 126.118 134.679  0.00  0.00    +0.000 A 
ENDROOT
BRANCH   4  15
ATOM     13  O   UNL     1     112.240 126.223 139.871  0.00  0.00    +0.000 OA
ATOM     14  O   UNL     1     113.854 126.490 139.656  0.00  0.00    +0.000 OA
ATOM     15  C   UNL     1     112.400 126.061 137.699  0.00  0.00    +0.000 A 
ATOM     16  C   UNL     1     112.078 126.071 138.458  0.00  0.00    +0.000 A 
ATOM     17  C   UNL     1     113.208 126.195 137.593  0.00  0.00    +0.000 A 
ATOM     18  C   UNL     1     112.563 126.214 139.111  0.00  0.00    +0.000 A 
ATOM     19  C   UNL     1     113.692 126.337 138.244  0.00  0.00    +0.000 A 
ATOM     20  C   UNL     1     113.369 126.347 139.003  0.00  0.00    +0.000 A 
ENDBRANCH   4  15
BRANCH   7  21
ATOM     21  O   UNL     1     112.218 124.524 137.128  0.00  0.00    +0.000 OA
ATOM     22  C   UNL     1     112.103 123.752 136.862  0.00  0.00    +0.000 C 
ENDBRANCH   7  21
TORSDOF 2
ENDMDL
MODEL 5
REMARK VINA RESULT:      -7.7      1.321      4.108
REMARK  Name = 9839293
REMARK  2 active torsions:
REMARK  status: ('A' for Active; 'I' for Inactive)
REMARK    1  A    between atoms: O_2  and  C_10
REMARK    2  A    between atoms: C_7  and  C_11
REMARK                            x       y       z     vdW  Elec       q    Type
REMARK                         _______ _______ _______ _____ _____    ______ ____
ROOT
ATOM      1  O   UNL     1     103.600 124.836 147.083  0.00  0.00    +0.000 OA
ATOM      2  O   UNL     1     102.813 122.766 145.978  0.00  0.00    +0.000 OA
ATOM      3  O   UNL     1     101.082 125.045 148.530  0.00  0.00    +0.000 OA
ATOM      4  C   UNL     1     104.089 124.444 146.546  0.00  0.00    +0.000 A 
ATOM      5  C   UNL     1     102.588 123.849 146.883  0.00  0.00    +0.000 A 
ATOM      6  C   UNL     1     102.850 124.539 147.252  0.00  0.00    +0.000 A 
ATOM      7  C   UNL     1     103.827 123.754 146.178  0.00  0.00    +0.000 A 
ATOM      8  C   UNL     1     103.076 123.456 146.346  0.00  0.00    +0.000 A 
ATOM      9  C   UNL     1     101.808 123.529 147.051  0.00  0.00    +0.000 A 
ATOM     10  C   UNL     1     102.350 124.956 147.813  0.00  0.00    +0.000 A 
ATOM     11  C   UNL     1     101.568 124.651 147.992  0.00  0.00    +0.000 A 
ATOM     12  C   UNL     1     101.295 123.933 147.609  0.00  0.00    +0.000 A 
ENDROOT
BRANCH   4  15
ATOM     13  O   UNL     1     106.860 124.686 147.202  0.00  0.00    +0.000 OA
ATOM     14  O   UNL     1     107.093 125.634 145.872  0.00  0.00    +0.000 OA
ATOM     15  C   UNL     1     104.839 124.742 146.378  0.00  0.00    +0.000 A 
ATOM     16  C   UNL     1     105.474 124.565 146.874  0.00  0.00    +0.000 A 
ATOM     17  C   UNL     1     104.956 125.216 145.713  0.00  0.00    +0.000 A 
ATOM     18  C   UNL     1     106.226 124.862 146.706  0.00  0.00    +0.000 A 
ATOM     19  C   UNL     1     105.706 125.514 145.544  0.00  0.00    +0.000 A 
ATOM     20  C   UNL     1     106.341 125.337 146.041  0.00  0.00    +0.000 A 
ENDBRANCH   4  15
BRANCH   7  21
ATOM     21  O   UNL     1     104.315 123.362 145.641  0.00  0.00    +0.000 OA
ATOM     22  C   UNL     1     104.016 122.739 145.189  0.00  0.00    +0.000 C 
ENDBRANCH   7  21
TORSDOF 2
ENDMDL
MODEL 6
REMARK VINA RESULT:      -7.7     12.594     13.201
REMARK  Name = 9839293
REMARK  2 active torsions:
REMARK  status: ('A' for Active; 'I' for Inactive)
REMARK    1  A    between atoms: O_2  and  C_10
REMARK    2  A    between atoms: C_7  and  C_11
REMARK                            x       y       z     vdW  Elec       q    Type
REMARK                         _______ _______ _______ _____ _____    ______ ____
ROOT
ATOM      1  O   UNL     1     112.942 126.607 136.553  0.00  0.00    +0.000 OA
ATOM      2  O   UNL     1     111.401 124.752 135.996  0.00  0.00    +0.000 OA
ATOM      3  O   UNL     1     114.959 124.695 137.424  0.00  0.00    +0.000 OA
ATOM      4  C   UNL     1     112.193 126.771 136.248  0.00  0.00    +0.000 A 
ATOM      5  C   UNL     1     112.663 125.208 136.487  0.00  0.00    +0.000 A 
ATOM      6  C   UNL     1     113.177 125.826 136.673  0.00  0.00    +0.000 A 
ATOM      7  C   UNL     1     111.680 126.153 136.062  0.00  0.00    +0.000 A 
ATOM      8  C   UNL     1     111.915 125.371 136.182  0.00  0.00    +0.000 A 
ATOM      9  C   UNL     1     112.897 124.389 136.607  0.00  0.00    +0.000 A 
ATOM     10  C   UNL     1     113.960 125.668 136.992  0.00  0.00    +0.000 A 
ATOM     11  C   UNL     1     114.210 124.856 137.119  0.00  0.00    +0.000 A 
ATOM     12  C   UNL     1     113.675 124.213 136.925  0.00  0.00    +0.000 A 
ENDROOT
BRANCH   4  15
ATOM     13  O   UNL     1     112.131 129.114 134.612  0.00  0.00    +0.000 OA
ATOM     14  O   UNL     1     111.253 129.898 135.768  0.00  0.00    +0.000 OA
ATOM     15  C   UNL     1     111.958 127.552 136.128  0.00  0.00    +0.000 A 
ATOM     16  C   UNL     1     112.162 127.942 135.430  0.00  0.00    +0.000 A 
ATOM     17  C   UNL     1     111.519 127.945 136.706  0.00  0.00    +0.000 A 
ATOM     18  C   UNL     1     111.927 128.724 135.310  0.00  0.00    +0.000 A 
ATOM     19  C   UNL     1     111.284 128.726 136.586  0.00  0.00    +0.000 A 
ATOM     20  C   UNL     1     111.488 129.116 135.888  0.00  0.00    +0.000 A 
ENDBRANCH   4  15
BRANCH   7  21
ATOM     21  O   UNL     1     110.931 126.316 135.756  0.00  0.00    +0.000 OA
ATOM     22  C   UNL     1     110.486 125.714 135.409  0.00  0.00    +0.000 C 
ENDBRANCH   7  21
TORSDOF 2
ENDMDL
MODEL 7
REMARK VINA RESULT:      -7.7      1.108      2.492
REMARK  Name = 9839293
REMARK  2 active torsions:
REMARK  status: ('A' for Active; 'I' for Inactive)
REMARK    1  A    between atoms: O_2  and  C_10
REMARK    2  A    between atoms: C_7  and  C_11
REMARK                            x       y       z     vdW  Elec       q    Type
REMARK                         _______ _______ _______ _____ _____    ______ ____
ROOT
ATOM      1  O   UNL     1     106.750 125.191 146.925  0.00  0.00    +0.000 OA
ATOM      2  O   UNL     1     104.754 124.523 148.228  0.00  0.00    +0.000 OA
ATOM      3  O   UNL     1     108.461 124.593 149.204  0.00  0.00    +0.000 OA
ATOM      4  C   UNL     1     106.001 125.228 146.580  0.00  0.00    +0.000 A 
ATOM      5  C   UNL     1     106.168 124.710 148.137  0.00  0.00    +0.000 A 
ATOM      6  C   UNL     1     106.833 124.932 147.703  0.00  0.00    +0.000 A 
ATOM      7  C   UNL     1     105.336 125.006 147.014  0.00  0.00    +0.000 A 
ATOM      8  C   UNL     1     105.419 124.746 147.794  0.00  0.00    +0.000 A 
ATOM      9  C   UNL     1     106.242 124.438 148.950  0.00  0.00    +0.000 A 
ATOM     10  C   UNL     1     107.618 124.898 148.051  0.00  0.00    +0.000 A 
ATOM     11  C   UNL     1     107.712 124.629 148.862  0.00  0.00    +0.000 A 
ATOM     12  C   UNL     1     107.019 124.397 149.314  0.00  0.00    +0.000 A 
ENDROOT
BRANCH   4  15
ATOM     13  O   UNL     1     106.014 124.682 143.775  0.00  0.00    +0.000 OA
ATOM     14  O   UNL     1     105.667 126.265 143.465  0.00  0.00    +0.000 OA
ATOM     15  C   UNL     1     105.917 125.488 145.802  0.00  0.00    +0.000 A 
ATOM     16  C   UNL     1     106.008 124.955 145.178  0.00  0.00    +0.000 A 
ATOM     17  C   UNL     1     105.743 126.279 145.646  0.00  0.00    +0.000 A 
ATOM     18  C   UNL     1     105.924 125.215 144.399  0.00  0.00    +0.000 A 
ATOM     19  C   UNL     1     105.660 126.538 144.868  0.00  0.00    +0.000 A 
ATOM     20  C   UNL     1     105.750 126.006 144.244  0.00  0.00    +0.000 A 
ENDBRANCH   4  15
BRANCH   7  21
ATOM     21  O   UNL     1     104.587 125.042 146.670  0.00  0.00    +0.000 OA
ATOM     22  C   UNL     1     103.944 124.680 147.040  0.00  0.00    +0.000 C 
ENDBRANCH   7  21
TORSDOF 2
ENDMDL
MODEL 8
REMARK VINA RESULT:      -7.7     11.302     12.233
REMARK  Name = 9839293
REMARK  2 active torsions:
REMARK  status: ('A' for Active; 'I' for Inactive)
REMARK    1  A    between atoms: O_2  and  C_10
REMARK    2  A    between atoms: C_7  and  C_11
REMARK                            x       y       z     vdW  Elec       q    Type
REMARK                         _______ _______ _______ _____ _____    ______ ____
ROOT
ATOM      1  O   UNL     1     110.981 125.229 136.551  0.00  0.00    +0.000 OA
ATOM      2  O   UNL     1     113.158 126.366 136.242  0.00  0.00    +0.000 OA
ATOM      3  O   UNL     1     112.349 122.749 137.226  0.00  0.00    +0.000 OA
ATOM      4  C   UNL     1     111.003 126.025 136.334  0.00  0.00    +0.000 A 
ATOM      5  C   UNL     1     112.409 125.192 136.561  0.00  0.00    +0.000 A 
ATOM      6  C   UNL     1     111.683 124.813 136.664  0.00  0.00    +0.000 A 
ATOM      7  C   UNL     1     111.729 126.404 136.231  0.00  0.00    +0.000 A 
ATOM      8  C   UNL     1     112.432 125.987 136.345  0.00  0.00    +0.000 A 
ATOM      9  C   UNL     1     113.148 124.768 136.677  0.00  0.00    +0.000 A 
ATOM     10  C   UNL     1     111.646 123.984 136.890  0.00  0.00    +0.000 A 
ATOM     11  C   UNL     1     112.375 123.545 137.010  0.00  0.00    +0.000 A 
ATOM     12  C   UNL     1     113.130 123.939 136.903  0.00  0.00    +0.000 A 
ENDROOT
BRANCH   4  15
ATOM     13  O   UNL     1     108.891 127.646 137.374  0.00  0.00    +0.000 OA
ATOM     14  O   UNL     1     108.192 127.694 135.880  0.00  0.00    +0.000 OA
ATOM     15  C   UNL     1     110.301 126.442 136.220  0.00  0.00    +0.000 A 
ATOM     16  C   UNL     1     109.948 126.835 136.854  0.00  0.00    +0.000 A 
ATOM     17  C   UNL     1     109.951 126.466 135.474  0.00  0.00    +0.000 A 
ATOM     18  C   UNL     1     109.245 127.253 136.740  0.00  0.00    +0.000 A 
ATOM     19  C   UNL     1     109.249 126.883 135.360  0.00  0.00    +0.000 A 
ATOM     20  C   UNL     1     108.896 127.276 135.993  0.00  0.00    +0.000 A 
ENDBRANCH   4  15
BRANCH   7  21
ATOM     21  O   UNL     1     111.752 127.200 136.014  0.00  0.00    +0.000 OA
ATOM     22  C   UNL     1     112.460 127.621 136.066  0.00  0.00    +0.000 C 
ENDBRANCH   7  21
TORSDOF 2
ENDMDL
MODEL 9
REMARK VINA RESULT:      -7.7     11.155     13.027
REMARK  Name = 9839293
REMARK  2 active torsions:
REMARK  status: ('A' for Active; 'I' for Inactive)
REMARK    1  A    between atoms: O_2  and  C_10
REMARK    2  A    between atoms: C_7  and  C_11
REMARK                            x       y       z     vdW  Elec       q    Type
REMARK                         _______ _______ _______ _____ _____    ______ ____
ROOT
ATOM      1  O   UNL     1     112.096 126.781 136.139  0.00  0.00    +0.000 OA
ATOM      2  O   UNL     1     110.181 127.139 134.613  0.00  0.00    +0.000 OA
ATOM      3  O   UNL     1     113.063 129.472 135.590  0.00  0.00    +0.000 OA
ATOM      4  C   UNL     1     111.543 126.179 136.023  0.00  0.00    +0.000 A 
ATOM      5  C   UNL     1     111.372 127.621 135.238  0.00  0.00    +0.000 A 
ATOM      6  C   UNL     1     112.010 127.501 135.747  0.00  0.00    +0.000 A 
ATOM      7  C   UNL     1     110.905 126.298 135.514  0.00  0.00    +0.000 A 
ATOM      8  C   UNL     1     110.819 127.020 135.121  0.00  0.00    +0.000 A 
ATOM      9  C   UNL     1     111.272 128.367 134.824  0.00  0.00    +0.000 A 
ATOM     10  C   UNL     1     112.593 128.120 135.877  0.00  0.00    +0.000 A 
ATOM     11  C   UNL     1     112.509 128.872 135.471  0.00  0.00    +0.000 A 
ATOM     12  C   UNL     1     111.844 128.997 134.942  0.00  0.00    +0.000 A 
ENDROOT
BRANCH   4  15
ATOM     13  O   UNL     1     111.134 124.559 138.341  0.00  0.00    +0.000 OA
ATOM     14  O   UNL     1     111.885 123.296 137.591  0.00  0.00    +0.000 OA
ATOM     15  C   UNL     1     111.629 125.459 136.414  0.00  0.00    +0.000 A 
ATOM     16  C   UNL     1     111.339 125.370 137.181  0.00  0.00    +0.000 A 
ATOM     17  C   UNL     1     112.004 124.826 136.039  0.00  0.00    +0.000 A 
ATOM     18  C   UNL     1     111.424 124.648 137.574  0.00  0.00    +0.000 A 
ATOM     19  C   UNL     1     112.089 124.106 136.431  0.00  0.00    +0.000 A 
ATOM     20  C   UNL     1     111.799 124.017 137.198  0.00  0.00    +0.000 A 
ENDBRANCH   4  15
BRANCH   7  21
ATOM     21  O   UNL     1     110.352 125.698 135.397  0.00  0.00    +0.000 OA
ATOM     22  C   UNL     1     109.677 125.840 134.943  0.00  0.00    +0.000 C 
ENDBRANCH   7  21
TORSDOF 2
ENDMDL
MODEL 10
REMARK VINA RESULT:      -7.6     11.716     13.724
REMARK  Name = 9839293
REMARK  2 active torsions:
REMARK  status: ('A' for Active; 'I' for Inactive)
REMARK    1  A    between atoms: O_2  and  C_10
REMARK    2  A    between atoms: C_7  and  C_11
REMARK                            x       y       z     vdW  Elec       q    Type
REMARK                         _______ _______ _______ _____ _____    ______ ____
ROOT
ATOM      1  O   UNL     1     113.877 127.419 136.080  0.00  0.00    +0.000 OA
ATOM      2  O   UNL     1     112.791 128.767 137.849  0.00  0.00    +0.000 OA
ATOM      3  O   UNL     1     114.674 129.850 134.689  0.00  0.00    +0.000 OA
ATOM      4  C   UNL     1     113.503 127.043 136.712  0.00  0.00    +0.000 A 
ATOM      5  C   UNL     1     113.527 128.691 136.626  0.00  0.00    +0.000 A 
ATOM      6  C   UNL     1     113.890 128.242 136.037  0.00  0.00    +0.000 A 
ATOM      7  C   UNL     1     113.140 127.493 137.302  0.00  0.00    +0.000 A 
ATOM      8  C   UNL     1     113.153 128.317 137.259  0.00  0.00    +0.000 A 
ATOM      9  C   UNL     1     113.534 129.550 136.593  0.00  0.00    +0.000 A 
ATOM     10  C   UNL     1     114.283 128.620 135.373  0.00  0.00    +0.000 A 
ATOM     11  C   UNL     1     114.299 129.478 135.323  0.00  0.00    +0.000 A 
ATOM     12  C   UNL     1     113.922 129.946 135.936  0.00  0.00    +0.000 A 
ENDROOT
BRANCH   4  15
ATOM     13  O   UNL     1     114.757 124.585 137.454  0.00  0.00    +0.000 OA
ATOM     14  O   UNL     1     113.453 123.748 136.885  0.00  0.00    +0.000 OA
ATOM     15  C   UNL     1     113.490 126.220 136.755  0.00  0.00    +0.000 A 
ATOM     16  C   UNL     1     114.129 125.815 137.083  0.00  0.00    +0.000 A 
ATOM     17  C   UNL     1     112.838 125.801 136.471  0.00  0.00    +0.000 A 
ATOM     18  C   UNL     1     114.117 124.990 137.126  0.00  0.00    +0.000 A 
ATOM     19  C   UNL     1     112.826 124.978 136.514  0.00  0.00    +0.000 A 
ATOM     20  C   UNL     1     113.465 124.573 136.842  0.00  0.00    +0.000 A 
ENDBRANCH   4  15
BRANCH   7  21
ATOM     21  O   UNL     1     112.766 127.119 137.935  0.00  0.00    +0.000 OA
ATOM     22  C   UNL     1     112.517 127.560 138.586  0.00  0.00    +0.000 C 
ENDBRANCH   7  21
TORSDOF 2
ENDMDL
