MODEL 1
REMARK VINA RESULT:      -8.6      0.000      0.000
REMARK  Name = 131836490
REMARK  2 active torsions:
REMARK  status: ('A' for Active; 'I' for Inactive)
REMARK    1  A    between atoms: O_4  and  C_20
REMARK    2  A    between atoms: C_8  and  C_10
REMARK                            x       y       z     vdW  Elec       q    Type
REMARK                         _______ _______ _______ _____ _____    ______ ____
ROOT
ATOM      1  O   UNL     1     105.003 124.218 147.139  0.00  0.00    +0.000 OA
ATOM      2  O   UNL     1     106.062 125.421 145.179  0.00  0.00    +0.000 OA
ATOM      3  O   UNL     1     107.208 125.710 146.005  0.00  0.00    +0.000 OA
ATOM      4  O   UNL     1     108.013 125.619 147.442  0.00  0.00    +0.000 OA
ATOM      5  O   UNL     1     107.328 124.837 148.723  0.00  0.00    +0.000 OA
ATOM      6  C   UNL     1     104.579 124.263 146.393  0.00  0.00    +0.000 C 
ATOM      7  C   UNL     1     104.936 124.670 145.726  0.00  0.00    +0.000 C 
ATOM      8  C   UNL     1     106.121 124.973 146.568  0.00  0.00    +0.000 A 
ATOM      9  C   UNL     1     105.711 125.028 145.814  0.00  0.00    +0.000 C 
ATOM     10  C   UNL     1     105.778 124.582 147.208  0.00  0.00    +0.000 A 
ATOM     11  C   UNL     1     106.866 125.319 146.645  0.00  0.00    +0.000 A 
ATOM     12  C   UNL     1     106.181 124.537 147.926  0.00  0.00    +0.000 A 
ATOM     13  C   UNL     1     107.268 125.273 147.364  0.00  0.00    +0.000 A 
ATOM     14  C   UNL     1     106.925 124.882 148.005  0.00  0.00    +0.000 A 
ENDROOT
BRANCH   6  16
ATOM     15  O   UNL     1     101.598 122.877 146.092  0.00  0.00    +0.000 OA
ATOM     16  C   UNL     1     103.834 123.916 146.318  0.00  0.00    +0.000 A 
ATOM     17  C   UNL     1     103.168 124.302 146.615  0.00  0.00    +0.000 A 
ATOM     18  C   UNL     1     103.755 123.184 145.945  0.00  0.00    +0.000 A 
ATOM     19  C   UNL     1     102.423 123.955 146.539  0.00  0.00    +0.000 A 
ATOM     20  C   UNL     1     103.009 122.838 145.870  0.00  0.00    +0.000 A 
ATOM     21  C   UNL     1     102.343 123.224 146.167  0.00  0.00    +0.000 A 
BRANCH  19  22
ATOM     22  O   UNL     1     101.757 124.340 146.837  0.00  0.00    +0.000 OA
ATOM     23  C   UNL     1     101.798 124.739 147.558  0.00  0.00    +0.000 C 
ENDBRANCH  19  22
ENDBRANCH   6  16
TORSDOF 2
ENDMDL
MODEL 2
REMARK VINA RESULT:      -8.5      7.692      8.689
REMARK  Name = 131836490
REMARK  2 active torsions:
REMARK  status: ('A' for Active; 'I' for Inactive)
REMARK    1  A    between atoms: O_4  and  C_20
REMARK    2  A    between atoms: C_8  and  C_10
REMARK                            x       y       z     vdW  Elec       q    Type
REMARK                         _______ _______ _______ _____ _____    ______ ____
ROOT
ATOM      1  O   UNL     1     102.988 130.392 142.052  0.00  0.00    +0.000 OA
ATOM      2  O   UNL     1     102.681 129.177 139.852  0.00  0.00    +0.000 OA
ATOM      3  O   UNL     1     103.659 128.206 140.277  0.00  0.00    +0.000 OA
ATOM      4  O   UNL     1     104.726 127.624 141.393  0.00  0.00    +0.000 OA
ATOM      5  O   UNL     1     104.931 128.411 142.828  0.00  0.00    +0.000 OA
ATOM      6  C   UNL     1     102.431 130.700 141.475  0.00  0.00    +0.000 C 
ATOM      7  C   UNL     1     102.325 130.290 140.728  0.00  0.00    +0.000 C 
ATOM      8  C   UNL     1     103.330 129.284 141.156  0.00  0.00    +0.000 A 
ATOM      9  C   UNL     1     102.777 129.578 140.567  0.00  0.00    +0.000 C 
ATOM     10  C   UNL     1     103.432 129.678 141.874  0.00  0.00    +0.000 A 
ATOM     11  C   UNL     1     103.761 128.599 140.995  0.00  0.00    +0.000 A 
ATOM     12  C   UNL     1     103.966 129.387 142.431  0.00  0.00    +0.000 A 
ATOM     13  C   UNL     1     104.294 128.309 141.553  0.00  0.00    +0.000 A 
ATOM     14  C   UNL     1     104.397 128.702 142.271  0.00  0.00    +0.000 A 
ENDROOT
BRANCH   6  16
ATOM     15  O   UNL     1     100.711 133.440 142.126  0.00  0.00    +0.000 OA
ATOM     16  C   UNL     1     102.001 131.385 141.638  0.00  0.00    +0.000 A 
ATOM     17  C   UNL     1     102.325 132.125 141.471  0.00  0.00    +0.000 A 
ATOM     18  C   UNL     1     101.247 131.330 141.968  0.00  0.00    +0.000 A 
ATOM     19  C   UNL     1     101.895 132.810 141.633  0.00  0.00    +0.000 A 
ATOM     20  C   UNL     1     100.817 132.015 142.130  0.00  0.00    +0.000 A 
ATOM     21  C   UNL     1     101.141 132.755 141.963  0.00  0.00    +0.000 A 
BRANCH  19  22
ATOM     22  O   UNL     1     102.219 133.550 141.466  0.00  0.00    +0.000 OA
ATOM     23  C   UNL     1     103.019 133.617 141.276  0.00  0.00    +0.000 C 
ENDBRANCH  19  22
ENDBRANCH   6  16
TORSDOF 2
ENDMDL
MODEL 3
REMARK VINA RESULT:      -8.3      0.969      4.512
REMARK  Name = 131836490
REMARK  2 active torsions:
REMARK  status: ('A' for Active; 'I' for Inactive)
REMARK    1  A    between atoms: O_4  and  C_20
REMARK    2  A    between atoms: C_8  and  C_10
REMARK                            x       y       z     vdW  Elec       q    Type
REMARK                         _______ _______ _______ _____ _____    ______ ____
ROOT
ATOM      1  O   UNL     1     105.044 124.183 146.833  0.00  0.00    +0.000 OA
ATOM      2  O   UNL     1     103.368 125.687 147.991  0.00  0.00    +0.000 OA
ATOM      3  O   UNL     1     102.302 124.939 147.372  0.00  0.00    +0.000 OA
ATOM      4  O   UNL     1     101.771 123.722 146.392  0.00  0.00    +0.000 OA
ATOM      5  O   UNL     1     102.858 122.739 145.635  0.00  0.00    +0.000 OA
ATOM      6  C   UNL     1     105.326 124.815 147.342  0.00  0.00    +0.000 C 
ATOM      7  C   UNL     1     104.760 125.327 147.737  0.00  0.00    +0.000 C 
ATOM      8  C   UNL     1     103.654 124.563 147.104  0.00  0.00    +0.000 A 
ATOM      9  C   UNL     1     103.919 125.201 147.617  0.00  0.00    +0.000 C 
ATOM     10  C   UNL     1     104.198 124.072 146.725  0.00  0.00    +0.000 A 
ATOM     11  C   UNL     1     102.845 124.447 146.993  0.00  0.00    +0.000 A 
ATOM     12  C   UNL     1     103.932 123.464 146.236  0.00  0.00    +0.000 A 
ATOM     13  C   UNL     1     102.580 123.839 146.503  0.00  0.00    +0.000 A 
ATOM     14  C   UNL     1     103.124 123.347 146.125  0.00  0.00    +0.000 A 
ENDROOT
BRANCH   6  16
ATOM     15  O   UNL     1     108.565 125.272 147.781  0.00  0.00    +0.000 OA
ATOM     16  C   UNL     1     106.136 124.929 147.452  0.00  0.00    +0.000 A 
ATOM     17  C   UNL     1     106.509 124.624 148.121  0.00  0.00    +0.000 A 
ATOM     18  C   UNL     1     106.573 125.349 146.891  0.00  0.00    +0.000 A 
ATOM     19  C   UNL     1     107.318 124.738 148.231  0.00  0.00    +0.000 A 
ATOM     20  C   UNL     1     107.383 125.463 147.002  0.00  0.00    +0.000 A 
ATOM     21  C   UNL     1     107.755 125.158 147.671  0.00  0.00    +0.000 A 
BRANCH  19  22
ATOM     22  O   UNL     1     107.691 124.433 148.900  0.00  0.00    +0.000 OA
ATOM     23  C   UNL     1     107.244 124.213 149.558  0.00  0.00    +0.000 C 
ENDBRANCH  19  22
ENDBRANCH   6  16
TORSDOF 2
ENDMDL
MODEL 4
REMARK VINA RESULT:      -8.2     11.234     12.574
REMARK  Name = 131836490
REMARK  2 active torsions:
REMARK  status: ('A' for Active; 'I' for Inactive)
REMARK    1  A    between atoms: O_4  and  C_20
REMARK    2  A    between atoms: C_8  and  C_10
REMARK                            x       y       z     vdW  Elec       q    Type
REMARK                         _______ _______ _______ _____ _____    ______ ____
ROOT
ATOM      1  O   UNL     1     112.081 125.824 136.194  0.00  0.00    +0.000 OA
ATOM      2  O   UNL     1     112.092 123.426 137.006  0.00  0.00    +0.000 OA
ATOM      3  O   UNL     1     113.513 123.533 137.230  0.00  0.00    +0.000 OA
ATOM      4  O   UNL     1     114.920 124.393 137.198  0.00  0.00    +0.000 OA
ATOM      5  O   UNL     1     114.919 125.957 136.670  0.00  0.00    +0.000 OA
ATOM      6  C   UNL     1     111.345 125.381 136.209  0.00  0.00    +0.000 C 
ATOM      7  C   UNL     1     111.346 124.567 136.484  0.00  0.00    +0.000 C 
ATOM      8  C   UNL     1     112.809 124.666 136.719  0.00  0.00    +0.000 A 
ATOM      9  C   UNL     1     112.082 124.207 136.740  0.00  0.00    +0.000 C 
ATOM     10  C   UNL     1     112.808 125.447 136.455  0.00  0.00    +0.000 A 
ATOM     11  C   UNL     1     113.513 124.314 136.966  0.00  0.00    +0.000 A 
ATOM     12  C   UNL     1     113.511 125.877 136.438  0.00  0.00    +0.000 A 
ATOM     13  C   UNL     1     114.216 124.745 136.950  0.00  0.00    +0.000 A 
ATOM     14  C   UNL     1     114.215 125.527 136.686  0.00  0.00    +0.000 A 
ENDROOT
BRANCH   6  16
ATOM     15  O   UNL     1     108.533 126.796 135.217  0.00  0.00    +0.000 OA
ATOM     16  C   UNL     1     110.642 125.735 135.961  0.00  0.00    +0.000 A 
ATOM     17  C   UNL     1     110.210 126.206 136.483  0.00  0.00    +0.000 A 
ATOM     18  C   UNL     1     110.371 125.618 135.190  0.00  0.00    +0.000 A 
ATOM     19  C   UNL     1     109.508 126.559 136.235  0.00  0.00    +0.000 A 
ATOM     20  C   UNL     1     109.668 125.972 134.943  0.00  0.00    +0.000 A 
ATOM     21  C   UNL     1     109.236 126.443 135.465  0.00  0.00    +0.000 A 
BRANCH  19  22
ATOM     22  O   UNL     1     109.076 127.030 136.757  0.00  0.00    +0.000 OA
ATOM     23  C   UNL     1     109.468 127.536 137.278  0.00  0.00    +0.000 C 
ENDBRANCH  19  22
ENDBRANCH   6  16
TORSDOF 2
ENDMDL
MODEL 5
REMARK VINA RESULT:      -8.1     11.368     12.781
REMARK  Name = 131836490
REMARK  2 active torsions:
REMARK  status: ('A' for Active; 'I' for Inactive)
REMARK    1  A    between atoms: O_4  and  C_20
REMARK    2  A    between atoms: C_8  and  C_10
REMARK                            x       y       z     vdW  Elec       q    Type
REMARK                         _______ _______ _______ _____ _____    ______ ____
ROOT
ATOM      1  O   UNL     1     110.898 126.060 136.770  0.00  0.00    +0.000 OA
ATOM      2  O   UNL     1     109.649 125.614 134.613  0.00  0.00    +0.000 OA
ATOM      3  O   UNL     1     108.752 126.696 134.935  0.00  0.00    +0.000 OA
ATOM      4  O   UNL     1     108.253 127.911 135.934  0.00  0.00    +0.000 OA
ATOM      5  O   UNL     1     109.063 128.207 137.341  0.00  0.00    +0.000 OA
ATOM      6  C   UNL     1     111.162 125.427 136.254  0.00  0.00    +0.000 C 
ATOM      7  C   UNL     1     110.741 125.273 135.521  0.00  0.00    +0.000 C 
ATOM      8  C   UNL     1     109.810 126.385 135.843  0.00  0.00    +0.000 A 
ATOM      9  C   UNL     1     110.060 125.755 135.314  0.00  0.00    +0.000 C 
ATOM     10  C   UNL     1     110.215 126.533 136.546  0.00  0.00    +0.000 A 
ATOM     11  C   UNL     1     109.156 126.844 135.638  0.00  0.00    +0.000 A 
ATOM     12  C   UNL     1     109.966 127.139 137.045  0.00  0.00    +0.000 A 
ATOM     13  C   UNL     1     108.908 127.451 136.138  0.00  0.00    +0.000 A 
ATOM     14  C   UNL     1     109.312 127.599 136.842  0.00  0.00    +0.000 A 
ENDROOT
BRANCH   6  16
ATOM     15  O   UNL     1     113.780 123.595 137.079  0.00  0.00    +0.000 OA
ATOM     16  C   UNL     1     111.817 124.969 136.460  0.00  0.00    +0.000 A 
ATOM     17  C   UNL     1     112.579 125.257 136.333  0.00  0.00    +0.000 A 
ATOM     18  C   UNL     1     111.709 124.222 136.793  0.00  0.00    +0.000 A 
ATOM     19  C   UNL     1     113.233 124.799 136.539  0.00  0.00    +0.000 A 
ATOM     20  C   UNL     1     112.364 123.764 137.000  0.00  0.00    +0.000 A 
ATOM     21  C   UNL     1     113.126 124.053 136.873  0.00  0.00    +0.000 A 
BRANCH  19  22
ATOM     22  O   UNL     1     113.995 125.088 136.412  0.00  0.00    +0.000 OA
ATOM     23  C   UNL     1     114.181 125.867 136.614  0.00  0.00    +0.000 C 
ENDBRANCH  19  22
ENDBRANCH   6  16
TORSDOF 2
ENDMDL
MODEL 6
REMARK VINA RESULT:      -8.1      2.689      4.136
REMARK  Name = 131836490
REMARK  2 active torsions:
REMARK  status: ('A' for Active; 'I' for Inactive)
REMARK    1  A    between atoms: O_4  and  C_20
REMARK    2  A    between atoms: C_8  and  C_10
REMARK                            x       y       z     vdW  Elec       q    Type
REMARK                         _______ _______ _______ _____ _____    ______ ____
ROOT
ATOM      1  O   UNL     1     106.572 124.964 146.144  0.00  0.00    +0.000 OA
ATOM      2  O   UNL     1     106.473 127.470 145.794  0.00  0.00    +0.000 OA
ATOM      3  O   UNL     1     105.932 127.242 144.476  0.00  0.00    +0.000 OA
ATOM      4  O   UNL     1     105.427 126.226 143.278  0.00  0.00    +0.000 OA
ATOM      5  O   UNL     1     105.489 124.592 143.501  0.00  0.00    +0.000 OA
ATOM      6  C   UNL     1     106.837 125.488 146.772  0.00  0.00    +0.000 C 
ATOM      7  C   UNL     1     106.804 126.338 146.656  0.00  0.00    +0.000 C 
ATOM      8  C   UNL     1     106.247 126.115 145.298  0.00  0.00    +0.000 A 
ATOM      9  C   UNL     1     106.508 126.654 145.914  0.00  0.00    +0.000 C 
ATOM     10  C   UNL     1     106.278 125.298 145.409  0.00  0.00    +0.000 A 
ATOM     11  C   UNL     1     105.963 126.425 144.588  0.00  0.00    +0.000 A 
ATOM     12  C   UNL     1     106.025 124.791 144.810  0.00  0.00    +0.000 A 
ATOM     13  C   UNL     1     105.711 125.917 143.989  0.00  0.00    +0.000 A 
ATOM     14  C   UNL     1     105.742 125.100 144.100  0.00  0.00    +0.000 A 
ENDROOT
BRANCH   6  16
ATOM     15  O   UNL     1     107.970 124.240 149.610  0.00  0.00    +0.000 OA
ATOM     16  C   UNL     1     107.120 125.176 147.481  0.00  0.00    +0.000 A 
ATOM     17  C   UNL     1     106.592 124.885 148.044  0.00  0.00    +0.000 A 
ATOM     18  C   UNL     1     107.932 125.156 147.627  0.00  0.00    +0.000 A 
ATOM     19  C   UNL     1     106.875 124.573 148.753  0.00  0.00    +0.000 A 
ATOM     20  C   UNL     1     108.215 124.843 148.337  0.00  0.00    +0.000 A 
ATOM     21  C   UNL     1     107.686 124.552 148.900  0.00  0.00    +0.000 A 
BRANCH  19  22
ATOM     22  O   UNL     1     106.347 124.282 149.316  0.00  0.00    +0.000 OA
ATOM     23  C   UNL     1     105.612 124.643 149.419  0.00  0.00    +0.000 C 
ENDBRANCH  19  22
ENDBRANCH   6  16
TORSDOF 2
ENDMDL
MODEL 7
REMARK VINA RESULT:      -8.1      1.018      4.379
REMARK  Name = 131836490
REMARK  2 active torsions:
REMARK  status: ('A' for Active; 'I' for Inactive)
REMARK    1  A    between atoms: O_4  and  C_20
REMARK    2  A    between atoms: C_8  and  C_10
REMARK                            x       y       z     vdW  Elec       q    Type
REMARK                         _______ _______ _______ _____ _____    ______ ____
ROOT
ATOM      1  O   UNL     1     104.434 125.003 147.648  0.00  0.00    +0.000 OA
ATOM      2  O   UNL     1     103.736 123.768 145.551  0.00  0.00    +0.000 OA
ATOM      3  O   UNL     1     102.362 123.862 145.980  0.00  0.00    +0.000 OA
ATOM      4  O   UNL     1     101.217 124.344 147.066  0.00  0.00    +0.000 OA
ATOM      5  O   UNL     1     101.666 125.149 148.435  0.00  0.00    +0.000 OA
ATOM      6  C   UNL     1     105.034 124.754 147.086  0.00  0.00    +0.000 C 
ATOM      7  C   UNL     1     104.800 124.335 146.374  0.00  0.00    +0.000 C 
ATOM      8  C   UNL     1     103.382 124.426 146.806  0.00  0.00    +0.000 A 
ATOM      9  C   UNL     1     103.970 124.170 146.232  0.00  0.00    +0.000 C 
ATOM     10  C   UNL     1     103.607 124.829 147.490  0.00  0.00    +0.000 A 
ATOM     11  C   UNL     1     102.586 124.264 146.664  0.00  0.00    +0.000 A 
ATOM     12  C   UNL     1     103.035 125.070 148.033  0.00  0.00    +0.000 A 
ATOM     13  C   UNL     1     102.014 124.506 147.208  0.00  0.00    +0.000 A 
ATOM     14  C   UNL     1     102.239 124.908 147.892  0.00  0.00    +0.000 A 
ENDROOT
BRANCH   6  16
ATOM     15  O   UNL     1     108.218 125.406 147.661  0.00  0.00    +0.000 OA
ATOM     16  C   UNL     1     105.830 124.917 147.230  0.00  0.00    +0.000 A 
ATOM     17  C   UNL     1     106.206 124.589 147.887  0.00  0.00    +0.000 A 
ATOM     18  C   UNL     1     106.250 125.408 146.716  0.00  0.00    +0.000 A 
ATOM     19  C   UNL     1     107.002 124.752 148.030  0.00  0.00    +0.000 A 
ATOM     20  C   UNL     1     107.046 125.571 146.861  0.00  0.00    +0.000 A 
ATOM     21  C   UNL     1     107.422 125.243 147.518  0.00  0.00    +0.000 A 
BRANCH  19  22
ATOM     22  O   UNL     1     107.378 124.424 148.687  0.00  0.00    +0.000 OA
ATOM     23  C   UNL     1     106.945 124.254 149.369  0.00  0.00    +0.000 C 
ENDBRANCH  19  22
ENDBRANCH   6  16
TORSDOF 2
ENDMDL
MODEL 8
REMARK VINA RESULT:      -8.1     11.275     12.685
REMARK  Name = 131836490
REMARK  2 active torsions:
REMARK  status: ('A' for Active; 'I' for Inactive)
REMARK    1  A    between atoms: O_4  and  C_20
REMARK    2  A    between atoms: C_8  and  C_10
REMARK                            x       y       z     vdW  Elec       q    Type
REMARK                         _______ _______ _______ _____ _____    ______ ____
ROOT
ATOM      1  O   UNL     1     110.557 127.345 135.740  0.00  0.00    +0.000 OA
ATOM      2  O   UNL     1     108.064 127.379 136.180  0.00  0.00    +0.000 OA
ATOM      3  O   UNL     1     108.030 128.756 135.752  0.00  0.00    +0.000 OA
ATOM      4  O   UNL     1     108.782 130.112 135.188  0.00  0.00    +0.000 OA
ATOM      5  O   UNL     1     110.406 130.096 134.899  0.00  0.00    +0.000 OA
ATOM      6  C   UNL     1     110.171 126.635 136.034  0.00  0.00    +0.000 C 
ATOM      7  C   UNL     1     109.326 126.644 136.184  0.00  0.00    +0.000 C 
ATOM      8  C   UNL     1     109.279 128.062 135.745  0.00  0.00    +0.000 A 
ATOM      9  C   UNL     1     108.877 127.362 136.039  0.00  0.00    +0.000 C 
ATOM     10  C   UNL     1     110.092 128.054 135.601  0.00  0.00    +0.000 A 
ATOM     11  C   UNL     1     108.842 128.748 135.607  0.00  0.00    +0.000 A 
ATOM     12  C   UNL     1     110.467 128.731 135.319  0.00  0.00    +0.000 A 
ATOM     13  C   UNL     1     109.219 129.426 135.326  0.00  0.00    +0.000 A 
ATOM     14  C   UNL     1     110.031 129.417 135.181  0.00  0.00    +0.000 A 
ENDROOT
BRANCH   6  16
ATOM     15  O   UNL     1     111.927 123.895 136.582  0.00  0.00    +0.000 OA
ATOM     16  C   UNL     1     110.610 125.950 136.171  0.00  0.00    +0.000 A 
ATOM     17  C   UNL     1     110.918 125.801 136.921  0.00  0.00    +0.000 A 
ATOM     18  C   UNL     1     110.741 125.415 135.557  0.00  0.00    +0.000 A 
ATOM     19  C   UNL     1     111.357 125.116 137.058  0.00  0.00    +0.000 A 
ATOM     20  C   UNL     1     111.181 124.730 135.694  0.00  0.00    +0.000 A 
ATOM     21  C   UNL     1     111.488 124.580 136.445  0.00  0.00    +0.000 A 
BRANCH  19  22
ATOM     22  O   UNL     1     111.665 124.966 137.809  0.00  0.00    +0.000 OA
ATOM     23  C   UNL     1     111.906 125.593 138.289  0.00  0.00    +0.000 C 
ENDBRANCH  19  22
ENDBRANCH   6  16
TORSDOF 2
ENDMDL
MODEL 9
REMARK VINA RESULT:      -8.0      0.802      1.659
REMARK  Name = 131836490
REMARK  2 active torsions:
REMARK  status: ('A' for Active; 'I' for Inactive)
REMARK    1  A    between atoms: O_4  and  C_20
REMARK    2  A    between atoms: C_8  and  C_10
REMARK                            x       y       z     vdW  Elec       q    Type
REMARK                         _______ _______ _______ _____ _____    ______ ____
ROOT
ATOM      1  O   UNL     1     104.427 124.566 145.760  0.00  0.00    +0.000 OA
ATOM      2  O   UNL     1     105.591 124.394 148.002  0.00  0.00    +0.000 OA
ATOM      3  O   UNL     1     106.696 125.146 147.460  0.00  0.00    +0.000 OA
ATOM      4  O   UNL     1     107.427 125.948 146.217  0.00  0.00    +0.000 OA
ATOM      5  O   UNL     1     106.673 126.063 144.754  0.00  0.00    +0.000 OA
ATOM      6  C   UNL     1     104.041 124.147 146.404  0.00  0.00    +0.000 C 
ATOM      7  C   UNL     1     104.434 124.087 147.166  0.00  0.00    +0.000 C 
ATOM      8  C   UNL     1     105.577 124.861 146.618  0.00  0.00    +0.000 A 
ATOM      9  C   UNL     1     105.207 124.446 147.274  0.00  0.00    +0.000 C 
ATOM     10  C   UNL     1     105.200 124.919 145.887  0.00  0.00    +0.000 A 
ATOM     11  C   UNL     1     106.319 125.204 146.729  0.00  0.00    +0.000 A 
ATOM     12  C   UNL     1     105.565 125.319 145.266  0.00  0.00    +0.000 A 
ATOM     13  C   UNL     1     106.684 125.604 146.107  0.00  0.00    +0.000 A 
ATOM     14  C   UNL     1     106.307 125.662 145.375  0.00  0.00    +0.000 A 
ENDROOT
BRANCH   6  16
ATOM     15  O   UNL     1     101.072 122.780 145.954  0.00  0.00    +0.000 OA
ATOM     16  C   UNL     1     103.299 123.805 146.291  0.00  0.00    +0.000 A 
ATOM     17  C   UNL     1     102.623 124.187 146.570  0.00  0.00    +0.000 A 
ATOM     18  C   UNL     1     103.233 123.082 145.900  0.00  0.00    +0.000 A 
ATOM     19  C   UNL     1     101.881 123.844 146.458  0.00  0.00    +0.000 A 
ATOM     20  C   UNL     1     102.490 122.740 145.788  0.00  0.00    +0.000 A 
ATOM     21  C   UNL     1     101.814 123.122 146.067  0.00  0.00    +0.000 A 
BRANCH  19  22
ATOM     22  O   UNL     1     101.204 124.226 146.736  0.00  0.00    +0.000 OA
ATOM     23  C   UNL     1     101.210 124.588 147.478  0.00  0.00    +0.000 C 
ENDBRANCH  19  22
ENDBRANCH   6  16
TORSDOF 2
ENDMDL
MODEL 10
REMARK VINA RESULT:      -7.9      8.789      9.871
REMARK  Name = 131836490
REMARK  2 active torsions:
REMARK  status: ('A' for Active; 'I' for Inactive)
REMARK    1  A    between atoms: O_4  and  C_20
REMARK    2  A    between atoms: C_8  and  C_10
REMARK                            x       y       z     vdW  Elec       q    Type
REMARK                         _______ _______ _______ _____ _____    ______ ____
ROOT
ATOM      1  O   UNL     1     102.910 131.978 141.225  0.00  0.00    +0.000 OA
ATOM      2  O   UNL     1     100.710 132.251 142.448  0.00  0.00    +0.000 OA
ATOM      3  O   UNL     1     100.782 133.672 142.213  0.00  0.00    +0.000 OA
ATOM      4  O   UNL     1     101.545 134.998 141.595  0.00  0.00    +0.000 OA
ATOM      5  O   UNL     1     102.979 134.826 140.796  0.00  0.00    +0.000 OA
ATOM      6  C   UNL     1     102.517 131.284 141.545  0.00  0.00    +0.000 C 
ATOM      7  C   UNL     1     101.771 131.374 141.960  0.00  0.00    +0.000 C 
ATOM      8  C   UNL     1     101.834 132.838 141.724  0.00  0.00    +0.000 A 
ATOM      9  C   UNL     1     101.427 132.156 142.051  0.00  0.00    +0.000 C 
ATOM     10  C   UNL     1     102.551 132.753 141.325  0.00  0.00    +0.000 A 
ATOM     11  C   UNL     1     101.498 133.587 141.814  0.00  0.00    +0.000 A 
ATOM     12  C   UNL     1     102.932 133.415 141.016  0.00  0.00    +0.000 A 
ATOM     13  C   UNL     1     101.881 134.249 141.505  0.00  0.00    +0.000 A 
ATOM     14  C   UNL     1     102.598 134.163 141.105  0.00  0.00    +0.000 A 
ENDROOT
BRANCH   6  16
ATOM     15  O   UNL     1     103.866 128.294 141.179  0.00  0.00    +0.000 OA
ATOM     16  C   UNL     1     102.854 130.537 141.453  0.00  0.00    +0.000 A 
ATOM     17  C   UNL     1     102.699 130.094 140.775  0.00  0.00    +0.000 A 
ATOM     18  C   UNL     1     103.347 130.232 142.041  0.00  0.00    +0.000 A 
ATOM     19  C   UNL     1     103.036 129.347 140.683  0.00  0.00    +0.000 A 
ATOM     20  C   UNL     1     103.684 129.484 141.949  0.00  0.00    +0.000 A 
ATOM     21  C   UNL     1     103.529 129.042 141.270  0.00  0.00    +0.000 A 
BRANCH  19  22
ATOM     22  O   UNL     1     102.881 128.905 140.005  0.00  0.00    +0.000 OA
ATOM     23  C   UNL     1     102.220 129.077 139.541  0.00  0.00    +0.000 C 
ENDBRANCH  19  22
ENDBRANCH   6  16
TORSDOF 2
ENDMDL
