MODEL 1
REMARK VINA RESULT:      -9.9      0.000      0.000
REMARK  Name = 101190386
REMARK  5 active torsions:
REMARK  status: ('A' for Active; 'I' for Inactive)
REMARK    1  A    between atoms: O_2  and  C_16
REMARK    2  A    between atoms: O_2  and  C_23
REMARK    3  A    between atoms: O_11  and  C_31
REMARK    4  A    between atoms: C_17  and  C_25
REMARK    5  A    between atoms: C_19  and  C_24
REMARK                            x       y       z     vdW  Elec       q    Type
REMARK                         _______ _______ _______ _____ _____    ______ ____
ROOT
ATOM      1  O   UNL     1     111.970 126.396 136.095  0.00  0.00    +0.000 OA
ATOM      2  O   UNL     1     111.714 124.229 136.158  0.00  0.00    +0.000 OA
ATOM      3  O   UNL     1     109.394 125.711 134.978  0.00  0.00    +0.000 OA
ATOM      4  C   UNL     1     111.561 125.028 136.022  0.00  0.00    +0.000 C 
ATOM      5  C   UNL     1     112.122 125.596 136.230  0.00  0.00    +0.000 C 
ATOM      6  C   UNL     1     110.848 125.260 135.678  0.00  0.00    +0.000 C 
ATOM      7  C   UNL     1     110.695 126.059 135.542  0.00  0.00    +0.000 A 
ATOM      8  C   UNL     1     111.256 126.627 135.751  0.00  0.00    +0.000 A 
ATOM      9  C   UNL     1     110.367 127.710 135.256  0.00  0.00    +0.000 A 
ATOM     10  C   UNL     1     111.109 127.462 135.615  0.00  0.00    +0.000 A 
ATOM     11  C   UNL     1     109.949 126.287 135.183  0.00  0.00    +0.000 A 
ATOM     12  C   UNL     1     109.784 127.118 135.040  0.00  0.00    +0.000 A 
ENDROOT
BRANCH   5  14
ATOM     13  O   UNL     1     114.975 124.671 137.607  0.00  0.00    +0.000 OA
ATOM     14  C   UNL     1     112.835 125.365 136.575  0.00  0.00    +0.000 A 
ATOM     15  C   UNL     1     113.004 125.575 137.355  0.00  0.00    +0.000 A 
ATOM     16  C   UNL     1     113.380 124.924 136.139  0.00  0.00    +0.000 A 
ATOM     17  C   UNL     1     113.717 125.344 137.699  0.00  0.00    +0.000 A 
ATOM     18  C   UNL     1     114.092 124.693 136.483  0.00  0.00    +0.000 A 
ATOM     19  C   UNL     1     114.261 124.903 137.263  0.00  0.00    +0.000 A 
BRANCH  17  20
ATOM     20  O   UNL     1     113.886 125.554 138.479  0.00  0.00    +0.000 OA
ATOM     21  C   UNL     1     113.773 126.331 138.731  0.00  0.00    +0.000 C 
ENDBRANCH  17  20
ENDBRANCH   5  14
BRANCH   9  22
ATOM     22  O   UNL     1     110.218 128.510 135.122  0.00  0.00    +0.000 OA
BRANCH  22  30
ATOM     23  O   UNL     1     109.950 128.875 136.477  0.00  0.00    +0.000 OA
ATOM     24  O   UNL     1     108.158 130.401 135.713  0.00  0.00    +0.000 OA
ATOM     25  O   UNL     1     109.023 129.527 134.612  0.00  0.00    +0.000 OA
ATOM     26  O   UNL     1     108.488 130.257 137.322  0.00  0.00    +0.000 OA
ATOM     27  C   UNL     1     108.755 129.892 135.968  0.00  0.00    +0.000 C 
ATOM     28  C   UNL     1     109.188 129.455 135.417  0.00  0.00    +0.000 C 
ATOM     29  C   UNL     1     108.921 129.820 136.772  0.00  0.00    +0.000 C 
ATOM     30  C   UNL     1     109.786 128.946 135.672  0.00  0.00    +0.000 C 
ATOM     31  C   UNL     1     109.518 129.311 137.027  0.00  0.00    +0.000 C 
BRANCH  31  34
ATOM     32  O   UNL     1     110.264 129.712 138.179  0.00  0.00    +0.000 OA
ATOM     33  O   UNL     1     109.267 128.695 138.291  0.00  0.00    +0.000 OA
ATOM     34  C   UNL     1     109.683 129.240 137.832  0.00  0.00    +0.000 C 
ENDBRANCH  31  34
ENDBRANCH  22  30
ENDBRANCH   9  22
TORSDOF 5
ENDMDL
MODEL 2
REMARK VINA RESULT:      -9.5      1.890      3.367
REMARK  Name = 101190386
REMARK  5 active torsions:
REMARK  status: ('A' for Active; 'I' for Inactive)
REMARK    1  A    between atoms: O_2  and  C_16
REMARK    2  A    between atoms: O_2  and  C_23
REMARK    3  A    between atoms: O_11  and  C_31
REMARK    4  A    between atoms: C_17  and  C_25
REMARK    5  A    between atoms: C_19  and  C_24
REMARK                            x       y       z     vdW  Elec       q    Type
REMARK                         _______ _______ _______ _____ _____    ______ ____
ROOT
ATOM      1  O   UNL     1     110.161 128.232 135.948  0.00  0.00    +0.000 OA
ATOM      2  O   UNL     1     108.429 126.921 135.736  0.00  0.00    +0.000 OA
ATOM      3  O   UNL     1     107.762 129.838 135.855  0.00  0.00    +0.000 OA
ATOM      4  C   UNL     1     108.885 127.605 135.811  0.00  0.00    +0.000 C 
ATOM      5  C   UNL     1     109.705 127.548 135.872  0.00  0.00    +0.000 C 
ATOM      6  C   UNL     1     108.520 128.345 135.826  0.00  0.00    +0.000 C 
ATOM      7  C   UNL     1     108.976 129.028 135.902  0.00  0.00    +0.000 A 
ATOM      8  C   UNL     1     109.796 128.972 135.963  0.00  0.00    +0.000 A 
ATOM      9  C   UNL     1     109.907 130.450 136.058  0.00  0.00    +0.000 A 
ATOM     10  C   UNL     1     110.282 129.676 136.042  0.00  0.00    +0.000 A 
ATOM     11  C   UNL     1     108.584 129.792 135.916  0.00  0.00    +0.000 A 
ATOM     12  C   UNL     1     109.053 130.508 135.995  0.00  0.00    +0.000 A 
ENDROOT
BRANCH   5  14
ATOM     13  O   UNL     1     111.165 124.589 135.814  0.00  0.00    +0.000 OA
ATOM     14  C   UNL     1     110.070 126.809 135.857  0.00  0.00    +0.000 A 
ATOM     15  C   UNL     1     110.255 126.426 136.565  0.00  0.00    +0.000 A 
ATOM     16  C   UNL     1     110.250 126.452 135.136  0.00  0.00    +0.000 A 
ATOM     17  C   UNL     1     110.620 125.686 136.550  0.00  0.00    +0.000 A 
ATOM     18  C   UNL     1     110.615 125.712 135.122  0.00  0.00    +0.000 A 
ATOM     19  C   UNL     1     110.800 125.329 135.829  0.00  0.00    +0.000 A 
BRANCH  17  20
ATOM     20  O   UNL     1     110.805 125.303 137.257  0.00  0.00    +0.000 OA
ATOM     21  C   UNL     1     111.069 125.740 137.906  0.00  0.00    +0.000 C 
ENDBRANCH  17  20
ENDBRANCH   5  14
BRANCH   9  22
ATOM     22  O   UNL     1     110.366 131.132 136.134  0.00  0.00    +0.000 OA
BRANCH  22  30
ATOM     23  O   UNL     1     110.431 131.166 137.561  0.00  0.00    +0.000 OA
ATOM     24  O   UNL     1     110.174 133.627 137.513  0.00  0.00    +0.000 OA
ATOM     25  O   UNL     1     110.195 132.772 136.102  0.00  0.00    +0.000 OA
ATOM     26  O   UNL     1     110.325 132.842 138.955  0.00  0.00    +0.000 OA
ATOM     27  C   UNL     1     110.260 132.807 137.529  0.00  0.00    +0.000 C 
ATOM     28  C   UNL     1     110.270 132.379 136.823  0.00  0.00    +0.000 C 
ATOM     29  C   UNL     1     110.335 132.414 138.250  0.00  0.00    +0.000 C 
ATOM     30  C   UNL     1     110.356 131.559 136.839  0.00  0.00    +0.000 C 
ATOM     31  C   UNL     1     110.420 131.593 138.266  0.00  0.00    +0.000 C 
BRANCH  31  34
ATOM     32  O   UNL     1     109.822 130.961 139.400  0.00  0.00    +0.000 OA
ATOM     33  O   UNL     1     111.245 131.048 139.298  0.00  0.00    +0.000 OA
ATOM     34  C   UNL     1     110.496 131.201 138.988  0.00  0.00    +0.000 C 
ENDBRANCH  31  34
ENDBRANCH  22  30
ENDBRANCH   9  22
TORSDOF 5
ENDMDL
MODEL 3
REMARK VINA RESULT:      -9.4      3.071      5.792
REMARK  Name = 101190386
REMARK  5 active torsions:
REMARK  status: ('A' for Active; 'I' for Inactive)
REMARK    1  A    between atoms: O_2  and  C_16
REMARK    2  A    between atoms: O_2  and  C_23
REMARK    3  A    between atoms: O_11  and  C_31
REMARK    4  A    between atoms: C_17  and  C_25
REMARK    5  A    between atoms: C_19  and  C_24
REMARK                            x       y       z     vdW  Elec       q    Type
REMARK                         _______ _______ _______ _____ _____    ______ ____
ROOT
ATOM      1  O   UNL     1     113.203 128.791 139.415  0.00  0.00    +0.000 OA
ATOM      2  O   UNL     1     113.091 130.789 138.544  0.00  0.00    +0.000 OA
ATOM      3  O   UNL     1     111.607 128.689 137.008  0.00  0.00    +0.000 OA
ATOM      4  C   UNL     1     112.978 129.979 138.654  0.00  0.00    +0.000 C 
ATOM      5  C   UNL     1     113.316 129.600 139.304  0.00  0.00    +0.000 C 
ATOM      6  C   UNL     1     112.527 129.548 138.114  0.00  0.00    +0.000 C 
ATOM      7  C   UNL     1     112.414 128.738 138.225  0.00  0.00    +0.000 A 
ATOM      8  C   UNL     1     112.752 128.360 138.875  0.00  0.00    +0.000 A 
ATOM      9  C   UNL     1     112.172 127.062 138.442  0.00  0.00    +0.000 A 
ATOM     10  C   UNL     1     112.641 127.517 139.001  0.00  0.00    +0.000 A 
ATOM     11  C   UNL     1     111.942 128.301 137.656  0.00  0.00    +0.000 A 
ATOM     12  C   UNL     1     111.820 127.458 137.765  0.00  0.00    +0.000 A 
ENDROOT
BRANCH   5  14
ATOM     13  O   UNL     1     115.120 131.324 141.464  0.00  0.00    +0.000 OA
ATOM     14  C   UNL     1     113.767 130.031 139.844  0.00  0.00    +0.000 A 
ATOM     15  C   UNL     1     113.426 130.298 140.546  0.00  0.00    +0.000 A 
ATOM     16  C   UNL     1     114.559 130.195 139.682  0.00  0.00    +0.000 A 
ATOM     17  C   UNL     1     113.877 130.729 141.086  0.00  0.00    +0.000 A 
ATOM     18  C   UNL     1     115.010 130.626 140.222  0.00  0.00    +0.000 A 
ATOM     19  C   UNL     1     114.669 130.893 140.924  0.00  0.00    +0.000 A 
BRANCH  17  20
ATOM     20  O   UNL     1     113.536 130.996 141.788  0.00  0.00    +0.000 OA
ATOM     21  C   UNL     1     112.842 130.649 142.068  0.00  0.00    +0.000 C 
ENDBRANCH  17  20
ENDBRANCH   5  14
BRANCH   9  22
ATOM     22  O   UNL     1     112.060 126.253 138.555  0.00  0.00    +0.000 OA
BRANCH  22  30
ATOM     23  O   UNL     1     113.244 125.795 137.897  0.00  0.00    +0.000 OA
ATOM     24  O   UNL     1     111.968 123.920 136.906  0.00  0.00    +0.000 OA
ATOM     25  O   UNL     1     111.210 125.003 137.894  0.00  0.00    +0.000 OA
ATOM     26  O   UNL     1     113.575 124.088 136.579  0.00  0.00    +0.000 OA
ATOM     27  C   UNL     1     112.393 124.545 137.236  0.00  0.00    +0.000 C 
ATOM     28  C   UNL     1     112.014 125.087 137.731  0.00  0.00    +0.000 C 
ATOM     29  C   UNL     1     113.197 124.629 137.073  0.00  0.00    +0.000 C 
ATOM     30  C   UNL     1     112.439 125.712 138.061  0.00  0.00    +0.000 C 
ATOM     31  C   UNL     1     113.622 125.254 137.404  0.00  0.00    +0.000 C 
BRANCH  31  34
ATOM     32  O   UNL     1     114.988 125.008 137.747  0.00  0.00    +0.000 OA
ATOM     33  O   UNL     1     114.670 125.751 136.569  0.00  0.00    +0.000 OA
ATOM     34  C   UNL     1     114.426 125.338 137.240  0.00  0.00    +0.000 C 
ENDBRANCH  31  34
ENDBRANCH  22  30
ENDBRANCH   9  22
TORSDOF 5
ENDMDL
MODEL 4
REMARK VINA RESULT:      -9.3      1.493      2.693
REMARK  Name = 101190386
REMARK  5 active torsions:
REMARK  status: ('A' for Active; 'I' for Inactive)
REMARK    1  A    between atoms: O_2  and  C_16
REMARK    2  A    between atoms: O_2  and  C_23
REMARK    3  A    between atoms: O_11  and  C_31
REMARK    4  A    between atoms: C_17  and  C_25
REMARK    5  A    between atoms: C_19  and  C_24
REMARK                            x       y       z     vdW  Elec       q    Type
REMARK                         _______ _______ _______ _____ _____    ______ ____
ROOT
ATOM      1  O   UNL     1     112.292 127.428 137.244  0.00  0.00    +0.000 OA
ATOM      2  O   UNL     1     114.121 127.311 136.059  0.00  0.00    +0.000 OA
ATOM      3  O   UNL     1     112.860 130.026 136.116  0.00  0.00    +0.000 OA
ATOM      4  C   UNL     1     113.445 127.615 136.421  0.00  0.00    +0.000 C 
ATOM      5  C   UNL     1     112.968 127.124 136.881  0.00  0.00    +0.000 C 
ATOM      6  C   UNL     1     113.247 128.410 136.324  0.00  0.00    +0.000 C 
ATOM      7  C   UNL     1     112.571 128.714 136.687  0.00  0.00    +0.000 A 
ATOM      8  C   UNL     1     112.094 128.223 137.147  0.00  0.00    +0.000 A 
ATOM      9  C   UNL     1     111.176 129.356 137.432  0.00  0.00    +0.000 A 
ATOM     10  C   UNL     1     111.388 128.528 137.529  0.00  0.00    +0.000 A 
ATOM     11  C   UNL     1     112.376 129.543 136.578  0.00  0.00    +0.000 A 
ATOM     12  C   UNL     1     111.674 129.866 136.953  0.00  0.00    +0.000 A 
ENDROOT
BRANCH   5  14
ATOM     13  O   UNL     1     113.760 123.944 137.270  0.00  0.00    +0.000 OA
ATOM     14  C   UNL     1     113.166 126.329 136.979  0.00  0.00    +0.000 A 
ATOM     15  C   UNL     1     112.746 125.747 136.571  0.00  0.00    +0.000 A 
ATOM     16  C   UNL     1     113.783 126.116 137.483  0.00  0.00    +0.000 A 
ATOM     17  C   UNL     1     112.944 124.952 136.668  0.00  0.00    +0.000 A 
ATOM     18  C   UNL     1     113.981 125.322 137.580  0.00  0.00    +0.000 A 
ATOM     19  C   UNL     1     113.561 124.739 137.173  0.00  0.00    +0.000 A 
BRANCH  17  20
ATOM     20  O   UNL     1     112.525 124.369 136.261  0.00  0.00    +0.000 OA
ATOM     21  C   UNL     1     111.701 124.400 136.229  0.00  0.00    +0.000 C 
ENDBRANCH  17  20
ENDBRANCH   5  14
BRANCH   9  22
ATOM     22  O   UNL     1     110.500 129.657 137.796  0.00  0.00    +0.000 OA
BRANCH  22  30
ATOM     23  O   UNL     1     109.597 129.301 136.747  0.00  0.00    +0.000 OA
ATOM     24  O   UNL     1     108.269 131.340 137.198  0.00  0.00    +0.000 OA
ATOM     25  O   UNL     1     109.614 131.017 138.096  0.00  0.00    +0.000 OA
ATOM     26  O   UNL     1     107.809 130.305 135.999  0.00  0.00    +0.000 OA
ATOM     27  C   UNL     1     108.711 130.661 137.047  0.00  0.00    +0.000 C 
ATOM     28  C   UNL     1     109.385 130.499 137.497  0.00  0.00    +0.000 C 
ATOM     29  C   UNL     1     108.482 130.143 136.448  0.00  0.00    +0.000 C 
ATOM     30  C   UNL     1     109.827 129.819 137.347  0.00  0.00    +0.000 C 
ATOM     31  C   UNL     1     108.925 129.463 136.298  0.00  0.00    +0.000 C 
BRANCH  31  34
ATOM     32  O   UNL     1     108.174 128.327 135.864  0.00  0.00    +0.000 OA
ATOM     33  O   UNL     1     108.986 129.046 134.933  0.00  0.00    +0.000 OA
ATOM     34  C   UNL     1     108.695 128.946 135.698  0.00  0.00    +0.000 C 
ENDBRANCH  31  34
ENDBRANCH  22  30
ENDBRANCH   9  22
TORSDOF 5
ENDMDL
MODEL 5
REMARK VINA RESULT:      -9.3      8.697     10.445
REMARK  Name = 101190386
REMARK  5 active torsions:
REMARK  status: ('A' for Active; 'I' for Inactive)
REMARK    1  A    between atoms: O_2  and  C_16
REMARK    2  A    between atoms: O_2  and  C_23
REMARK    3  A    between atoms: O_11  and  C_31
REMARK    4  A    between atoms: C_17  and  C_25
REMARK    5  A    between atoms: C_19  and  C_24
REMARK                            x       y       z     vdW  Elec       q    Type
REMARK                         _______ _______ _______ _____ _____    ______ ____
ROOT
ATOM      1  O   UNL     1     106.513 125.658 145.987  0.00  0.00    +0.000 OA
ATOM      2  O   UNL     1     106.910 127.205 147.475  0.00  0.00    +0.000 OA
ATOM      3  O   UNL     1     105.811 128.235 144.887  0.00  0.00    +0.000 OA
ATOM      4  C   UNL     1     106.682 126.841 146.770  0.00  0.00    +0.000 C 
ATOM      5  C   UNL     1     106.741 126.022 146.691  0.00  0.00    +0.000 C 
ATOM      6  C   UNL     1     106.393 127.296 146.145  0.00  0.00    +0.000 C 
ATOM      7  C   UNL     1     106.165 126.932 145.441  0.00  0.00    +0.000 A 
ATOM      8  C   UNL     1     106.225 126.113 145.362  0.00  0.00    +0.000 A 
ATOM      9  C   UNL     1     105.689 126.191 143.978  0.00  0.00    +0.000 A 
ATOM     10  C   UNL     1     105.990 125.722 144.633  0.00  0.00    +0.000 A 
ATOM     11  C   UNL     1     105.867 127.417 144.798  0.00  0.00    +0.000 A 
ATOM     12  C   UNL     1     105.627 127.044 144.062  0.00  0.00    +0.000 A 
ENDROOT
BRANCH   5  14
ATOM     13  O   UNL     1     107.893 124.201 149.191  0.00  0.00    +0.000 OA
ATOM     14  C   UNL     1     107.029 125.567 147.316  0.00  0.00    +0.000 A 
ATOM     15  C   UNL     1     106.503 125.183 147.824  0.00  0.00    +0.000 A 
ATOM     16  C   UNL     1     107.843 125.495 147.433  0.00  0.00    +0.000 A 
ATOM     17  C   UNL     1     106.791 124.728 148.449  0.00  0.00    +0.000 A 
ATOM     18  C   UNL     1     108.130 125.040 148.058  0.00  0.00    +0.000 A 
ATOM     19  C   UNL     1     107.605 124.656 148.566  0.00  0.00    +0.000 A 
BRANCH  17  20
ATOM     20  O   UNL     1     106.266 124.345 148.956  0.00  0.00    +0.000 OA
ATOM     21  C   UNL     1     105.518 124.665 149.095  0.00  0.00    +0.000 C 
ENDBRANCH  17  20
ENDBRANCH   5  14
BRANCH   9  22
ATOM     22  O   UNL     1     105.462 125.825 143.275  0.00  0.00    +0.000 OA
BRANCH  22  30
ATOM     23  O   UNL     1     106.608 126.224 142.520  0.00  0.00    +0.000 OA
ATOM     24  O   UNL     1     106.539 124.082 141.283  0.00  0.00    +0.000 OA
ATOM     25  O   UNL     1     105.416 124.396 142.450  0.00  0.00    +0.000 OA
ATOM     26  O   UNL     1     107.707 125.195 140.941  0.00  0.00    +0.000 OA
ATOM     27  C   UNL     1     106.562 124.796 141.696  0.00  0.00    +0.000 C 
ATOM     28  C   UNL     1     106.000 124.953 142.280  0.00  0.00    +0.000 C 
ATOM     29  C   UNL     1     107.146 125.353 141.525  0.00  0.00    +0.000 C 
ATOM     30  C   UNL     1     106.023 125.668 142.692  0.00  0.00    +0.000 C 
ATOM     31  C   UNL     1     107.169 126.067 141.937  0.00  0.00    +0.000 C 
BRANCH  31  34
ATOM     32  O   UNL     1     107.607 127.219 141.214  0.00  0.00    +0.000 OA
ATOM     33  O   UNL     1     108.483 126.584 142.147  0.00  0.00    +0.000 OA
ATOM     34  C   UNL     1     107.753 126.623 141.766  0.00  0.00    +0.000 C 
ENDBRANCH  31  34
ENDBRANCH  22  30
ENDBRANCH   9  22
TORSDOF 5
ENDMDL
MODEL 6
REMARK VINA RESULT:      -9.2      2.289      3.138
REMARK  Name = 101190386
REMARK  5 active torsions:
REMARK  status: ('A' for Active; 'I' for Inactive)
REMARK    1  A    between atoms: O_2  and  C_16
REMARK    2  A    between atoms: O_2  and  C_23
REMARK    3  A    between atoms: O_11  and  C_31
REMARK    4  A    between atoms: C_17  and  C_25
REMARK    5  A    between atoms: C_19  and  C_24
REMARK                            x       y       z     vdW  Elec       q    Type
REMARK                         _______ _______ _______ _____ _____    ______ ____
ROOT
ATOM      1  O   UNL     1     111.736 127.048 136.008  0.00  0.00    +0.000 OA
ATOM      2  O   UNL     1     109.857 126.030 135.564  0.00  0.00    +0.000 OA
ATOM      3  O   UNL     1     109.978 128.867 134.612  0.00  0.00    +0.000 OA
ATOM      4  C   UNL     1     110.435 126.617 135.603  0.00  0.00    +0.000 C 
ATOM      5  C   UNL     1     111.158 126.460 135.968  0.00  0.00    +0.000 C 
ATOM      6  C   UNL     1     110.290 127.361 135.278  0.00  0.00    +0.000 C 
ATOM      7  C   UNL     1     110.868 127.949 135.317  0.00  0.00    +0.000 A 
ATOM      8  C   UNL     1     111.591 127.792 135.682  0.00  0.00    +0.000 A 
ATOM      9  C   UNL     1     112.055 129.173 135.393  0.00  0.00    +0.000 A 
ATOM     10  C   UNL     1     112.200 128.395 135.730  0.00  0.00    +0.000 A 
ATOM     11  C   UNL     1     110.704 128.719 134.975  0.00  0.00    +0.000 A 
ATOM     12  C   UNL     1     111.302 129.335 135.013  0.00  0.00    +0.000 A 
ENDROOT
BRANCH   5  14
ATOM     13  O   UNL     1     111.738 123.484 137.270  0.00  0.00    +0.000 OA
ATOM     14  C   UNL     1     111.303 125.716 136.293  0.00  0.00    +0.000 A 
ATOM     15  C   UNL     1     111.209 125.595 137.104  0.00  0.00    +0.000 A 
ATOM     16  C   UNL     1     111.542 125.093 135.808  0.00  0.00    +0.000 A 
ATOM     17  C   UNL     1     111.354 124.851 137.430  0.00  0.00    +0.000 A 
ATOM     18  C   UNL     1     111.687 124.350 136.134  0.00  0.00    +0.000 A 
ATOM     19  C   UNL     1     111.593 124.228 136.945  0.00  0.00    +0.000 A 
BRANCH  17  20
ATOM     20  O   UNL     1     111.260 124.730 138.240  0.00  0.00    +0.000 OA
ATOM     21  C   UNL     1     111.130 125.372 138.741  0.00  0.00    +0.000 C 
ENDBRANCH  17  20
ENDBRANCH   5  14
BRANCH   9  22
ATOM     22  O   UNL     1     112.635 129.758 135.434  0.00  0.00    +0.000 OA
BRANCH  22  30
ATOM     23  O   UNL     1     112.215 130.370 136.655  0.00  0.00    +0.000 OA
ATOM     24  O   UNL     1     114.579 130.624 137.341  0.00  0.00    +0.000 OA
ATOM     25  O   UNL     1     114.211 129.927 135.891  0.00  0.00    +0.000 OA
ATOM     26  O   UNL     1     113.371 131.151 138.333  0.00  0.00    +0.000 OA
ATOM     27  C   UNL     1     113.791 130.539 137.112  0.00  0.00    +0.000 C 
ATOM     28  C   UNL     1     113.607 130.191 136.387  0.00  0.00    +0.000 C 
ATOM     29  C   UNL     1     113.186 130.803 137.608  0.00  0.00    +0.000 C 
ATOM     30  C   UNL     1     112.818 130.106 136.158  0.00  0.00    +0.000 C 
ATOM     31  C   UNL     1     112.398 130.718 137.379  0.00  0.00    +0.000 C 
BRANCH  31  34
ATOM     32  O   UNL     1     111.503 131.750 137.799  0.00  0.00    +0.000 OA
ATOM     33  O   UNL     1     111.481 130.477 138.447  0.00  0.00    +0.000 OA
ATOM     34  C   UNL     1     111.795 130.982 137.875  0.00  0.00    +0.000 C 
ENDBRANCH  31  34
ENDBRANCH  22  30
ENDBRANCH   9  22
TORSDOF 5
ENDMDL
MODEL 7
REMARK VINA RESULT:      -9.2      1.676      2.366
REMARK  Name = 101190386
REMARK  5 active torsions:
REMARK  status: ('A' for Active; 'I' for Inactive)
REMARK    1  A    between atoms: O_2  and  C_16
REMARK    2  A    between atoms: O_2  and  C_23
REMARK    3  A    between atoms: O_11  and  C_31
REMARK    4  A    between atoms: C_17  and  C_25
REMARK    5  A    between atoms: C_19  and  C_24
REMARK                            x       y       z     vdW  Elec       q    Type
REMARK                         _______ _______ _______ _____ _____    ______ ____
ROOT
ATOM      1  O   UNL     1     111.974 126.928 136.129  0.00  0.00    +0.000 OA
ATOM      2  O   UNL     1     113.864 126.180 136.924  0.00  0.00    +0.000 OA
ATOM      3  O   UNL     1     114.001 128.966 135.833  0.00  0.00    +0.000 OA
ATOM      4  C   UNL     1     113.309 126.681 136.577  0.00  0.00    +0.000 C 
ATOM      5  C   UNL     1     112.530 126.427 136.477  0.00  0.00    +0.000 C 
ATOM      6  C   UNL     1     113.531 127.436 136.330  0.00  0.00    +0.000 C 
ATOM      7  C   UNL     1     112.975 127.937 135.982  0.00  0.00    +0.000 A 
ATOM      8  C   UNL     1     112.197 127.683 135.882  0.00  0.00    +0.000 A 
ATOM      9  C   UNL     1     111.835 128.983 135.262  0.00  0.00    +0.000 A 
ATOM     10  C   UNL     1     111.609 128.195 135.522  0.00  0.00    +0.000 A 
ATOM     11  C   UNL     1     113.219 128.721 135.729  0.00  0.00    +0.000 A 
ATOM     12  C   UNL     1     112.645 129.247 135.367  0.00  0.00    +0.000 A 
ENDROOT
BRANCH   5  14
ATOM     13  O   UNL     1     111.640 123.408 137.466  0.00  0.00    +0.000 OA
ATOM     14  C   UNL     1     112.308 125.672 136.724  0.00  0.00    +0.000 A 
ATOM     15  C   UNL     1     111.892 125.576 137.430  0.00  0.00    +0.000 A 
ATOM     16  C   UNL     1     112.501 125.014 136.265  0.00  0.00    +0.000 A 
ATOM     17  C   UNL     1     111.669 124.821 137.678  0.00  0.00    +0.000 A 
ATOM     18  C   UNL     1     112.278 124.260 136.513  0.00  0.00    +0.000 A 
ATOM     19  C   UNL     1     111.862 124.163 137.219  0.00  0.00    +0.000 A 
BRANCH  17  20
ATOM     20  O   UNL     1     111.253 124.724 138.384  0.00  0.00    +0.000 OA
ATOM     21  C   UNL     1     110.836 125.358 138.707  0.00  0.00    +0.000 C 
ENDBRANCH  17  20
ENDBRANCH   5  14
BRANCH   9  22
ATOM     22  O   UNL     1     111.277 129.482 134.915  0.00  0.00    +0.000 OA
BRANCH  22  30
ATOM     23  O   UNL     1     111.037 130.363 136.014  0.00  0.00    +0.000 OA
ATOM     24  O   UNL     1     108.606 130.270 135.560  0.00  0.00    +0.000 OA
ATOM     25  O   UNL     1     109.656 129.420 134.612  0.00  0.00    +0.000 OA
ATOM     26  O   UNL     1     109.178 131.181 136.810  0.00  0.00    +0.000 OA
ATOM     27  C   UNL     1     109.417 130.301 135.712  0.00  0.00    +0.000 C 
ATOM     28  C   UNL     1     109.942 129.876 135.237  0.00  0.00    +0.000 C 
ATOM     29  C   UNL     1     109.703 130.757 136.337  0.00  0.00    +0.000 C 
ATOM     30  C   UNL     1     110.752 129.907 135.389  0.00  0.00    +0.000 C 
ATOM     31  C   UNL     1     110.513 130.788 136.488  0.00  0.00    +0.000 C 
BRANCH  31  34
ATOM     32  O   UNL     1     111.045 132.019 136.980  0.00  0.00    +0.000 OA
ATOM     33  O   UNL     1     110.837 130.924 137.873  0.00  0.00    +0.000 OA
ATOM     34  C   UNL     1     110.798 131.243 137.113  0.00  0.00    +0.000 C 
ENDBRANCH  31  34
ENDBRANCH  22  30
ENDBRANCH   9  22
TORSDOF 5
ENDMDL
MODEL 8
REMARK VINA RESULT:      -9.2      7.790     10.471
REMARK  Name = 101190386
REMARK  5 active torsions:
REMARK  status: ('A' for Active; 'I' for Inactive)
REMARK    1  A    between atoms: O_2  and  C_16
REMARK    2  A    between atoms: O_2  and  C_23
REMARK    3  A    between atoms: O_11  and  C_31
REMARK    4  A    between atoms: C_17  and  C_25
REMARK    5  A    between atoms: C_19  and  C_24
REMARK                            x       y       z     vdW  Elec       q    Type
REMARK                         _______ _______ _______ _____ _____    ______ ____
ROOT
ATOM      1  O   UNL     1     104.978 127.780 142.574  0.00  0.00    +0.000 OA
ATOM      2  O   UNL     1     105.893 129.691 142.049  0.00  0.00    +0.000 OA
ATOM      3  O   UNL     1     107.853 127.514 142.671  0.00  0.00    +0.000 OA
ATOM      4  C   UNL     1     105.811 128.900 142.268  0.00  0.00    +0.000 C 
ATOM      5  C   UNL     1     105.060 128.571 142.354  0.00  0.00    +0.000 C 
ATOM      6  C   UNL     1     106.482 128.438 142.403  0.00  0.00    +0.000 C 
ATOM      7  C   UNL     1     106.400 127.647 142.622  0.00  0.00    +0.000 A 
ATOM      8  C   UNL     1     105.648 127.318 142.708  0.00  0.00    +0.000 A 
ATOM      9  C   UNL     1     106.245 126.008 143.077  0.00  0.00    +0.000 A 
ATOM     10  C   UNL     1     105.551 126.495 142.936  0.00  0.00    +0.000 A 
ATOM     11  C   UNL     1     107.106 127.176 142.759  0.00  0.00    +0.000 A 
ATOM     12  C   UNL     1     107.028 126.352 142.988  0.00  0.00    +0.000 A 
ENDROOT
BRANCH   5  14
ATOM     13  O   UNL     1     102.379 130.418 141.816  0.00  0.00    +0.000 OA
ATOM     14  C   UNL     1     104.389 129.033 142.220  0.00  0.00    +0.000 A 
ATOM     15  C   UNL     1     104.038 129.042 141.473  0.00  0.00    +0.000 A 
ATOM     16  C   UNL     1     104.070 129.485 142.832  0.00  0.00    +0.000 A 
ATOM     17  C   UNL     1     103.368 129.504 141.338  0.00  0.00    +0.000 A 
ATOM     18  C   UNL     1     103.401 129.946 142.697  0.00  0.00    +0.000 A 
ATOM     19  C   UNL     1     103.049 129.956 141.950  0.00  0.00    +0.000 A 
BRANCH  17  20
ATOM     20  O   UNL     1     103.017 129.514 140.592  0.00  0.00    +0.000 OA
ATOM     21  C   UNL     1     102.922 128.811 140.171  0.00  0.00    +0.000 C 
ENDBRANCH  17  20
ENDBRANCH   5  14
BRANCH   9  22
ATOM     22  O   UNL     1     106.161 125.218 143.297  0.00  0.00    +0.000 OA
BRANCH  22  30
ATOM     23  O   UNL     1     106.368 125.389 144.701  0.00  0.00    +0.000 OA
ATOM     24  O   UNL     1     104.608 123.712 145.165  0.00  0.00    +0.000 OA
ATOM     25  O   UNL     1     104.988 124.100 143.607  0.00  0.00    +0.000 OA
ATOM     26  O   UNL     1     105.401 124.443 146.413  0.00  0.00    +0.000 OA
ATOM     27  C   UNL     1     105.195 124.271 145.010  0.00  0.00    +0.000 C 
ATOM     28  C   UNL     1     105.385 124.465 144.231  0.00  0.00    +0.000 C 
ATOM     29  C   UNL     1     105.592 124.637 145.634  0.00  0.00    +0.000 C 
ATOM     30  C   UNL     1     105.971 125.024 144.076  0.00  0.00    +0.000 C 
ATOM     31  C   UNL     1     106.178 125.196 145.479  0.00  0.00    +0.000 C 
BRANCH  31  34
ATOM     32  O   UNL     1     107.286 125.248 146.380  0.00  0.00    +0.000 OA
ATOM     33  O   UNL     1     106.260 126.240 146.451  0.00  0.00    +0.000 OA
ATOM     34  C   UNL     1     106.575 125.561 146.103  0.00  0.00    +0.000 C 
ENDBRANCH  31  34
ENDBRANCH  22  30
ENDBRANCH   9  22
TORSDOF 5
ENDMDL
MODEL 9
REMARK VINA RESULT:      -9.1      1.319      2.305
REMARK  Name = 101190386
REMARK  5 active torsions:
REMARK  status: ('A' for Active; 'I' for Inactive)
REMARK    1  A    between atoms: O_2  and  C_16
REMARK    2  A    between atoms: O_2  and  C_23
REMARK    3  A    between atoms: O_11  and  C_31
REMARK    4  A    between atoms: C_17  and  C_25
REMARK    5  A    between atoms: C_19  and  C_24
REMARK                            x       y       z     vdW  Elec       q    Type
REMARK                         _______ _______ _______ _____ _____    ______ ____
ROOT
ATOM      1  O   UNL     1     111.787 126.863 136.429  0.00  0.00    +0.000 OA
ATOM      2  O   UNL     1     110.823 125.375 135.155  0.00  0.00    +0.000 OA
ATOM      3  O   UNL     1     109.979 128.197 134.613  0.00  0.00    +0.000 OA
ATOM      4  C   UNL     1     111.030 126.102 135.485  0.00  0.00    +0.000 C 
ATOM      5  C   UNL     1     111.580 126.135 136.099  0.00  0.00    +0.000 C 
ATOM      6  C   UNL     1     110.686 126.797 135.201  0.00  0.00    +0.000 C 
ATOM      7  C   UNL     1     110.893 127.524 135.531  0.00  0.00    +0.000 A 
ATOM      8  C   UNL     1     111.443 127.557 136.145  0.00  0.00    +0.000 A 
ATOM      9  C   UNL     1     111.313 129.036 136.205  0.00  0.00    +0.000 A 
ATOM     10  C   UNL     1     111.667 128.308 136.497  0.00  0.00    +0.000 A 
ATOM     11  C   UNL     1     110.529 128.240 135.227  0.00  0.00    +0.000 A 
ATOM     12  C   UNL     1     110.740 129.000 135.566  0.00  0.00    +0.000 A 
ENDROOT
BRANCH   5  14
ATOM     13  O   UNL     1     112.954 123.358 137.234  0.00  0.00    +0.000 OA
ATOM     14  C   UNL     1     111.923 125.441 136.383  0.00  0.00    +0.000 A 
ATOM     15  C   UNL     1     112.715 125.276 136.219  0.00  0.00    +0.000 A 
ATOM     16  C   UNL     1     111.475 124.912 136.830  0.00  0.00    +0.000 A 
ATOM     17  C   UNL     1     113.059 124.582 136.503  0.00  0.00    +0.000 A 
ATOM     18  C   UNL     1     111.819 124.218 137.113  0.00  0.00    +0.000 A 
ATOM     19  C   UNL     1     112.611 124.053 136.950  0.00  0.00    +0.000 A 
BRANCH  17  20
ATOM     20  O   UNL     1     113.850 124.416 136.339  0.00  0.00    +0.000 OA
ATOM     21  C   UNL     1     114.429 124.986 136.482  0.00  0.00    +0.000 C 
ENDBRANCH  17  20
ENDBRANCH   5  14
BRANCH   9  22
ATOM     22  O   UNL     1     111.522 129.762 136.537  0.00  0.00    +0.000 OA
BRANCH  22  30
ATOM     23  O   UNL     1     110.428 129.816 137.454  0.00  0.00    +0.000 OA
ATOM     24  O   UNL     1     111.862 130.989 139.095  0.00  0.00    +0.000 OA
ATOM     25  O   UNL     1     112.478 130.543 137.631  0.00  0.00    +0.000 OA
ATOM     26  O   UNL     1     110.291 130.652 139.465  0.00  0.00    +0.000 OA
ATOM     27  C   UNL     1     111.384 130.598 138.548  0.00  0.00    +0.000 C 
ATOM     28  C   UNL     1     111.692 130.375 137.815  0.00  0.00    +0.000 C 
ATOM     29  C   UNL     1     110.598 130.429 138.733  0.00  0.00    +0.000 C 
ATOM     30  C   UNL     1     111.214 129.984 137.268  0.00  0.00    +0.000 C 
ATOM     31  C   UNL     1     110.120 130.039 138.186  0.00  0.00    +0.000 C 
BRANCH  31  34
ATOM     32  O   UNL     1     109.143 129.171 138.765  0.00  0.00    +0.000 OA
ATOM     33  O   UNL     1     108.739 130.402 138.163  0.00  0.00    +0.000 OA
ATOM     34  C   UNL     1     109.334 129.871 138.371  0.00  0.00    +0.000 C 
ENDBRANCH  31  34
ENDBRANCH  22  30
ENDBRANCH   9  22
TORSDOF 5
ENDMDL
MODEL 10
REMARK VINA RESULT:      -9.1      9.341     11.242
REMARK  Name = 101190386
REMARK  5 active torsions:
REMARK  status: ('A' for Active; 'I' for Inactive)
REMARK    1  A    between atoms: O_2  and  C_16
REMARK    2  A    between atoms: O_2  and  C_23
REMARK    3  A    between atoms: O_11  and  C_31
REMARK    4  A    between atoms: C_17  and  C_25
REMARK    5  A    between atoms: C_19  and  C_24
REMARK                            x       y       z     vdW  Elec       q    Type
REMARK                         _______ _______ _______ _____ _____    ______ ____
ROOT
ATOM      1  O   UNL     1     104.529 125.426 145.834  0.00  0.00    +0.000 OA
ATOM      2  O   UNL     1     105.263 124.167 147.459  0.00  0.00    +0.000 OA
ATOM      3  O   UNL     1     107.358 125.891 146.192  0.00  0.00    +0.000 OA
ATOM      4  C   UNL     1     105.249 124.717 146.844  0.00  0.00    +0.000 C 
ATOM      5  C   UNL     1     104.543 124.876 146.449  0.00  0.00    +0.000 C 
ATOM      6  C   UNL     1     105.942 125.107 146.624  0.00  0.00    +0.000 C 
ATOM      7  C   UNL     1     105.928 125.657 146.010  0.00  0.00    +0.000 A 
ATOM      8  C   UNL     1     105.222 125.817 145.614  0.00  0.00    +0.000 A 
ATOM      9  C   UNL     1     105.913 126.797 144.739  0.00  0.00    +0.000 A 
ATOM     10  C   UNL     1     105.195 126.387 144.973  0.00  0.00    +0.000 A 
ATOM     11  C   UNL     1     106.656 126.057 145.790  0.00  0.00    +0.000 A 
ATOM     12  C   UNL     1     106.648 126.631 145.151  0.00  0.00    +0.000 A 
ENDROOT
BRANCH   5  14
ATOM     13  O   UNL     1     101.773 123.313 147.327  0.00  0.00    +0.000 OA
ATOM     14  C   UNL     1     103.850 124.485 146.669  0.00  0.00    +0.000 A 
ATOM     15  C   UNL     1     103.599 123.822 146.246  0.00  0.00    +0.000 A 
ATOM     16  C   UNL     1     103.409 124.757 147.311  0.00  0.00    +0.000 A 
ATOM     17  C   UNL     1     102.906 123.432 146.466  0.00  0.00    +0.000 A 
ATOM     18  C   UNL     1     102.717 124.366 147.530  0.00  0.00    +0.000 A 
ATOM     19  C   UNL     1     102.465 123.704 147.108  0.00  0.00    +0.000 A 
BRANCH  17  20
ATOM     20  O   UNL     1     102.655 122.769 146.044  0.00  0.00    +0.000 OA
ATOM     21  C   UNL     1     102.752 122.740 145.225  0.00  0.00    +0.000 C 
ENDBRANCH  17  20
ENDBRANCH   5  14
BRANCH   9  22
ATOM     22  O   UNL     1     105.896 127.347 144.124  0.00  0.00    +0.000 OA
BRANCH  22  30
ATOM     23  O   UNL     1     106.462 126.506 143.116  0.00  0.00    +0.000 OA
ATOM     24  O   UNL     1     104.927 127.485 141.439  0.00  0.00    +0.000 OA
ATOM     25  O   UNL     1     104.873 127.999 143.006  0.00  0.00    +0.000 OA
ATOM     26  O   UNL     1     106.003 126.319 140.991  0.00  0.00    +0.000 OA
ATOM     27  C   UNL     1     105.438 127.159 141.998  0.00  0.00    +0.000 C 
ATOM     28  C   UNL     1     105.412 127.416 142.782  0.00  0.00    +0.000 C 
ATOM     29  C   UNL     1     105.977 126.575 141.774  0.00  0.00    +0.000 C 
ATOM     30  C   UNL     1     105.923 127.090 143.341  0.00  0.00    +0.000 C 
ATOM     31  C   UNL     1     106.488 126.249 142.333  0.00  0.00    +0.000 C 
BRANCH  31  34
ATOM     32  O   UNL     1     107.786 125.876 141.864  0.00  0.00    +0.000 OA
ATOM     33  O   UNL     1     106.805 124.871 142.128  0.00  0.00    +0.000 OA
ATOM     34  C   UNL     1     107.026 125.666 142.108  0.00  0.00    +0.000 C 
ENDBRANCH  31  34
ENDBRANCH  22  30
ENDBRANCH   9  22
TORSDOF 5
ENDMDL
