MODEL 1
REMARK VINA RESULT:      -8.8      0.000      0.000
REMARK  Name = 44258402
REMARK  6 active torsions:
REMARK  status: ('A' for Active; 'I' for Inactive)
REMARK    1  A    between atoms: O_2  and  C_17
REMARK    2  A    between atoms: O_2  and  C_19
REMARK    3  A    between atoms: O_10  and  C_32
REMARK    4  A    between atoms: O_12  and  C_33
REMARK    5  A    between atoms: C_16  and  C_18
REMARK    6  A    between atoms: C_20  and  C_22
REMARK                            x       y       z     vdW  Elec       q    Type
REMARK                         _______ _______ _______ _____ _____    ______ ____
ROOT
ATOM      1  O   UNL     1     110.751 125.359 135.201  0.00  0.00    +0.000 OA
ATOM      2  C   UNL     1     110.950 125.635 137.357  0.00  0.00    +0.000 A 
ATOM      3  C   UNL     1     110.731 125.761 136.571  0.00  0.00    +0.000 A 
ATOM      4  C   UNL     1     111.409 124.978 137.556  0.00  0.00    +0.000 A 
ATOM      5  C   UNL     1     110.970 125.232 135.986  0.00  0.00    +0.000 A 
ATOM      6  C   UNL     1     111.648 124.449 136.970  0.00  0.00    +0.000 A 
ATOM      7  C   UNL     1     111.429 124.576 136.186  0.00  0.00    +0.000 A 
ENDROOT
BRANCH   3  11
ATOM      8  O   UNL     1     110.650 127.160 136.162  0.00  0.00    +0.000 OA
ATOM      9  O   UNL     1     108.123 127.010 136.166  0.00  0.00    +0.000 OA
ATOM     10  O   UNL     1     108.063 128.394 135.761  0.00  0.00    +0.000 OA
ATOM     11  C   UNL     1     110.272 126.418 136.373  0.00  0.00    +0.000 A 
ATOM     12  C   UNL     1     109.415 126.364 136.375  0.00  0.00    +0.000 A 
ATOM     13  C   UNL     1     110.165 127.839 135.956  0.00  0.00    +0.000 A 
ATOM     14  C   UNL     1     109.342 127.787 135.958  0.00  0.00    +0.000 A 
ATOM     15  C   UNL     1     108.946 127.054 136.166  0.00  0.00    +0.000 A 
ATOM     16  C   UNL     1     108.886 128.446 135.759  0.00  0.00    +0.000 A 
ATOM     17  C   UNL     1     110.533 128.549 135.754  0.00  0.00    +0.000 A 
ATOM     18  C   UNL     1     109.254 129.156 135.557  0.00  0.00    +0.000 A 
ATOM     19  C   UNL     1     110.077 129.208 135.555  0.00  0.00    +0.000 A 
BRANCH  18  20
ATOM     20  O   UNL     1     108.799 129.814 135.358  0.00  0.00    +0.000 OA
ATOM     21  C   UNL     1     108.490 130.297 135.952  0.00  0.00    +0.000 C 
ENDBRANCH  18  20
BRANCH  19  22
ATOM     22  O   UNL     1     110.445 129.918 135.354  0.00  0.00    +0.000 OA
ATOM     23  C   UNL     1     111.262 129.942 135.238  0.00  0.00    +0.000 C 
ENDBRANCH  19  22
ENDBRANCH   3  11
BRANCH   2  24
ATOM     24  O   UNL     1     110.711 126.164 137.943  0.00  0.00    +0.000 OA
BRANCH  24  33
ATOM     25  O   UNL     1     111.964 126.533 138.521  0.00  0.00    +0.000 OA
ATOM     26  O   UNL     1     111.037 126.142 140.782  0.00  0.00    +0.000 OA
ATOM     27  O   UNL     1     112.600 126.642 140.607  0.00  0.00    +0.000 OA
ATOM     28  O   UNL     1     110.092 125.903 139.450  0.00  0.00    +0.000 OA
ATOM     29  C   UNL     1     111.346 126.273 140.029  0.00  0.00    +0.000 C 
ATOM     30  C   UNL     1     112.127 126.522 139.940  0.00  0.00    +0.000 C 
ATOM     31  C   UNL     1     110.874 126.153 139.362  0.00  0.00    +0.000 C 
ATOM     32  C   UNL     1     112.436 126.652 139.186  0.00  0.00    +0.000 C 
ATOM     33  C   UNL     1     111.183 126.283 138.608  0.00  0.00    +0.000 C 
BRANCH  32  35
ATOM     34  O   UNL     1     113.403 127.500 138.563  0.00  0.00    +0.000 OA
ATOM     35  C   UNL     1     113.218 126.902 139.099  0.00  0.00    +0.000 C 
ENDBRANCH  32  35
ENDBRANCH  24  33
ENDBRANCH   2  24
TORSDOF 6
ENDMDL
MODEL 2
REMARK VINA RESULT:      -8.8      0.848      4.377
REMARK  Name = 44258402
REMARK  6 active torsions:
REMARK  status: ('A' for Active; 'I' for Inactive)
REMARK    1  A    between atoms: O_2  and  C_17
REMARK    2  A    between atoms: O_2  and  C_19
REMARK    3  A    between atoms: O_10  and  C_32
REMARK    4  A    between atoms: O_12  and  C_33
REMARK    5  A    between atoms: C_16  and  C_18
REMARK    6  A    between atoms: C_20  and  C_22
REMARK                            x       y       z     vdW  Elec       q    Type
REMARK                         _______ _______ _______ _____ _____    ______ ____
ROOT
ATOM      1  O   UNL     1     111.772 124.778 136.549  0.00  0.00    +0.000 OA
ATOM      2  C   UNL     1     110.327 126.372 136.181  0.00  0.00    +0.000 A 
ATOM      3  C   UNL     1     110.879 125.893 136.565  0.00  0.00    +0.000 A 
ATOM      4  C   UNL     1     110.116 126.213 135.400  0.00  0.00    +0.000 A 
ATOM      5  C   UNL     1     111.220 125.256 136.166  0.00  0.00    +0.000 A 
ATOM      6  C   UNL     1     110.458 125.577 135.001  0.00  0.00    +0.000 A 
ATOM      7  C   UNL     1     111.009 125.099 135.384  0.00  0.00    +0.000 A 
ENDROOT
BRANCH   3  11
ATOM      8  O   UNL     1     111.698 126.633 137.521  0.00  0.00    +0.000 OA
ATOM      9  O   UNL     1     110.563 125.414 139.428  0.00  0.00    +0.000 OA
ATOM     10  O   UNL     1     111.381 126.155 140.358  0.00  0.00    +0.000 OA
ATOM     11  C   UNL     1     111.089 126.051 137.346  0.00  0.00    +0.000 A 
ATOM     12  C   UNL     1     110.703 125.636 137.992  0.00  0.00    +0.000 A 
ATOM     13  C   UNL     1     111.911 126.792 138.338  0.00  0.00    +0.000 A 
ATOM     14  C   UNL     1     111.539 126.393 138.957  0.00  0.00    +0.000 A 
ATOM     15  C   UNL     1     110.929 125.808 138.803  0.00  0.00    +0.000 A 
ATOM     16  C   UNL     1     111.752 126.554 139.738  0.00  0.00    +0.000 A 
ATOM     17  C   UNL     1     112.495 127.351 138.499  0.00  0.00    +0.000 A 
ATOM     18  C   UNL     1     112.336 127.113 139.899  0.00  0.00    +0.000 A 
ATOM     19  C   UNL     1     112.708 127.512 139.280  0.00  0.00    +0.000 A 
BRANCH  18  20
ATOM     20  O   UNL     1     112.549 127.274 140.680  0.00  0.00    +0.000 OA
ATOM     21  C   UNL     1     113.126 126.816 141.052  0.00  0.00    +0.000 C 
ENDBRANCH  18  20
BRANCH  19  22
ATOM     22  O   UNL     1     113.292 128.071 139.441  0.00  0.00    +0.000 OA
ATOM     23  C   UNL     1     113.427 128.691 138.913  0.00  0.00    +0.000 C 
ENDBRANCH  19  22
ENDBRANCH   3  11
BRANCH   2  24
ATOM     24  O   UNL     1     109.985 127.008 136.580  0.00  0.00    +0.000 OA
BRANCH  24  33
ATOM     25  O   UNL     1     110.312 128.104 135.723  0.00  0.00    +0.000 OA
ATOM     26  O   UNL     1     107.955 128.856 135.787  0.00  0.00    +0.000 OA
ATOM     27  O   UNL     1     109.067 129.702 134.909  0.00  0.00    +0.000 OA
ATOM     28  O   UNL     1     108.414 127.510 136.622  0.00  0.00    +0.000 OA
ATOM     29  C   UNL     1     108.741 128.606 135.766  0.00  0.00    +0.000 C 
ATOM     30  C   UNL     1     109.297 129.028 135.327  0.00  0.00    +0.000 C 
ATOM     31  C   UNL     1     108.970 127.932 136.184  0.00  0.00    +0.000 C 
ATOM     32  C   UNL     1     110.083 128.777 135.306  0.00  0.00    +0.000 C 
ATOM     33  C   UNL     1     109.756 127.681 136.163  0.00  0.00    +0.000 C 
BRANCH  32  35
ATOM     34  O   UNL     1     111.394 129.330 135.171  0.00  0.00    +0.000 OA
ATOM     35  C   UNL     1     110.639 129.200 134.867  0.00  0.00    +0.000 C 
ENDBRANCH  32  35
ENDBRANCH  24  33
ENDBRANCH   2  24
TORSDOF 6
ENDMDL
MODEL 3
REMARK VINA RESULT:      -8.7      1.749      2.678
REMARK  Name = 44258402
REMARK  6 active torsions:
REMARK  status: ('A' for Active; 'I' for Inactive)
REMARK    1  A    between atoms: O_2  and  C_17
REMARK    2  A    between atoms: O_2  and  C_19
REMARK    3  A    between atoms: O_10  and  C_32
REMARK    4  A    between atoms: O_12  and  C_33
REMARK    5  A    between atoms: C_16  and  C_18
REMARK    6  A    between atoms: C_20  and  C_22
REMARK                            x       y       z     vdW  Elec       q    Type
REMARK                         _______ _______ _______ _____ _____    ______ ____
ROOT
ATOM      1  O   UNL     1     114.229 125.900 135.919  0.00  0.00    +0.000 OA
ATOM      2  C   UNL     1     113.440 126.187 137.933  0.00  0.00    +0.000 A 
ATOM      3  C   UNL     1     113.534 126.252 137.116  0.00  0.00    +0.000 A 
ATOM      4  C   UNL     1     113.949 125.706 138.370  0.00  0.00    +0.000 A 
ATOM      5  C   UNL     1     114.136 125.835 136.735  0.00  0.00    +0.000 A 
ATOM      6  C   UNL     1     114.551 125.290 137.989  0.00  0.00    +0.000 A 
ATOM      7  C   UNL     1     114.644 125.354 137.173  0.00  0.00    +0.000 A 
ENDROOT
BRANCH   3  11
ATOM      8  O   UNL     1     112.286 126.416 136.375  0.00  0.00    +0.000 OA
ATOM      9  O   UNL     1     112.881 128.834 135.919  0.00  0.00    +0.000 OA
ATOM     10  O   UNL     1     111.643 128.977 135.191  0.00  0.00    +0.000 OA
ATOM     11  C   UNL     1     113.025 126.732 136.679  0.00  0.00    +0.000 A 
ATOM     12  C   UNL     1     113.229 127.553 136.526  0.00  0.00    +0.000 A 
ATOM     13  C   UNL     1     111.762 126.923 135.922  0.00  0.00    +0.000 A 
ATOM     14  C   UNL     1     111.959 127.711 135.775  0.00  0.00    +0.000 A 
ATOM     15  C   UNL     1     112.692 128.045 136.071  0.00  0.00    +0.000 A 
ATOM     16  C   UNL     1     111.447 128.189 135.338  0.00  0.00    +0.000 A 
ATOM     17  C   UNL     1     111.054 126.614 135.632  0.00  0.00    +0.000 A 
ATOM     18  C   UNL     1     110.740 127.880 135.049  0.00  0.00    +0.000 A 
ATOM     19  C   UNL     1     110.543 127.092 135.196  0.00  0.00    +0.000 A 
BRANCH  18  20
ATOM     20  O   UNL     1     110.228 128.358 134.612  0.00  0.00    +0.000 OA
ATOM     21  C   UNL     1     109.721 128.881 135.000  0.00  0.00    +0.000 C 
ENDBRANCH  18  20
BRANCH  19  22
ATOM     22  O   UNL     1     109.835 126.783 134.906  0.00  0.00    +0.000 OA
ATOM     23  C   UNL     1     109.715 125.967 134.898  0.00  0.00    +0.000 C 
ENDBRANCH  19  22
ENDBRANCH   3  11
BRANCH   2  24
ATOM     24  O   UNL     1     112.838 126.604 138.314  0.00  0.00    +0.000 OA
BRANCH  24  33
ATOM     25  O   UNL     1     113.500 127.174 139.444  0.00  0.00    +0.000 OA
ATOM     26  O   UNL     1     111.753 126.251 140.934  0.00  0.00    +0.000 OA
ATOM     27  O   UNL     1     112.997 127.129 141.568  0.00  0.00    +0.000 OA
ATOM     28  O   UNL     1     111.673 125.988 139.307  0.00  0.00    +0.000 OA
ATOM     29  C   UNL     1     112.335 126.559 140.437  0.00  0.00    +0.000 C 
ATOM     30  C   UNL     1     112.957 126.998 140.754  0.00  0.00    +0.000 C 
ATOM     31  C   UNL     1     112.296 126.427 139.623  0.00  0.00    +0.000 C 
ATOM     32  C   UNL     1     113.540 127.306 140.257  0.00  0.00    +0.000 C 
ATOM     33  C   UNL     1     112.878 126.735 139.127  0.00  0.00    +0.000 C 
BRANCH  32  35
ATOM     34  O   UNL     1     114.261 128.535 140.361  0.00  0.00    +0.000 OA
ATOM     35  C   UNL     1     114.162 127.745 140.575  0.00  0.00    +0.000 C 
ENDBRANCH  32  35
ENDBRANCH  24  33
ENDBRANCH   2  24
TORSDOF 6
ENDMDL
MODEL 4
REMARK VINA RESULT:      -8.7      9.484     11.929
REMARK  Name = 44258402
REMARK  6 active torsions:
REMARK  status: ('A' for Active; 'I' for Inactive)
REMARK    1  A    between atoms: O_2  and  C_17
REMARK    2  A    between atoms: O_2  and  C_19
REMARK    3  A    between atoms: O_10  and  C_32
REMARK    4  A    between atoms: O_12  and  C_33
REMARK    5  A    between atoms: C_16  and  C_18
REMARK    6  A    between atoms: C_20  and  C_22
REMARK                            x       y       z     vdW  Elec       q    Type
REMARK                         _______ _______ _______ _____ _____    ______ ____
ROOT
ATOM      1  O   UNL     1     105.750 124.389 149.004  0.00  0.00    +0.000 OA
ATOM      2  C   UNL     1     106.284 125.347 147.117  0.00  0.00    +0.000 A 
ATOM      3  C   UNL     1     105.832 125.010 147.721  0.00  0.00    +0.000 A 
ATOM      4  C   UNL     1     107.103 125.396 147.194  0.00  0.00    +0.000 A 
ATOM      5  C   UNL     1     106.201 124.724 148.401  0.00  0.00    +0.000 A 
ATOM      6  C   UNL     1     107.472 125.110 147.874  0.00  0.00    +0.000 A 
ATOM      7  C   UNL     1     107.021 124.775 148.477  0.00  0.00    +0.000 A 
ENDROOT
BRANCH   3  11
ATOM      8  O   UNL     1     104.661 124.337 147.169  0.00  0.00    +0.000 OA
ATOM      9  O   UNL     1     103.158 126.016 148.323  0.00  0.00    +0.000 OA
ATOM     10  O   UNL     1     102.012 125.337 147.769  0.00  0.00    +0.000 OA
ATOM     11  C   UNL     1     105.013 124.961 147.643  0.00  0.00    +0.000 A 
ATOM     12  C   UNL     1     104.505 125.532 148.036  0.00  0.00    +0.000 A 
ATOM     13  C   UNL     1     103.806 124.292 147.094  0.00  0.00    +0.000 A 
ATOM     14  C   UNL     1     103.319 124.841 147.471  0.00  0.00    +0.000 A 
ATOM     15  C   UNL     1     103.652 125.472 147.949  0.00  0.00    +0.000 A 
ATOM     16  C   UNL     1     102.499 124.788 147.391  0.00  0.00    +0.000 A 
ATOM     17  C   UNL     1     103.473 123.691 146.637  0.00  0.00    +0.000 A 
ATOM     18  C   UNL     1     102.167 124.187 146.935  0.00  0.00    +0.000 A 
ATOM     19  C   UNL     1     102.654 123.639 146.558  0.00  0.00    +0.000 A 
BRANCH  18  20
ATOM     20  O   UNL     1     101.347 124.135 146.855  0.00  0.00    +0.000 OA
ATOM     21  C   UNL     1     100.902 123.740 147.428  0.00  0.00    +0.000 C 
ENDBRANCH  18  20
BRANCH  19  22
ATOM     22  O   UNL     1     102.321 123.038 146.101  0.00  0.00    +0.000 OA
ATOM     23  C   UNL     1     102.730 122.741 145.449  0.00  0.00    +0.000 C 
ENDBRANCH  19  22
ENDBRANCH   3  11
BRANCH   2  24
ATOM     24  O   UNL     1     105.915 125.633 146.436  0.00  0.00    +0.000 OA
BRANCH  24  33
ATOM     25  O   UNL     1     106.399 126.976 146.369  0.00  0.00    +0.000 OA
ATOM     26  O   UNL     1     107.019 126.634 143.998  0.00  0.00    +0.000 OA
ATOM     27  O   UNL     1     107.295 128.091 144.721  0.00  0.00    +0.000 OA
ATOM     28  O   UNL     1     106.328 125.405 144.855  0.00  0.00    +0.000 OA
ATOM     29  C   UNL     1     106.812 126.748 144.788  0.00  0.00    +0.000 C 
ATOM     30  C   UNL     1     106.950 127.476 145.150  0.00  0.00    +0.000 C 
ATOM     31  C   UNL     1     106.466 126.133 145.217  0.00  0.00    +0.000 C 
ATOM     32  C   UNL     1     106.743 127.590 145.941  0.00  0.00    +0.000 C 
ATOM     33  C   UNL     1     106.260 126.247 146.008  0.00  0.00    +0.000 C 
BRANCH  32  35
ATOM     34  O   UNL     1     106.314 128.647 146.802  0.00  0.00    +0.000 OA
ATOM     35  C   UNL     1     106.882 128.319 146.302  0.00  0.00    +0.000 C 
ENDBRANCH  32  35
ENDBRANCH  24  33
ENDBRANCH   2  24
TORSDOF 6
ENDMDL
MODEL 5
REMARK VINA RESULT:      -8.7      2.676      4.839
REMARK  Name = 44258402
REMARK  6 active torsions:
REMARK  status: ('A' for Active; 'I' for Inactive)
REMARK    1  A    between atoms: O_2  and  C_17
REMARK    2  A    between atoms: O_2  and  C_19
REMARK    3  A    between atoms: O_10  and  C_32
REMARK    4  A    between atoms: O_12  and  C_33
REMARK    5  A    between atoms: C_16  and  C_18
REMARK    6  A    between atoms: C_20  and  C_22
REMARK                            x       y       z     vdW  Elec       q    Type
REMARK                         _______ _______ _______ _____ _____    ______ ____
ROOT
ATOM      1  O   UNL     1     114.364 128.637 135.024  0.00  0.00    +0.000 OA
ATOM      2  C   UNL     1     113.549 129.442 136.883  0.00  0.00    +0.000 A 
ATOM      3  C   UNL     1     113.706 128.924 136.259  0.00  0.00    +0.000 A 
ATOM      4  C   UNL     1     113.896 130.190 136.893  0.00  0.00    +0.000 A 
ATOM      5  C   UNL     1     114.208 129.155 135.647  0.00  0.00    +0.000 A 
ATOM      6  C   UNL     1     114.399 130.421 136.281  0.00  0.00    +0.000 A 
ATOM      7  C   UNL     1     114.555 129.904 135.658  0.00  0.00    +0.000 A 
ENDROOT
BRANCH   3  11
ATOM      8  O   UNL     1     113.756 127.510 136.620  0.00  0.00    +0.000 OA
ATOM      9  O   UNL     1     111.515 127.149 135.498  0.00  0.00    +0.000 OA
ATOM     10  O   UNL     1     111.583 125.754 135.864  0.00  0.00    +0.000 OA
ATOM     11  C   UNL     1     113.359 128.176 136.249  0.00  0.00    +0.000 A 
ATOM     12  C   UNL     1     112.598 128.056 135.868  0.00  0.00    +0.000 A 
ATOM     13  C   UNL     1     113.388 126.734 136.604  0.00  0.00    +0.000 A 
ATOM     14  C   UNL     1     112.658 126.620 136.238  0.00  0.00    +0.000 A 
ATOM     15  C   UNL     1     112.245 127.272 135.862  0.00  0.00    +0.000 A 
ATOM     16  C   UNL     1     112.314 125.869 136.230  0.00  0.00    +0.000 A 
ATOM     17  C   UNL     1     113.774 126.099 136.962  0.00  0.00    +0.000 A 
ATOM     18  C   UNL     1     112.700 125.235 136.587  0.00  0.00    +0.000 A 
ATOM     19  C   UNL     1     113.430 125.349 136.954  0.00  0.00    +0.000 A 
BRANCH  18  20
ATOM     20  O   UNL     1     112.355 124.485 136.579  0.00  0.00    +0.000 OA
ATOM     21  C   UNL     1     111.776 124.291 137.134  0.00  0.00    +0.000 C 
ENDBRANCH  18  20
BRANCH  19  22
ATOM     22  O   UNL     1     113.816 124.714 137.312  0.00  0.00    +0.000 OA
ATOM     23  C   UNL     1     114.623 124.762 137.477  0.00  0.00    +0.000 C 
ENDBRANCH  19  22
ENDBRANCH   3  11
BRANCH   2  24
ATOM     24  O   UNL     1     113.047 129.211 137.495  0.00  0.00    +0.000 OA
BRANCH  24  33
ATOM     25  O   UNL     1     112.076 130.260 137.478  0.00  0.00    +0.000 OA
ATOM     26  O   UNL     1     112.296 130.503 139.931  0.00  0.00    +0.000 OA
ATOM     27  O   UNL     1     111.252 131.471 139.097  0.00  0.00    +0.000 OA
ATOM     28  O   UNL     1     113.193 129.373 139.130  0.00  0.00    +0.000 OA
ATOM     29  C   UNL     1     112.223 130.422 139.114  0.00  0.00    +0.000 C 
ATOM     30  C   UNL     1     111.701 130.905 138.696  0.00  0.00    +0.000 C 
ATOM     31  C   UNL     1     112.672 129.857 138.713  0.00  0.00    +0.000 C 
ATOM     32  C   UNL     1     111.628 130.824 137.878  0.00  0.00    +0.000 C 
ATOM     33  C   UNL     1     112.599 129.776 137.895  0.00  0.00    +0.000 C 
BRANCH  32  35
ATOM     34  O   UNL     1     110.631 130.990 136.868  0.00  0.00    +0.000 OA
ATOM     35  C   UNL     1     111.106 131.309 137.461  0.00  0.00    +0.000 C 
ENDBRANCH  32  35
ENDBRANCH  24  33
ENDBRANCH   2  24
TORSDOF 6
ENDMDL
MODEL 6
REMARK VINA RESULT:      -8.6      2.528      4.494
REMARK  Name = 44258402
REMARK  6 active torsions:
REMARK  status: ('A' for Active; 'I' for Inactive)
REMARK    1  A    between atoms: O_2  and  C_17
REMARK    2  A    between atoms: O_2  and  C_19
REMARK    3  A    between atoms: O_10  and  C_32
REMARK    4  A    between atoms: O_12  and  C_33
REMARK    5  A    between atoms: C_16  and  C_18
REMARK    6  A    between atoms: C_20  and  C_22
REMARK                            x       y       z     vdW  Elec       q    Type
REMARK                         _______ _______ _______ _____ _____    ______ ____
ROOT
ATOM      1  O   UNL     1     114.420 127.878 135.412  0.00  0.00    +0.000 OA
ATOM      2  C   UNL     1     113.129 129.017 136.754  0.00  0.00    +0.000 A 
ATOM      3  C   UNL     1     113.476 128.380 136.359  0.00  0.00    +0.000 A 
ATOM      4  C   UNL     1     113.380 129.786 136.595  0.00  0.00    +0.000 A 
ATOM      5  C   UNL     1     114.074 128.514 135.806  0.00  0.00    +0.000 A 
ATOM      6  C   UNL     1     113.977 129.920 136.042  0.00  0.00    +0.000 A 
ATOM      7  C   UNL     1     114.324 129.284 135.648  0.00  0.00    +0.000 A 
ENDROOT
BRANCH   3  11
ATOM      8  O   UNL     1     112.541 127.287 136.112  0.00  0.00    +0.000 OA
ATOM      9  O   UNL     1     113.775 125.857 137.798  0.00  0.00    +0.000 OA
ATOM     10  O   UNL     1     112.840 124.787 137.540  0.00  0.00    +0.000 OA
ATOM     11  C   UNL     1     113.226 127.611 136.518  0.00  0.00    +0.000 A 
ATOM     12  C   UNL     1     113.646 127.127 137.091  0.00  0.00    +0.000 A 
ATOM     13  C   UNL     1     112.286 126.484 136.284  0.00  0.00    +0.000 A 
ATOM     14  C   UNL     1     112.691 126.021 136.834  0.00  0.00    +0.000 A 
ATOM     15  C   UNL     1     113.377 126.327 137.250  0.00  0.00    +0.000 A 
ATOM     16  C   UNL     1     112.436 125.251 136.990  0.00  0.00    +0.000 A 
ATOM     17  C   UNL     1     111.629 126.179 135.891  0.00  0.00    +0.000 A 
ATOM     18  C   UNL     1     111.779 124.946 136.598  0.00  0.00    +0.000 A 
ATOM     19  C   UNL     1     111.375 125.409 136.048  0.00  0.00    +0.000 A 
BRANCH  18  20
ATOM     20  O   UNL     1     111.526 124.177 136.754  0.00  0.00    +0.000 OA
ATOM     21  C   UNL     1     111.942 123.534 136.446  0.00  0.00    +0.000 C 
ENDBRANCH  18  20
BRANCH  19  22
ATOM     22  O   UNL     1     110.717 125.104 135.654  0.00  0.00    +0.000 OA
ATOM     23  C   UNL     1     110.244 125.600 135.196  0.00  0.00    +0.000 C 
ENDBRANCH  19  22
ENDBRANCH   3  11
BRANCH   2  24
ATOM     24  O   UNL     1     112.532 128.883 137.307  0.00  0.00    +0.000 OA
BRANCH  24  33
ATOM     25  O   UNL     1     113.057 129.531 138.468  0.00  0.00    +0.000 OA
ATOM     26  O   UNL     1     110.897 130.694 138.796  0.00  0.00    +0.000 OA
ATOM     27  O   UNL     1     112.142 130.954 139.847  0.00  0.00    +0.000 OA
ATOM     28  O   UNL     1     111.092 129.659 137.526  0.00  0.00    +0.000 OA
ATOM     29  C   UNL     1     111.617 130.306 138.686  0.00  0.00    +0.000 C 
ATOM     30  C   UNL     1     112.240 130.436 139.211  0.00  0.00    +0.000 C 
ATOM     31  C   UNL     1     111.715 129.788 138.051  0.00  0.00    +0.000 C 
ATOM     32  C   UNL     1     112.960 130.048 139.102  0.00  0.00    +0.000 C 
ATOM     33  C   UNL     1     112.435 129.400 137.942  0.00  0.00    +0.000 C 
BRANCH  32  35
ATOM     34  O   UNL     1     114.016 129.541 139.921  0.00  0.00    +0.000 OA
ATOM     35  C   UNL     1     113.582 130.178 139.628  0.00  0.00    +0.000 C 
ENDBRANCH  32  35
ENDBRANCH  24  33
ENDBRANCH   2  24
TORSDOF 6
ENDMDL
MODEL 7
REMARK VINA RESULT:      -8.6      2.282      4.792
REMARK  Name = 44258402
REMARK  6 active torsions:
REMARK  status: ('A' for Active; 'I' for Inactive)
REMARK    1  A    between atoms: O_2  and  C_17
REMARK    2  A    between atoms: O_2  and  C_19
REMARK    3  A    between atoms: O_10  and  C_32
REMARK    4  A    between atoms: O_12  and  C_33
REMARK    5  A    between atoms: C_16  and  C_18
REMARK    6  A    between atoms: C_20  and  C_22
REMARK                            x       y       z     vdW  Elec       q    Type
REMARK                         _______ _______ _______ _____ _____    ______ ____
ROOT
ATOM      1  O   UNL     1     114.479 127.952 135.342  0.00  0.00    +0.000 OA
ATOM      2  C   UNL     1     113.273 129.213 136.653  0.00  0.00    +0.000 A 
ATOM      3  C   UNL     1     113.580 128.543 136.280  0.00  0.00    +0.000 A 
ATOM      4  C   UNL     1     113.561 129.961 136.457  0.00  0.00    +0.000 A 
ATOM      5  C   UNL     1     114.173 128.622 135.713  0.00  0.00    +0.000 A 
ATOM      6  C   UNL     1     114.155 130.040 135.890  0.00  0.00    +0.000 A 
ATOM      7  C   UNL     1     114.461 129.370 135.518  0.00  0.00    +0.000 A 
ENDROOT
BRANCH   3  11
ATOM      8  O   UNL     1     112.629 127.461 136.043  0.00  0.00    +0.000 OA
ATOM      9  O   UNL     1     113.684 126.129 137.921  0.00  0.00    +0.000 OA
ATOM     10  O   UNL     1     112.735 125.070 137.671  0.00  0.00    +0.000 OA
ATOM     11  C   UNL     1     113.291 127.796 136.476  0.00  0.00    +0.000 A 
ATOM     12  C   UNL     1     113.651 127.346 137.114  0.00  0.00    +0.000 A 
ATOM     13  C   UNL     1     112.335 126.682 136.254  0.00  0.00    +0.000 A 
ATOM     14  C   UNL     1     112.681 126.250 136.866  0.00  0.00    +0.000 A 
ATOM     15  C   UNL     1     113.344 126.568 137.310  0.00  0.00    +0.000 A 
ATOM     16  C   UNL     1     112.389 125.502 137.059  0.00  0.00    +0.000 A 
ATOM     17  C   UNL     1     111.698 126.366 135.835  0.00  0.00    +0.000 A 
ATOM     18  C   UNL     1     111.754 125.186 136.640  0.00  0.00    +0.000 A 
ATOM     19  C   UNL     1     111.408 125.618 136.028  0.00  0.00    +0.000 A 
BRANCH  18  20
ATOM     20  O   UNL     1     111.463 124.439 136.833  0.00  0.00    +0.000 OA
ATOM     21  C   UNL     1     111.856 123.763 136.569  0.00  0.00    +0.000 C 
ENDBRANCH  18  20
BRANCH  19  22
ATOM     22  O   UNL     1     110.771 125.302 135.609  0.00  0.00    +0.000 OA
ATOM     23  C   UNL     1     110.334 125.781 135.100  0.00  0.00    +0.000 C 
ENDBRANCH  19  22
ENDBRANCH   3  11
BRANCH   2  24
ATOM     24  O   UNL     1     112.679 129.135 137.220  0.00  0.00    +0.000 OA
BRANCH  24  33
ATOM     25  O   UNL     1     111.662 130.022 136.749  0.00  0.00    +0.000 OA
ATOM     26  O   UNL     1     111.564 131.093 138.979  0.00  0.00    +0.000 OA
ATOM     27  O   UNL     1     110.580 131.623 137.765  0.00  0.00    +0.000 OA
ATOM     28  O   UNL     1     112.614 129.849 138.706  0.00  0.00    +0.000 OA
ATOM     29  C   UNL     1     111.597 130.736 138.236  0.00  0.00    +0.000 C 
ATOM     30  C   UNL     1     111.105 131.000 137.628  0.00  0.00    +0.000 C 
ATOM     31  C   UNL     1     112.122 130.113 138.099  0.00  0.00    +0.000 C 
ATOM     32  C   UNL     1     111.138 130.643 136.885  0.00  0.00    +0.000 C 
ATOM     33  C   UNL     1     112.155 129.756 137.356  0.00  0.00    +0.000 C 
BRANCH  32  35
ATOM     34  O   UNL     1     110.322 130.371 135.744  0.00  0.00    +0.000 OA
ATOM     35  C   UNL     1     110.645 130.909 136.279  0.00  0.00    +0.000 C 
ENDBRANCH  32  35
ENDBRANCH  24  33
ENDBRANCH   2  24
TORSDOF 6
ENDMDL
MODEL 8
REMARK VINA RESULT:      -8.5      1.140      4.881
REMARK  Name = 44258402
REMARK  6 active torsions:
REMARK  status: ('A' for Active; 'I' for Inactive)
REMARK    1  A    between atoms: O_2  and  C_17
REMARK    2  A    between atoms: O_2  and  C_19
REMARK    3  A    between atoms: O_10  and  C_32
REMARK    4  A    between atoms: O_12  and  C_33
REMARK    5  A    between atoms: C_16  and  C_18
REMARK    6  A    between atoms: C_20  and  C_22
REMARK                            x       y       z     vdW  Elec       q    Type
REMARK                         _______ _______ _______ _____ _____    ______ ____
ROOT
ATOM      1  O   UNL     1     111.643 124.388 137.115  0.00  0.00    +0.000 OA
ATOM      2  C   UNL     1     111.473 126.357 136.189  0.00  0.00    +0.000 A 
ATOM      3  C   UNL     1     111.672 125.762 136.725  0.00  0.00    +0.000 A 
ATOM      4  C   UNL     1     111.047 126.172 135.508  0.00  0.00    +0.000 A 
ATOM      5  C   UNL     1     111.444 124.982 136.580  0.00  0.00    +0.000 A 
ATOM      6  C   UNL     1     110.819 125.393 135.362  0.00  0.00    +0.000 A 
ATOM      7  C   UNL     1     111.018 124.799 135.897  0.00  0.00    +0.000 A 
ENDROOT
BRANCH   3  11
ATOM      8  O   UNL     1     111.686 126.173 138.126  0.00  0.00    +0.000 OA
ATOM      9  O   UNL     1     114.216 126.082 138.122  0.00  0.00    +0.000 OA
ATOM     10  O   UNL     1     114.210 126.489 139.507  0.00  0.00    +0.000 OA
ATOM     11  C   UNL     1     112.098 125.947 137.407  0.00  0.00    +0.000 A 
ATOM     12  C   UNL     1     112.957 125.916 137.403  0.00  0.00    +0.000 A 
ATOM     13  C   UNL     1     112.138 126.364 138.832  0.00  0.00    +0.000 A 
ATOM     14  C   UNL     1     112.962 126.333 138.827  0.00  0.00    +0.000 A 
ATOM     15  C   UNL     1     113.392 126.110 138.118  0.00  0.00    +0.000 A 
ATOM     16  C   UNL     1     113.386 126.519 139.512  0.00  0.00    +0.000 A 
ATOM     17  C   UNL     1     111.737 126.580 139.519  0.00  0.00    +0.000 A 
ATOM     18  C   UNL     1     112.985 126.735 140.198  0.00  0.00    +0.000 A 
ATOM     19  C   UNL     1     112.160 126.766 140.203  0.00  0.00    +0.000 A 
BRANCH  18  20
ATOM     20  O   UNL     1     113.408 126.921 140.882  0.00  0.00    +0.000 OA
ATOM     21  C   UNL     1     113.738 127.672 140.971  0.00  0.00    +0.000 C 
ENDBRANCH  18  20
BRANCH  19  22
ATOM     22  O   UNL     1     111.759 126.982 140.891  0.00  0.00    +0.000 OA
ATOM     23  C   UNL     1     110.960 126.797 140.977  0.00  0.00    +0.000 C 
ENDBRANCH  19  22
ENDBRANCH   3  11
BRANCH   2  24
ATOM     24  O   UNL     1     111.701 127.137 136.335  0.00  0.00    +0.000 OA
BRANCH  24  33
ATOM     25  O   UNL     1     110.459 127.832 136.211  0.00  0.00    +0.000 OA
ATOM     26  O   UNL     1     111.534 129.489 134.720  0.00  0.00    +0.000 OA
ATOM     27  O   UNL     1     109.934 129.632 135.094  0.00  0.00    +0.000 OA
ATOM     28  O   UNL     1     112.418 128.241 135.341  0.00  0.00    +0.000 OA
ATOM     29  C   UNL     1     111.176 128.937 135.217  0.00  0.00    +0.000 C 
ATOM     30  C   UNL     1     110.376 129.008 135.404  0.00  0.00    +0.000 C 
ATOM     31  C   UNL     1     111.618 128.312 135.528  0.00  0.00    +0.000 C 
ATOM     32  C   UNL     1     110.017 128.455 135.901  0.00  0.00    +0.000 C 
ATOM     33  C   UNL     1     111.259 127.760 136.025  0.00  0.00    +0.000 C 
BRANCH  32  35
ATOM     34  O   UNL     1     108.960 128.406 136.862  0.00  0.00    +0.000 OA
ATOM     35  C   UNL     1     109.216 128.528 136.088  0.00  0.00    +0.000 C 
ENDBRANCH  32  35
ENDBRANCH  24  33
ENDBRANCH   2  24
TORSDOF 6
ENDMDL
MODEL 9
REMARK VINA RESULT:      -8.5      2.682      5.037
REMARK  Name = 44258402
REMARK  6 active torsions:
REMARK  status: ('A' for Active; 'I' for Inactive)
REMARK    1  A    between atoms: O_2  and  C_17
REMARK    2  A    between atoms: O_2  and  C_19
REMARK    3  A    between atoms: O_10  and  C_32
REMARK    4  A    between atoms: O_12  and  C_33
REMARK    5  A    between atoms: C_16  and  C_18
REMARK    6  A    between atoms: C_20  and  C_22
REMARK                            x       y       z     vdW  Elec       q    Type
REMARK                         _______ _______ _______ _____ _____    ______ ____
ROOT
ATOM      1  O   UNL     1     114.162 126.969 140.569  0.00  0.00    +0.000 OA
ATOM      2  C   UNL     1     113.203 128.635 139.534  0.00  0.00    +0.000 A 
ATOM      3  C   UNL     1     113.418 127.865 139.742  0.00  0.00    +0.000 A 
ATOM      4  C   UNL     1     113.518 129.276 139.946  0.00  0.00    +0.000 A 
ATOM      5  C   UNL     1     113.948 127.738 140.362  0.00  0.00    +0.000 A 
ATOM      6  C   UNL     1     114.047 129.149 140.566  0.00  0.00    +0.000 A 
ATOM      7  C   UNL     1     114.262 128.380 140.774  0.00  0.00    +0.000 A 
ENDROOT
BRANCH   3  11
ATOM      8  O   UNL     1     113.517 126.905 138.646  0.00  0.00    +0.000 OA
ATOM      9  O   UNL     1     111.330 125.857 139.375  0.00  0.00    +0.000 OA
ATOM     10  O   UNL     1     111.445 124.916 138.286  0.00  0.00    +0.000 OA
ATOM     11  C   UNL     1     113.104 127.224 139.329  0.00  0.00    +0.000 A 
ATOM     12  C   UNL     1     112.362 126.870 139.578  0.00  0.00    +0.000 A 
ATOM     13  C   UNL     1     113.182 126.237 138.222  0.00  0.00    +0.000 A 
ATOM     14  C   UNL     1     112.470 125.898 138.462  0.00  0.00    +0.000 A 
ATOM     15  C   UNL     1     112.043 126.202 139.141  0.00  0.00    +0.000 A 
ATOM     16  C   UNL     1     112.158 125.256 138.046  0.00  0.00    +0.000 A 
ATOM     17  C   UNL     1     113.583 125.936 137.567  0.00  0.00    +0.000 A 
ATOM     18  C   UNL     1     112.559 124.955 137.391  0.00  0.00    +0.000 A 
ATOM     19  C   UNL     1     113.271 125.294 137.152  0.00  0.00    +0.000 A 
BRANCH  18  20
ATOM     20  O   UNL     1     112.247 124.314 136.976  0.00  0.00    +0.000 OA
ATOM     21  C   UNL     1     111.660 124.436 136.409  0.00  0.00    +0.000 C 
ENDBRANCH  18  20
BRANCH  19  22
ATOM     22  O   UNL     1     113.672 124.993 136.497  0.00  0.00    +0.000 OA
ATOM     23  C   UNL     1     114.478 125.141 136.402  0.00  0.00    +0.000 C 
ENDBRANCH  19  22
ENDBRANCH   3  11
BRANCH   2  24
ATOM     24  O   UNL     1     112.674 128.762 138.914  0.00  0.00    +0.000 OA
BRANCH  24  33
ATOM     25  O   UNL     1     113.391 129.674 138.080  0.00  0.00    +0.000 OA
ATOM     26  O   UNL     1     111.415 131.162 138.006  0.00  0.00    +0.000 OA
ATOM     27  O   UNL     1     112.791 131.578 137.197  0.00  0.00    +0.000 OA
ATOM     28  O   UNL     1     111.356 129.754 138.865  0.00  0.00    +0.000 OA
ATOM     29  C   UNL     1     112.073 130.666 138.031  0.00  0.00    +0.000 C 
ATOM     30  C   UNL     1     112.762 130.873 137.626  0.00  0.00    +0.000 C 
ATOM     31  C   UNL     1     112.044 129.961 138.460  0.00  0.00    +0.000 C 
ATOM     32  C   UNL     1     113.421 130.377 137.651  0.00  0.00    +0.000 C 
ATOM     33  C   UNL     1     112.703 129.465 138.485  0.00  0.00    +0.000 C 
BRANCH  32  35
ATOM     34  O   UNL     1     114.462 130.050 136.728  0.00  0.00    +0.000 OA
ATOM     35  C   UNL     1     114.109 130.586 137.246  0.00  0.00    +0.000 C 
ENDBRANCH  32  35
ENDBRANCH  24  33
ENDBRANCH   2  24
TORSDOF 6
ENDMDL
MODEL 10
REMARK VINA RESULT:      -8.5      1.539      2.756
REMARK  Name = 44258402
REMARK  6 active torsions:
REMARK  status: ('A' for Active; 'I' for Inactive)
REMARK    1  A    between atoms: O_2  and  C_17
REMARK    2  A    between atoms: O_2  and  C_19
REMARK    3  A    between atoms: O_10  and  C_32
REMARK    4  A    between atoms: O_12  and  C_33
REMARK    5  A    between atoms: C_16  and  C_18
REMARK    6  A    between atoms: C_20  and  C_22
REMARK                            x       y       z     vdW  Elec       q    Type
REMARK                         _______ _______ _______ _____ _____    ______ ____
ROOT
ATOM      1  O   UNL     1     112.382 129.460 135.243  0.00  0.00    +0.000 OA
ATOM      2  C   UNL     1     112.003 127.857 136.676  0.00  0.00    +0.000 A 
ATOM      3  C   UNL     1     111.882 128.511 136.186  0.00  0.00    +0.000 A 
ATOM      4  C   UNL     1     112.747 127.502 136.711  0.00  0.00    +0.000 A 
ATOM      5  C   UNL     1     112.504 128.807 135.732  0.00  0.00    +0.000 A 
ATOM      6  C   UNL     1     113.369 127.798 136.257  0.00  0.00    +0.000 A 
ATOM      7  C   UNL     1     113.247 128.451 135.768  0.00  0.00    +0.000 A 
ENDROOT
BRANCH   3  11
ATOM      8  O   UNL     1     110.923 129.474 136.720  0.00  0.00    +0.000 OA
ATOM      9  O   UNL     1     109.255 128.791 134.941  0.00  0.00    +0.000 OA
ATOM     10  O   UNL     1     108.321 129.749 135.483  0.00  0.00    +0.000 OA
ATOM     11  C   UNL     1     111.139 128.866 136.151  0.00  0.00    +0.000 A 
ATOM     12  C   UNL     1     110.574 128.633 135.547  0.00  0.00    +0.000 A 
ATOM     13  C   UNL     1     110.147 129.839 136.676  0.00  0.00    +0.000 A 
ATOM     14  C   UNL     1     109.605 129.615 136.095  0.00  0.00    +0.000 A 
ATOM     15  C   UNL     1     109.803 129.010 135.518  0.00  0.00    +0.000 A 
ATOM     16  C   UNL     1     108.862 129.973 136.063  0.00  0.00    +0.000 A 
ATOM     17  C   UNL     1     109.945 130.421 137.225  0.00  0.00    +0.000 A 
ATOM     18  C   UNL     1     108.661 130.555 136.612  0.00  0.00    +0.000 A 
ATOM     19  C   UNL     1     109.202 130.779 137.193  0.00  0.00    +0.000 A 
BRANCH  18  20
ATOM     20  O   UNL     1     107.918 130.913 136.579  0.00  0.00    +0.000 OA
ATOM     21  C   UNL     1     107.784 131.536 136.056  0.00  0.00    +0.000 C 
ENDBRANCH  18  20
BRANCH  19  22
ATOM     22  O   UNL     1     109.001 131.361 137.741  0.00  0.00    +0.000 OA
ATOM     23  C   UNL     1     109.475 131.484 138.405  0.00  0.00    +0.000 C 
ENDBRANCH  19  22
ENDBRANCH   3  11
BRANCH   2  24
ATOM     24  O   UNL     1     111.382 127.561 137.130  0.00  0.00    +0.000 OA
BRANCH  24  33
ATOM     25  O   UNL     1     111.389 126.178 136.768  0.00  0.00    +0.000 OA
ATOM     26  O   UNL     1     111.314 125.551 139.161  0.00  0.00    +0.000 OA
ATOM     27  O   UNL     1     111.347 124.378 138.001  0.00  0.00    +0.000 OA
ATOM     28  O   UNL     1     111.332 127.142 138.725  0.00  0.00    +0.000 OA
ATOM     29  C   UNL     1     111.339 125.760 138.363  0.00  0.00    +0.000 C 
ATOM     30  C   UNL     1     111.356 125.174 137.783  0.00  0.00    +0.000 C 
ATOM     31  C   UNL     1     111.348 126.556 138.145  0.00  0.00    +0.000 C 
ATOM     32  C   UNL     1     111.381 125.383 136.985  0.00  0.00    +0.000 C 
ATOM     33  C   UNL     1     111.373 126.766 137.347  0.00  0.00    +0.000 C 
BRANCH  32  35
ATOM     34  O   UNL     1     110.933 124.871 135.728  0.00  0.00    +0.000 OA
ATOM     35  C   UNL     1     111.397 124.796 136.405  0.00  0.00    +0.000 C 
ENDBRANCH  32  35
ENDBRANCH  24  33
ENDBRANCH   2  24
TORSDOF 6
ENDMDL
