MODEL 1
REMARK VINA RESULT:     -11.5      0.000      0.000
REMARK  Name = 131751598
REMARK  8 active torsions:
REMARK  status: ('A' for Active; 'I' for Inactive)
REMARK    1  A    between atoms: O_3  and  C_20
REMARK    2  A    between atoms: O_3  and  C_25
REMARK    3  A    between atoms: O_6  and  C_23
REMARK    4  A    between atoms: O_6  and  C_27
REMARK    5  A    between atoms: C_15  and  C_25
REMARK    6  A    between atoms: C_34  and  C_36
REMARK    7  A    between atoms: C_38  and  C_40
REMARK    8  A    between atoms: C_40  and  C_43
REMARK                            x       y       z     vdW  Elec       q    Type
REMARK                         _______ _______ _______ _____ _____    ______ ____
ROOT
ATOM      1  O   UNL     1     111.413 126.506 136.817  0.00  0.00    +0.000 OA
ATOM      2  O   UNL     1     109.369 125.827 134.891  0.00  0.00    +0.000 OA
ATOM      3  O   UNL     1     110.561 125.025 135.027  0.00  0.00    +0.000 OA
ATOM      4  C   UNL     1     109.475 127.518 136.356  0.00  0.00    +0.000 A 
ATOM      5  C   UNL     1     110.233 127.348 136.722  0.00  0.00    +0.000 A 
ATOM      6  C   UNL     1     109.179 127.004 135.734  0.00  0.00    +0.000 A 
ATOM      7  C   UNL     1     110.685 126.665 136.462  0.00  0.00    +0.000 A 
ATOM      8  C   UNL     1     109.645 126.326 135.487  0.00  0.00    +0.000 A 
ATOM      9  C   UNL     1     110.401 126.172 135.865  0.00  0.00    +0.000 A 
ATOM     10  C   UNL     1     110.845 125.519 135.624  0.00  0.00    +0.000 A 
ATOM     11  C   UNL     1     111.856 125.854 136.575  0.00  0.00    +0.000 A 
ATOM     12  C   UNL     1     111.572 125.360 135.979  0.00  0.00    +0.000 A 
ENDROOT
BRANCH  11  14
ATOM     13  O   UNL     1     114.766 125.218 137.997  0.00  0.00    +0.000 OA
ATOM     14  C   UNL     1     112.583 125.695 136.930  0.00  0.00    +0.000 A 
ATOM     15  C   UNL     1     112.770 126.035 137.659  0.00  0.00    +0.000 A 
ATOM     16  C   UNL     1     113.497 125.876 138.015  0.00  0.00    +0.000 A 
ATOM     17  C   UNL     1     113.125 125.196 136.558  0.00  0.00    +0.000 A 
ATOM     18  C   UNL     1     114.038 125.377 137.641  0.00  0.00    +0.000 A 
ATOM     19  C   UNL     1     113.851 125.037 136.913  0.00  0.00    +0.000 A 
BRANCH  16  20
ATOM     20  C   UNL     1     113.684 126.216 138.743  0.00  0.00    +0.000 C 
BRANCH  20  21
ATOM     21  C   UNL     1     113.366 126.948 138.950  0.00  0.00    +0.000 C 
ATOM     22  C   UNL     1     113.506 127.261 139.700  0.00  0.00    +0.000 C 
ATOM     23  C   UNL     1     113.188 127.994 139.907  0.00  0.00    +0.000 C 
ATOM     24  C   UNL     1     113.965 126.843 140.243  0.00  0.00    +0.000 C 
ENDBRANCH  20  21
ENDBRANCH  16  20
ENDBRANCH  11  14
BRANCH   4  25
ATOM     25  O   UNL     1     109.034 128.172 136.599  0.00  0.00    +0.000 OA
BRANCH  25  34
ATOM     26  O   UNL     1     109.990 129.214 136.396  0.00  0.00    +0.000 OA
ATOM     27  O   UNL     1     109.783 131.182 135.474  0.00  0.00    +0.000 OA
ATOM     28  O   UNL     1     108.246 130.603 135.318  0.00  0.00    +0.000 OA
ATOM     29  O   UNL     1     107.871 129.097 135.881  0.00  0.00    +0.000 OA
ATOM     30  C   UNL     1     110.177 129.967 136.115  0.00  0.00    +0.000 C 
ATOM     31  C   UNL     1     109.596 130.430 135.755  0.00  0.00    +0.000 C 
ATOM     32  C   UNL     1     108.828 130.139 135.678  0.00  0.00    +0.000 C 
ATOM     33  C   UNL     1     108.640 129.387 135.959  0.00  0.00    +0.000 C 
ATOM     34  C   UNL     1     109.221 128.925 136.318  0.00  0.00    +0.000 C 
BRANCH  30  35
ATOM     35  C   UNL     1     110.945 130.257 136.192  0.00  0.00    +0.000 C 
BRANCH  35  36
ATOM     36  O   UNL     1     111.310 130.269 136.932  0.00  0.00    +0.000 OA
BRANCH  36  42
ATOM     37  O   UNL     1     112.585 129.797 136.493  0.00  0.00    +0.000 OA
ATOM     38  O   UNL     1     112.052 131.255 138.028  0.00  0.00    +0.000 OA
ATOM     39  O   UNL     1     113.698 131.276 138.136  0.00  0.00    +0.000 OA
ATOM     40  O   UNL     1     114.602 130.311 137.149  0.00  0.00    +0.000 OA
ATOM     41  C   UNL     1     112.504 130.772 137.534  0.00  0.00    +0.000 C 
ATOM     42  C   UNL     1     112.133 130.279 136.986  0.00  0.00    +0.000 C 
ATOM     43  C   UNL     1     113.327 130.783 137.588  0.00  0.00    +0.000 C 
ATOM     44  C   UNL     1     113.779 130.301 137.095  0.00  0.00    +0.000 C 
ATOM     45  C   UNL     1     113.408 129.808 136.547  0.00  0.00    +0.000 C 
ATOM     46  C   UNL     1     113.860 129.326 136.053  0.00  0.00    +0.000 C 
ENDBRANCH  36  42
ENDBRANCH  35  36
ENDBRANCH  30  35
ENDBRANCH  25  34
ENDBRANCH   4  25
TORSDOF 8
ENDMDL
MODEL 2
REMARK VINA RESULT:     -11.2      1.409      1.875
REMARK  Name = 131751598
REMARK  8 active torsions:
REMARK  status: ('A' for Active; 'I' for Inactive)
REMARK    1  A    between atoms: O_3  and  C_20
REMARK    2  A    between atoms: O_3  and  C_25
REMARK    3  A    between atoms: O_6  and  C_23
REMARK    4  A    between atoms: O_6  and  C_27
REMARK    5  A    between atoms: C_15  and  C_25
REMARK    6  A    between atoms: C_34  and  C_36
REMARK    7  A    between atoms: C_38  and  C_40
REMARK    8  A    between atoms: C_40  and  C_43
REMARK                            x       y       z     vdW  Elec       q    Type
REMARK                         _______ _______ _______ _____ _____    ______ ____
ROOT
ATOM      1  O   UNL     1     112.054 126.736 136.225  0.00  0.00    +0.000 OA
ATOM      2  O   UNL     1     109.608 125.963 134.895  0.00  0.00    +0.000 OA
ATOM      3  O   UNL     1     110.492 124.974 135.461  0.00  0.00    +0.000 OA
ATOM      4  C   UNL     1     110.484 127.994 135.253  0.00  0.00    +0.000 A 
ATOM      5  C   UNL     1     111.200 127.773 135.673  0.00  0.00    +0.000 A 
ATOM      6  C   UNL     1     109.941 127.382 134.988  0.00  0.00    +0.000 A 
ATOM      7  C   UNL     1     111.364 126.942 135.822  0.00  0.00    +0.000 A 
ATOM      8  C   UNL     1     110.123 126.557 135.145  0.00  0.00    +0.000 A 
ATOM      9  C   UNL     1     110.844 126.355 135.567  0.00  0.00    +0.000 A 
ATOM     10  C   UNL     1     111.013 125.561 135.716  0.00  0.00    +0.000 A 
ATOM     11  C   UNL     1     112.222 125.942 136.373  0.00  0.00    +0.000 A 
ATOM     12  C   UNL     1     111.702 125.355 136.119  0.00  0.00    +0.000 A 
ENDROOT
BRANCH  11  14
ATOM     13  O   UNL     1     114.979 125.115 137.988  0.00  0.00    +0.000 OA
ATOM     14  C   UNL     1     112.911 125.735 136.777  0.00  0.00    +0.000 A 
ATOM     15  C   UNL     1     113.060 126.046 137.527  0.00  0.00    +0.000 A 
ATOM     16  C   UNL     1     113.749 125.840 137.931  0.00  0.00    +0.000 A 
ATOM     17  C   UNL     1     113.453 125.217 136.431  0.00  0.00    +0.000 A 
ATOM     18  C   UNL     1     114.290 125.322 137.585  0.00  0.00    +0.000 A 
ATOM     19  C   UNL     1     114.141 125.011 136.835  0.00  0.00    +0.000 A 
BRANCH  16  20
ATOM     20  C   UNL     1     113.897 126.151 138.680  0.00  0.00    +0.000 C 
BRANCH  20  21
ATOM     21  C   UNL     1     113.278 126.248 139.217  0.00  0.00    +0.000 C 
ATOM     22  C   UNL     1     113.401 126.668 139.916  0.00  0.00    +0.000 C 
ATOM     23  C   UNL     1     112.781 126.764 140.453  0.00  0.00    +0.000 C 
ATOM     24  C   UNL     1     114.142 126.992 140.078  0.00  0.00    +0.000 C 
ENDBRANCH  20  21
ENDBRANCH  16  20
ENDBRANCH  11  14
BRANCH   4  25
ATOM     25  O   UNL     1     110.317 128.789 135.106  0.00  0.00    +0.000 OA
BRANCH  25  34
ATOM     26  O   UNL     1     110.113 129.284 136.430  0.00  0.00    +0.000 OA
ATOM     27  O   UNL     1     108.522 130.527 137.261  0.00  0.00    +0.000 OA
ATOM     28  O   UNL     1     108.033 130.404 135.690  0.00  0.00    +0.000 OA
ATOM     29  O   UNL     1     108.931 129.535 134.612  0.00  0.00    +0.000 OA
ATOM     30  C   UNL     1     109.664 129.719 136.969  0.00  0.00    +0.000 C 
ATOM     31  C   UNL     1     108.971 130.092 136.722  0.00  0.00    +0.000 C 
ATOM     32  C   UNL     1     108.727 130.031 135.937  0.00  0.00    +0.000 C 
ATOM     33  C   UNL     1     109.176 129.596 135.398  0.00  0.00    +0.000 C 
ATOM     34  C   UNL     1     109.869 129.223 135.645  0.00  0.00    +0.000 C 
BRANCH  30  35
ATOM     35  C   UNL     1     109.908 129.780 137.755  0.00  0.00    +0.000 C 
BRANCH  35  36
ATOM     36  O   UNL     1     110.711 129.756 137.941  0.00  0.00    +0.000 OA
BRANCH  36  42
ATOM     37  O   UNL     1     110.462 129.611 139.341  0.00  0.00    +0.000 OA
ATOM     38  O   UNL     1     112.188 130.414 138.272  0.00  0.00    +0.000 OA
ATOM     39  O   UNL     1     112.677 130.598 139.837  0.00  0.00    +0.000 OA
ATOM     40  O   UNL     1     111.690 130.124 141.072  0.00  0.00    +0.000 OA
ATOM     41  C   UNL     1     111.693 130.177 138.890  0.00  0.00    +0.000 C 
ATOM     42  C   UNL     1     110.955 129.848 138.724  0.00  0.00    +0.000 C 
ATOM     43  C   UNL     1     111.939 130.269 139.672  0.00  0.00    +0.000 C 
ATOM     44  C   UNL     1     111.445 130.032 140.288  0.00  0.00    +0.000 C 
ATOM     45  C   UNL     1     110.706 129.703 140.123  0.00  0.00    +0.000 C 
ATOM     46  C   UNL     1     110.213 129.466 140.741  0.00  0.00    +0.000 C 
ENDBRANCH  36  42
ENDBRANCH  35  36
ENDBRANCH  30  35
ENDBRANCH  25  34
ENDBRANCH   4  25
TORSDOF 8
ENDMDL
MODEL 3
REMARK VINA RESULT:     -11.1      1.746      2.760
REMARK  Name = 131751598
REMARK  8 active torsions:
REMARK  status: ('A' for Active; 'I' for Inactive)
REMARK    1  A    between atoms: O_3  and  C_20
REMARK    2  A    between atoms: O_3  and  C_25
REMARK    3  A    between atoms: O_6  and  C_23
REMARK    4  A    between atoms: O_6  and  C_27
REMARK    5  A    between atoms: C_15  and  C_25
REMARK    6  A    between atoms: C_34  and  C_36
REMARK    7  A    between atoms: C_38  and  C_40
REMARK    8  A    between atoms: C_40  and  C_43
REMARK                            x       y       z     vdW  Elec       q    Type
REMARK                         _______ _______ _______ _____ _____    ______ ____
ROOT
ATOM      1  O   UNL     1     110.633 127.287 136.505  0.00  0.00    +0.000 OA
ATOM      2  O   UNL     1     110.807 129.768 135.034  0.00  0.00    +0.000 OA
ATOM      3  O   UNL     1     111.539 128.599 134.612  0.00  0.00    +0.000 OA
ATOM      4  C   UNL     1     109.645 129.255 136.879  0.00  0.00    +0.000 A 
ATOM      5  C   UNL     1     109.874 128.433 136.973  0.00  0.00    +0.000 A 
ATOM      6  C   UNL     1     109.959 129.711 136.222  0.00  0.00    +0.000 A 
ATOM      7  C   UNL     1     110.416 128.077 136.409  0.00  0.00    +0.000 A 
ATOM      8  C   UNL     1     110.500 129.339 135.668  0.00  0.00    +0.000 A 
ATOM      9  C   UNL     1     110.718 128.515 135.778  0.00  0.00    +0.000 A 
ATOM     10  C   UNL     1     111.237 128.162 135.243  0.00  0.00    +0.000 A 
ATOM     11  C   UNL     1     111.153 126.935 135.969  0.00  0.00    +0.000 A 
ATOM     12  C   UNL     1     111.455 127.371 135.338  0.00  0.00    +0.000 A 
ENDROOT
BRANCH  11  14
ATOM     13  O   UNL     1     112.023 123.774 136.351  0.00  0.00    +0.000 OA
ATOM     14  C   UNL     1     111.370 126.145 136.064  0.00  0.00    +0.000 A 
ATOM     15  C   UNL     1     112.109 125.955 136.378  0.00  0.00    +0.000 A 
ATOM     16  C   UNL     1     112.327 125.165 136.473  0.00  0.00    +0.000 A 
ATOM     17  C   UNL     1     110.848 125.543 135.847  0.00  0.00    +0.000 A 
ATOM     18  C   UNL     1     111.805 124.565 136.255  0.00  0.00    +0.000 A 
ATOM     19  C   UNL     1     111.066 124.754 135.942  0.00  0.00    +0.000 A 
BRANCH  16  20
ATOM     20  C   UNL     1     113.067 124.975 136.786  0.00  0.00    +0.000 C 
BRANCH  20  21
ATOM     21  C   UNL     1     113.372 125.411 137.417  0.00  0.00    +0.000 C 
ATOM     22  C   UNL     1     114.154 125.300 137.654  0.00  0.00    +0.000 C 
ATOM     23  C   UNL     1     114.459 125.736 138.285  0.00  0.00    +0.000 C 
ATOM     24  C   UNL     1     114.632 124.755 137.260  0.00  0.00    +0.000 C 
ENDBRANCH  20  21
ENDBRANCH  16  20
ENDBRANCH  11  14
BRANCH   4  25
ATOM     25  O   UNL     1     109.125 129.606 137.416  0.00  0.00    +0.000 OA
BRANCH  25  34
ATOM     26  O   UNL     1     110.094 130.135 138.323  0.00  0.00    +0.000 OA
ATOM     27  O   UNL     1     110.172 132.047 139.374  0.00  0.00    +0.000 OA
ATOM     28  O   UNL     1     108.757 132.208 138.540  0.00  0.00    +0.000 OA
ATOM     29  O   UNL     1     108.234 130.987 137.561  0.00  0.00    +0.000 OA
ATOM     30  C   UNL     1     110.356 130.746 138.812  0.00  0.00    +0.000 C 
ATOM     31  C   UNL     1     109.910 131.437 138.885  0.00  0.00    +0.000 C 
ATOM     32  C   UNL     1     109.203 131.517 138.467  0.00  0.00    +0.000 C 
ATOM     33  C   UNL     1     108.941 130.906 137.978  0.00  0.00    +0.000 C 
ATOM     34  C   UNL     1     109.386 130.216 137.906  0.00  0.00    +0.000 C 
BRANCH  30  35
ATOM     35  C   UNL     1     111.063 130.666 139.230  0.00  0.00    +0.000 C 
BRANCH  35  36
ATOM     36  O   UNL     1     111.734 130.371 138.852  0.00  0.00    +0.000 OA
BRANCH  36  42
ATOM     37  O   UNL     1     112.416 130.056 140.068  0.00  0.00    +0.000 OA
ATOM     38  O   UNL     1     113.184 130.631 138.107  0.00  0.00    +0.000 OA
ATOM     39  O   UNL     1     114.590 130.445 138.951  0.00  0.00    +0.000 OA
ATOM     40  O   UNL     1     114.546 130.000 140.539  0.00  0.00    +0.000 OA
ATOM     41  C   UNL     1     113.162 130.408 138.902  0.00  0.00    +0.000 C 
ATOM     42  C   UNL     1     112.437 130.278 139.274  0.00  0.00    +0.000 C 
ATOM     43  C   UNL     1     113.865 130.315 139.323  0.00  0.00    +0.000 C 
ATOM     44  C   UNL     1     113.843 130.093 140.117  0.00  0.00    +0.000 C 
ATOM     45  C   UNL     1     113.118 129.963 140.489  0.00  0.00    +0.000 C 
ATOM     46  C   UNL     1     113.097 129.741 141.284  0.00  0.00    +0.000 C 
ENDBRANCH  36  42
ENDBRANCH  35  36
ENDBRANCH  30  35
ENDBRANCH  25  34
ENDBRANCH   4  25
TORSDOF 8
ENDMDL
MODEL 4
REMARK VINA RESULT:     -11.0      1.270      4.255
REMARK  Name = 131751598
REMARK  8 active torsions:
REMARK  status: ('A' for Active; 'I' for Inactive)
REMARK    1  A    between atoms: O_3  and  C_20
REMARK    2  A    between atoms: O_3  and  C_25
REMARK    3  A    between atoms: O_6  and  C_23
REMARK    4  A    between atoms: O_6  and  C_27
REMARK    5  A    between atoms: C_15  and  C_25
REMARK    6  A    between atoms: C_34  and  C_36
REMARK    7  A    between atoms: C_38  and  C_40
REMARK    8  A    between atoms: C_40  and  C_43
REMARK                            x       y       z     vdW  Elec       q    Type
REMARK                         _______ _______ _______ _____ _____    ______ ____
ROOT
ATOM      1  O   UNL     1     112.667 129.815 137.310  0.00  0.00    +0.000 OA
ATOM      2  O   UNL     1     113.362 128.968 134.636  0.00  0.00    +0.000 OA
ATOM      3  O   UNL     1     114.368 129.099 135.661  0.00  0.00    +0.000 OA
ATOM      4  C   UNL     1     111.374 129.514 135.513  0.00  0.00    +0.000 A 
ATOM      5  C   UNL     1     111.614 129.700 136.316  0.00  0.00    +0.000 A 
ATOM      6  C   UNL     1     111.964 129.266 134.940  0.00  0.00    +0.000 A 
ATOM      7  C   UNL     1     112.442 129.635 136.537  0.00  0.00    +0.000 A 
ATOM      8  C   UNL     1     112.787 129.206 135.179  0.00  0.00    +0.000 A 
ATOM      9  C   UNL     1     113.009 129.396 135.987  0.00  0.00    +0.000 A 
ATOM     10  C   UNL     1     113.801 129.338 136.211  0.00  0.00    +0.000 A 
ATOM     11  C   UNL     1     113.459 129.756 137.533  0.00  0.00    +0.000 A 
ATOM     12  C   UNL     1     114.026 129.517 136.984  0.00  0.00    +0.000 A 
ENDROOT
BRANCH  11  14
ATOM     13  O   UNL     1     114.358 130.474 140.626  0.00  0.00    +0.000 OA
ATOM     14  C   UNL     1     113.684 129.936 138.306  0.00  0.00    +0.000 A 
ATOM     15  C   UNL     1     113.529 129.401 138.916  0.00  0.00    +0.000 A 
ATOM     16  C   UNL     1     113.754 129.580 139.689  0.00  0.00    +0.000 A 
ATOM     17  C   UNL     1     114.063 130.650 138.471  0.00  0.00    +0.000 A 
ATOM     18  C   UNL     1     114.133 130.294 139.853  0.00  0.00    +0.000 A 
ATOM     19  C   UNL     1     114.288 130.829 139.243  0.00  0.00    +0.000 A 
BRANCH  16  20
ATOM     20  C   UNL     1     113.599 129.046 140.299  0.00  0.00    +0.000 C 
BRANCH  20  21
ATOM     21  C   UNL     1     114.001 128.327 140.329  0.00  0.00    +0.000 C 
ATOM     22  C   UNL     1     113.752 127.737 140.849  0.00  0.00    +0.000 C 
ATOM     23  C   UNL     1     114.155 127.017 140.878  0.00  0.00    +0.000 C 
ATOM     24  C   UNL     1     113.101 127.866 141.339  0.00  0.00    +0.000 C 
ENDBRANCH  20  21
ENDBRANCH  16  20
ENDBRANCH  11  14
BRANCH   4  25
ATOM     25  O   UNL     1     110.580 129.574 135.292  0.00  0.00    +0.000 OA
BRANCH  25  34
ATOM     26  O   UNL     1     110.304 128.276 135.821  0.00  0.00    +0.000 OA
ATOM     27  O   UNL     1     108.410 127.302 136.300  0.00  0.00    +0.000 OA
ATOM     28  O   UNL     1     107.878 128.762 135.746  0.00  0.00    +0.000 OA
ATOM     29  O   UNL     1     108.963 129.898 135.242  0.00  0.00    +0.000 OA
ATOM     30  C   UNL     1     109.762 127.708 136.073  0.00  0.00    +0.000 C 
ATOM     31  C   UNL     1     108.953 127.870 136.048  0.00  0.00    +0.000 C 
ATOM     32  C   UNL     1     108.687 128.600 135.771  0.00  0.00    +0.000 C 
ATOM     33  C   UNL     1     109.230 129.168 135.519  0.00  0.00    +0.000 C 
ATOM     34  C   UNL     1     110.038 129.006 135.544  0.00  0.00    +0.000 C 
BRANCH  30  35
ATOM     35  C   UNL     1     110.027 126.978 136.350  0.00  0.00    +0.000 C 
BRANCH  35  36
ATOM     36  O   UNL     1     110.518 126.510 135.879  0.00  0.00    +0.000 OA
BRANCH  36  42
ATOM     37  O   UNL     1     111.515 126.204 136.855  0.00  0.00    +0.000 OA
ATOM     38  O   UNL     1     110.579 124.956 135.328  0.00  0.00    +0.000 OA
ATOM     39  O   UNL     1     111.608 123.873 136.029  0.00  0.00    +0.000 OA
ATOM     40  O   UNL     1     112.574 124.343 137.280  0.00  0.00    +0.000 OA
ATOM     41  C   UNL     1     111.063 125.192 135.954  0.00  0.00    +0.000 C 
ATOM     42  C   UNL     1     111.032 125.969 136.230  0.00  0.00    +0.000 C 
ATOM     43  C   UNL     1     111.577 124.650 136.304  0.00  0.00    +0.000 C 
ATOM     44  C   UNL     1     112.060 124.886 136.930  0.00  0.00    +0.000 C 
ATOM     45  C   UNL     1     112.029 125.663 137.205  0.00  0.00    +0.000 C 
ATOM     46  C   UNL     1     112.513 125.897 137.831  0.00  0.00    +0.000 C 
ENDBRANCH  36  42
ENDBRANCH  35  36
ENDBRANCH  30  35
ENDBRANCH  25  34
ENDBRANCH   4  25
TORSDOF 8
ENDMDL
MODEL 5
REMARK VINA RESULT:     -10.9      1.470      3.049
REMARK  Name = 131751598
REMARK  8 active torsions:
REMARK  status: ('A' for Active; 'I' for Inactive)
REMARK    1  A    between atoms: O_3  and  C_20
REMARK    2  A    between atoms: O_3  and  C_25
REMARK    3  A    between atoms: O_6  and  C_23
REMARK    4  A    between atoms: O_6  and  C_27
REMARK    5  A    between atoms: C_15  and  C_25
REMARK    6  A    between atoms: C_34  and  C_36
REMARK    7  A    between atoms: C_38  and  C_40
REMARK    8  A    between atoms: C_40  and  C_43
REMARK                            x       y       z     vdW  Elec       q    Type
REMARK                         _______ _______ _______ _____ _____    ______ ____
ROOT
ATOM      1  O   UNL     1     110.288 128.054 135.767  0.00  0.00    +0.000 OA
ATOM      2  O   UNL     1     107.739 129.412 135.815  0.00  0.00    +0.000 OA
ATOM      3  O   UNL     1     107.815 127.972 135.823  0.00  0.00    +0.000 OA
ATOM      4  C   UNL     1     109.820 130.238 135.763  0.00  0.00    +0.000 A 
ATOM      5  C   UNL     1     110.269 129.506 135.758  0.00  0.00    +0.000 A 
ATOM      6  C   UNL     1     108.961 130.210 135.782  0.00  0.00    +0.000 A 
ATOM      7  C   UNL     1     109.852 128.754 135.772  0.00  0.00    +0.000 A 
ATOM      8  C   UNL     1     108.562 129.450 135.796  0.00  0.00    +0.000 A 
ATOM      9  C   UNL     1     109.028 128.727 135.791  0.00  0.00    +0.000 A 
ATOM     10  C   UNL     1     108.640 127.999 135.804  0.00  0.00    +0.000 A 
ATOM     11  C   UNL     1     109.899 127.326 135.781  0.00  0.00    +0.000 A 
ATOM     12  C   UNL     1     109.075 127.298 135.799  0.00  0.00    +0.000 A 
ENDROOT
BRANCH  11  14
ATOM     13  O   UNL     1     111.642 124.524 135.761  0.00  0.00    +0.000 OA
ATOM     14  C   UNL     1     110.335 126.626 135.776  0.00  0.00    +0.000 A 
ATOM     15  C   UNL     1     111.035 126.572 136.209  0.00  0.00    +0.000 A 
ATOM     16  C   UNL     1     111.471 125.872 136.205  0.00  0.00    +0.000 A 
ATOM     17  C   UNL     1     110.071 125.978 135.337  0.00  0.00    +0.000 A 
ATOM     18  C   UNL     1     111.207 125.225 135.766  0.00  0.00    +0.000 A 
ATOM     19  C   UNL     1     110.507 125.279 135.333  0.00  0.00    +0.000 A 
BRANCH  16  20
ATOM     20  C   UNL     1     112.171 125.818 136.638  0.00  0.00    +0.000 C 
BRANCH  20  21
ATOM     21  C   UNL     1     112.756 126.393 136.550  0.00  0.00    +0.000 C 
ATOM     22  C   UNL     1     113.418 126.386 137.042  0.00  0.00    +0.000 C 
ATOM     23  C   UNL     1     114.003 126.962 136.954  0.00  0.00    +0.000 C 
ATOM     24  C   UNL     1     113.495 125.804 137.622  0.00  0.00    +0.000 C 
ENDBRANCH  20  21
ENDBRANCH  16  20
ENDBRANCH  11  14
BRANCH   4  25
ATOM     25  O   UNL     1     110.212 130.965 135.749  0.00  0.00    +0.000 OA
BRANCH  25  34
ATOM     26  O   UNL     1     110.698 130.983 137.092  0.00  0.00    +0.000 OA
ATOM     27  O   UNL     1     110.769 132.594 138.565  0.00  0.00    +0.000 OA
ATOM     28  O   UNL     1     110.075 133.371 137.285  0.00  0.00    +0.000 OA
ATOM     29  O   UNL     1     109.796 132.557 135.877  0.00  0.00    +0.000 OA
ATOM     30  C   UNL     1     110.837 131.390 137.796  0.00  0.00    +0.000 C 
ATOM     31  C   UNL     1     110.629 132.187 137.861  0.00  0.00    +0.000 C 
ATOM     32  C   UNL     1     110.283 132.575 137.221  0.00  0.00    +0.000 C 
ATOM     33  C   UNL     1     110.143 132.168 136.517  0.00  0.00    +0.000 C 
ATOM     34  C   UNL     1     110.351 131.372 136.453  0.00  0.00    +0.000 C 
BRANCH  30  35
ATOM     35  C   UNL     1     111.184 131.002 138.436  0.00  0.00    +0.000 C 
BRANCH  35  36
ATOM     36  O   UNL     1     111.915 130.629 138.347  0.00  0.00    +0.000 OA
BRANCH  36  42
ATOM     37  O   UNL     1     111.591 129.384 138.969  0.00  0.00    +0.000 OA
ATOM     38  O   UNL     1     113.390 130.615 139.085  0.00  0.00    +0.000 OA
ATOM     39  O   UNL     1     113.804 129.363 140.077  0.00  0.00    +0.000 OA
ATOM     40  O   UNL     1     112.743 128.125 140.330  0.00  0.00    +0.000 OA
ATOM     41  C   UNL     1     112.859 129.996 139.212  0.00  0.00    +0.000 C 
ATOM     42  C   UNL     1     112.121 130.003 138.843  0.00  0.00    +0.000 C 
ATOM     43  C   UNL     1     113.066 129.370 139.708  0.00  0.00    +0.000 C 
ATOM     44  C   UNL     1     112.535 128.752 139.834  0.00  0.00    +0.000 C 
ATOM     45  C   UNL     1     111.798 128.759 139.465  0.00  0.00    +0.000 C 
ATOM     46  C   UNL     1     111.267 128.140 139.592  0.00  0.00    +0.000 C 
ENDBRANCH  36  42
ENDBRANCH  35  36
ENDBRANCH  30  35
ENDBRANCH  25  34
ENDBRANCH   4  25
TORSDOF 8
ENDMDL
MODEL 6
REMARK VINA RESULT:     -10.9      1.919      3.838
REMARK  Name = 131751598
REMARK  8 active torsions:
REMARK  status: ('A' for Active; 'I' for Inactive)
REMARK    1  A    between atoms: O_3  and  C_20
REMARK    2  A    between atoms: O_3  and  C_25
REMARK    3  A    between atoms: O_6  and  C_23
REMARK    4  A    between atoms: O_6  and  C_27
REMARK    5  A    between atoms: C_15  and  C_25
REMARK    6  A    between atoms: C_34  and  C_36
REMARK    7  A    between atoms: C_38  and  C_40
REMARK    8  A    between atoms: C_40  and  C_43
REMARK                            x       y       z     vdW  Elec       q    Type
REMARK                         _______ _______ _______ _____ _____    ______ ____
ROOT
ATOM      1  O   UNL     1     111.896 127.326 135.954  0.00  0.00    +0.000 OA
ATOM      2  O   UNL     1     110.220 129.289 134.656  0.00  0.00    +0.000 OA
ATOM      3  O   UNL     1     109.874 127.889 134.642  0.00  0.00    +0.000 OA
ATOM      4  C   UNL     1     112.136 129.541 135.788  0.00  0.00    +0.000 A 
ATOM      5  C   UNL     1     112.291 128.723 135.998  0.00  0.00    +0.000 A 
ATOM      6  C   UNL     1     111.434 129.737 135.333  0.00  0.00    +0.000 A 
ATOM      7  C   UNL     1     111.742 128.111 135.750  0.00  0.00    +0.000 A 
ATOM      8  C   UNL     1     110.896 129.111 135.093  0.00  0.00    +0.000 A 
ATOM      9  C   UNL     1     111.068 128.299 135.312  0.00  0.00    +0.000 A 
ATOM     10  C   UNL     1     110.548 127.701 135.080  0.00  0.00    +0.000 A 
ATOM     11  C   UNL     1     111.376 126.730 135.721  0.00  0.00    +0.000 A 
ATOM     12  C   UNL     1     110.702 126.917 135.284  0.00  0.00    +0.000 A 
ENDROOT
BRANCH  11  14
ATOM     13  O   UNL     1     111.993 123.592 136.537  0.00  0.00    +0.000 OA
ATOM     14  C   UNL     1     111.530 125.945 135.925  0.00  0.00    +0.000 A 
ATOM     15  C   UNL     1     112.272 125.733 136.217  0.00  0.00    +0.000 A 
ATOM     16  C   UNL     1     112.427 124.949 136.421  0.00  0.00    +0.000 A 
ATOM     17  C   UNL     1     110.942 125.372 135.837  0.00  0.00    +0.000 A 
ATOM     18  C   UNL     1     111.839 124.377 136.333  0.00  0.00    +0.000 A 
ATOM     19  C   UNL     1     111.097 124.589 136.041  0.00  0.00    +0.000 A 
BRANCH  16  20
ATOM     20  C   UNL     1     113.168 124.737 136.714  0.00  0.00    +0.000 C 
BRANCH  20  21
ATOM     21  C   UNL     1     113.851 124.964 136.310  0.00  0.00    +0.000 C 
ATOM     22  C   UNL     1     114.582 124.943 136.693  0.00  0.00    +0.000 C 
ATOM     23  C   UNL     1     115.265 125.170 136.289  0.00  0.00    +0.000 C 
ATOM     24  C   UNL     1     114.630 124.694 137.478  0.00  0.00    +0.000 C 
ENDBRANCH  20  21
ENDBRANCH  16  20
ENDBRANCH  11  14
BRANCH   4  25
ATOM     25  O   UNL     1     112.658 130.137 136.023  0.00  0.00    +0.000 OA
BRANCH  25  34
ATOM     26  O   UNL     1     112.114 130.303 137.334  0.00  0.00    +0.000 OA
ATOM     27  O   UNL     1     113.080 130.794 139.229  0.00  0.00    +0.000 OA
ATOM     28  O   UNL     1     114.378 130.790 138.210  0.00  0.00    +0.000 OA
ATOM     29  O   UNL     1     114.167 130.462 136.607  0.00  0.00    +0.000 OA
ATOM     30  C   UNL     1     112.219 130.467 138.135  0.00  0.00    +0.000 C 
ATOM     31  C   UNL     1     112.974 130.629 138.428  0.00  0.00    +0.000 C 
ATOM     32  C   UNL     1     113.623 130.627 137.918  0.00  0.00    +0.000 C 
ATOM     33  C   UNL     1     113.517 130.463 137.116  0.00  0.00    +0.000 C 
ATOM     34  C   UNL     1     112.764 130.301 136.825  0.00  0.00    +0.000 C 
BRANCH  30  35
ATOM     35  C   UNL     1     111.571 130.469 138.645  0.00  0.00    +0.000 C 
BRANCH  35  36
ATOM     36  O   UNL     1     110.840 130.745 138.382  0.00  0.00    +0.000 OA
BRANCH  36  42
ATOM     37  O   UNL     1     110.106 129.890 139.261  0.00  0.00    +0.000 OA
ATOM     38  O   UNL     1     109.576 131.807 138.361  0.00  0.00    +0.000 OA
ATOM     39  O   UNL     1     108.211 131.482 139.229  0.00  0.00    +0.000 OA
ATOM     40  O   UNL     1     108.109 130.096 140.118  0.00  0.00    +0.000 OA
ATOM     41  C   UNL     1     109.526 131.113 138.806  0.00  0.00    +0.000 C 
ATOM     42  C   UNL     1     110.157 130.582 138.816  0.00  0.00    +0.000 C 
ATOM     43  C   UNL     1     108.843 130.951 139.239  0.00  0.00    +0.000 C 
ATOM     44  C   UNL     1     108.793 130.258 139.684  0.00  0.00    +0.000 C 
ATOM     45  C   UNL     1     109.424 129.728 139.695  0.00  0.00    +0.000 C 
ATOM     46  C   UNL     1     109.373 129.035 140.140  0.00  0.00    +0.000 C 
ENDBRANCH  36  42
ENDBRANCH  35  36
ENDBRANCH  30  35
ENDBRANCH  25  34
ENDBRANCH   4  25
TORSDOF 8
ENDMDL
MODEL 7
REMARK VINA RESULT:     -10.9      1.679      4.199
REMARK  Name = 131751598
REMARK  8 active torsions:
REMARK  status: ('A' for Active; 'I' for Inactive)
REMARK    1  A    between atoms: O_3  and  C_20
REMARK    2  A    between atoms: O_3  and  C_25
REMARK    3  A    between atoms: O_6  and  C_23
REMARK    4  A    between atoms: O_6  and  C_27
REMARK    5  A    between atoms: C_15  and  C_25
REMARK    6  A    between atoms: C_34  and  C_36
REMARK    7  A    between atoms: C_38  and  C_40
REMARK    8  A    between atoms: C_40  and  C_43
REMARK                            x       y       z     vdW  Elec       q    Type
REMARK                         _______ _______ _______ _____ _____    ______ ____
ROOT
ATOM      1  O   UNL     1     112.228 126.163 138.519  0.00  0.00    +0.000 OA
ATOM      2  O   UNL     1     114.425 127.180 140.096  0.00  0.00    +0.000 OA
ATOM      3  O   UNL     1     114.637 126.169 139.090  0.00  0.00    +0.000 OA
ATOM      4  C   UNL     1     112.248 127.706 140.135  0.00  0.00    +0.000 A 
ATOM      5  C   UNL     1     111.960 127.181 139.519  0.00  0.00    +0.000 A 
ATOM      6  C   UNL     1     113.085 127.708 140.333  0.00  0.00    +0.000 A 
ATOM      7  C   UNL     1     112.511 126.665 139.110  0.00  0.00    +0.000 A 
ATOM      8  C   UNL     1     113.621 127.185 139.913  0.00  0.00    +0.000 A 
ATOM      9  C   UNL     1     113.314 126.667 139.300  0.00  0.00    +0.000 A 
ATOM     10  C   UNL     1     113.834 126.166 138.900  0.00  0.00    +0.000 A 
ATOM     11  C   UNL     1     112.749 125.663 138.120  0.00  0.00    +0.000 A 
ATOM     12  C   UNL     1     113.551 125.664 138.309  0.00  0.00    +0.000 A 
ENDROOT
BRANCH  11  14
ATOM     13  O   UNL     1     111.618 123.655 135.758  0.00  0.00    +0.000 OA
ATOM     14  C   UNL     1     112.466 125.160 137.529  0.00  0.00    +0.000 A 
ATOM     15  C   UNL     1     111.965 125.454 136.943  0.00  0.00    +0.000 A 
ATOM     16  C   UNL     1     111.682 124.952 136.352  0.00  0.00    +0.000 A 
ATOM     17  C   UNL     1     112.684 124.364 137.524  0.00  0.00    +0.000 A 
ATOM     18  C   UNL     1     111.900 124.157 136.348  0.00  0.00    +0.000 A 
ATOM     19  C   UNL     1     112.401 123.863 136.934  0.00  0.00    +0.000 A 
BRANCH  16  20
ATOM     20  C   UNL     1     111.181 125.246 135.766  0.00  0.00    +0.000 C 
BRANCH  20  21
ATOM     21  C   UNL     1     110.484 125.635 135.976  0.00  0.00    +0.000 C 
ATOM     22  C   UNL     1     110.039 126.020 135.399  0.00  0.00    +0.000 C 
ATOM     23  C   UNL     1     109.341 126.410 135.609  0.00  0.00    +0.000 C 
ATOM     24  C   UNL     1     110.289 126.018 134.613  0.00  0.00    +0.000 C 
ENDBRANCH  20  21
ENDBRANCH  16  20
ENDBRANCH  11  14
BRANCH   4  25
ATOM     25  O   UNL     1     111.725 128.206 140.534  0.00  0.00    +0.000 OA
BRANCH  25  34
ATOM     26  O   UNL     1     111.437 129.085 139.445  0.00  0.00    +0.000 OA
ATOM     27  O   UNL     1     111.157 131.250 139.394  0.00  0.00    +0.000 OA
ATOM     28  O   UNL     1     111.450 131.012 141.000  0.00  0.00    +0.000 OA
ATOM     29  O   UNL     1     111.734 129.490 141.570  0.00  0.00    +0.000 OA
ATOM     30  C   UNL     1     111.295 129.846 139.160  0.00  0.00    +0.000 C 
ATOM     31  C   UNL     1     111.299 130.489 139.679  0.00  0.00    +0.000 C 
ATOM     32  C   UNL     1     111.446 130.369 140.481  0.00  0.00    +0.000 C 
ATOM     33  C   UNL     1     111.588 129.608 140.767  0.00  0.00    +0.000 C 
ATOM     34  C   UNL     1     111.583 128.967 140.249  0.00  0.00    +0.000 C 
BRANCH  30  35
ATOM     35  C   UNL     1     111.148 129.966 138.357  0.00  0.00    +0.000 C 
BRANCH  35  36
ATOM     36  O   UNL     1     111.614 129.587 137.792  0.00  0.00    +0.000 OA
BRANCH  36  42
ATOM     37  O   UNL     1     110.652 129.894 136.781  0.00  0.00    +0.000 OA
ATOM     38  O   UNL     1     112.656 129.044 136.634  0.00  0.00    +0.000 OA
ATOM     39  O   UNL     1     112.215 129.080 135.044  0.00  0.00    +0.000 OA
ATOM     40  O   UNL     1     110.732 129.659 134.612  0.00  0.00    +0.000 OA
ATOM     41  C   UNL     1     111.914 129.334 136.418  0.00  0.00    +0.000 C 
ATOM     42  C   UNL     1     111.393 129.605 136.997  0.00  0.00    +0.000 C 
ATOM     43  C   UNL     1     111.694 129.351 135.623  0.00  0.00    +0.000 C 
ATOM     44  C   UNL     1     110.952 129.641 135.408  0.00  0.00    +0.000 C 
ATOM     45  C   UNL     1     110.431 129.912 135.987  0.00  0.00    +0.000 C 
ATOM     46  C   UNL     1     109.689 130.202 135.770  0.00  0.00    +0.000 C 
ENDBRANCH  36  42
ENDBRANCH  35  36
ENDBRANCH  30  35
ENDBRANCH  25  34
ENDBRANCH   4  25
TORSDOF 8
ENDMDL
MODEL 8
REMARK VINA RESULT:     -10.9      2.221      4.734
REMARK  Name = 131751598
REMARK  8 active torsions:
REMARK  status: ('A' for Active; 'I' for Inactive)
REMARK    1  A    between atoms: O_3  and  C_20
REMARK    2  A    between atoms: O_3  and  C_25
REMARK    3  A    between atoms: O_6  and  C_23
REMARK    4  A    between atoms: O_6  and  C_27
REMARK    5  A    between atoms: C_15  and  C_25
REMARK    6  A    between atoms: C_34  and  C_36
REMARK    7  A    between atoms: C_38  and  C_40
REMARK    8  A    between atoms: C_40  and  C_43
REMARK                            x       y       z     vdW  Elec       q    Type
REMARK                         _______ _______ _______ _____ _____    ______ ____
ROOT
ATOM      1  O   UNL     1     112.075 126.179 138.790  0.00  0.00    +0.000 OA
ATOM      2  O   UNL     1     110.612 126.867 141.185  0.00  0.00    +0.000 OA
ATOM      3  O   UNL     1     110.063 125.953 140.214  0.00  0.00    +0.000 OA
ATOM      4  C   UNL     1     112.627 127.541 140.473  0.00  0.00    +0.000 A 
ATOM      5  C   UNL     1     112.675 127.105 139.735  0.00  0.00    +0.000 A 
ATOM      6  C   UNL     1     111.928 127.463 140.968  0.00  0.00    +0.000 A 
ATOM      7  C   UNL     1     112.024 126.595 139.501  0.00  0.00    +0.000 A 
ATOM      8  C   UNL     1     111.287 126.949 140.717  0.00  0.00    +0.000 A 
ATOM      9  C   UNL     1     111.353 126.520 139.975  0.00  0.00    +0.000 A 
ATOM     10  C   UNL     1     110.734 126.028 139.739  0.00  0.00    +0.000 A 
ATOM     11  C   UNL     1     111.456 125.687 138.555  0.00  0.00    +0.000 A 
ATOM     12  C   UNL     1     110.786 125.611 139.029  0.00  0.00    +0.000 A 
ENDROOT
BRANCH  11  14
ATOM     13  O   UNL     1     111.662 124.020 135.714  0.00  0.00    +0.000 OA
ATOM     14  C   UNL     1     111.508 125.270 137.845  0.00  0.00    +0.000 A 
ATOM     15  C   UNL     1     111.108 125.542 137.177  0.00  0.00    +0.000 A 
ATOM     16  C   UNL     1     111.159 125.126 136.466  0.00  0.00    +0.000 A 
ATOM     17  C   UNL     1     111.959 124.580 137.803  0.00  0.00    +0.000 A 
ATOM     18  C   UNL     1     111.610 124.437 136.425  0.00  0.00    +0.000 A 
ATOM     19  C   UNL     1     112.010 124.164 137.093  0.00  0.00    +0.000 A 
BRANCH  16  20
ATOM     20  C   UNL     1     110.759 125.398 135.798  0.00  0.00    +0.000 C 
BRANCH  20  21
ATOM     21  C   UNL     1     110.907 126.157 135.509  0.00  0.00    +0.000 C 
ATOM     22  C   UNL     1     110.429 126.472 134.916  0.00  0.00    +0.000 C 
ATOM     23  C   UNL     1     110.577 127.231 134.627  0.00  0.00    +0.000 C 
ATOM     24  C   UNL     1     109.802 126.030 134.612  0.00  0.00    +0.000 C 
ENDBRANCH  20  21
ENDBRANCH  16  20
ENDBRANCH  11  14
BRANCH   4  25
ATOM     25  O   UNL     1     113.247 128.033 140.706  0.00  0.00    +0.000 OA
BRANCH  25  34
ATOM     26  O   UNL     1     112.709 129.125 139.959  0.00  0.00    +0.000 OA
ATOM     27  O   UNL     1     113.626 130.993 139.298  0.00  0.00    +0.000 OA
ATOM     28  O   UNL     1     114.891 130.288 140.089  0.00  0.00    +0.000 OA
ATOM     29  O   UNL     1     114.702 128.808 140.793  0.00  0.00    +0.000 OA
ATOM     30  C   UNL     1     112.804 129.865 139.607  0.00  0.00    +0.000 C 
ATOM     31  C   UNL     1     113.532 130.253 139.650  0.00  0.00    +0.000 C 
ATOM     32  C   UNL     1     114.164 129.900 140.046  0.00  0.00    +0.000 C 
ATOM     33  C   UNL     1     114.069 129.160 140.398  0.00  0.00    +0.000 C 
ATOM     34  C   UNL     1     113.342 128.773 140.354  0.00  0.00    +0.000 C 
BRANCH  30  35
ATOM     35  C   UNL     1     112.172 130.219 139.212  0.00  0.00    +0.000 C 
BRANCH  35  36
ATOM     36  O   UNL     1     111.488 130.421 139.625  0.00  0.00    +0.000 OA
BRANCH  36  42
ATOM     37  O   UNL     1     110.577 129.799 138.716  0.00  0.00    +0.000 OA
ATOM     38  O   UNL     1     110.382 131.611 139.917  0.00  0.00    +0.000 OA
ATOM     39  O   UNL     1     108.919 131.583 139.155  0.00  0.00    +0.000 OA
ATOM     40  O   UNL     1     108.562 130.366 138.100  0.00  0.00    +0.000 OA
ATOM     41  C   UNL     1     110.203 131.002 139.390  0.00  0.00    +0.000 C 
ATOM     42  C   UNL     1     110.756 130.407 139.244  0.00  0.00    +0.000 C 
ATOM     43  C   UNL     1     109.472 130.989 139.009  0.00  0.00    +0.000 C 
ATOM     44  C   UNL     1     109.294 130.380 138.481  0.00  0.00    +0.000 C 
ATOM     45  C   UNL     1     109.847 129.785 138.335  0.00  0.00    +0.000 C 
ATOM     46  C   UNL     1     109.667 129.176 137.808  0.00  0.00    +0.000 C 
ENDBRANCH  36  42
ENDBRANCH  35  36
ENDBRANCH  30  35
ENDBRANCH  25  34
ENDBRANCH   4  25
TORSDOF 8
ENDMDL
MODEL 9
REMARK VINA RESULT:     -10.8      1.725      4.256
REMARK  Name = 131751598
REMARK  8 active torsions:
REMARK  status: ('A' for Active; 'I' for Inactive)
REMARK    1  A    between atoms: O_3  and  C_20
REMARK    2  A    between atoms: O_3  and  C_25
REMARK    3  A    between atoms: O_6  and  C_23
REMARK    4  A    between atoms: O_6  and  C_27
REMARK    5  A    between atoms: C_15  and  C_25
REMARK    6  A    between atoms: C_34  and  C_36
REMARK    7  A    between atoms: C_38  and  C_40
REMARK    8  A    between atoms: C_40  and  C_43
REMARK                            x       y       z     vdW  Elec       q    Type
REMARK                         _______ _______ _______ _____ _____    ______ ____
ROOT
ATOM      1  O   UNL     1     111.700 128.100 136.976  0.00  0.00    +0.000 OA
ATOM      2  O   UNL     1     113.465 130.348 136.554  0.00  0.00    +0.000 OA
ATOM      3  O   UNL     1     113.236 129.375 135.514  0.00  0.00    +0.000 OA
ATOM      4  C   UNL     1     112.267 129.764 138.355  0.00  0.00    +0.000 A 
ATOM      5  C   UNL     1     111.894 129.049 138.058  0.00  0.00    +0.000 A 
ATOM      6  C   UNL     1     112.801 130.207 137.847  0.00  0.00    +0.000 A 
ATOM      7  C   UNL     1     112.060 128.787 137.256  0.00  0.00    +0.000 A 
ATOM      8  C   UNL     1     112.955 129.929 137.049  0.00  0.00    +0.000 A 
ATOM      9  C   UNL     1     112.573 129.212 136.769  0.00  0.00    +0.000 A 
ATOM     10  C   UNL     1     112.724 128.950 136.001  0.00  0.00    +0.000 A 
ATOM     11  C   UNL     1     111.852 127.838 136.209  0.00  0.00    +0.000 A 
ATOM     12  C   UNL     1     112.364 128.262 135.721  0.00  0.00    +0.000 A 
ENDROOT
BRANCH  11  14
ATOM     13  O   UNL     1     110.411 125.089 135.088  0.00  0.00    +0.000 OA
ATOM     14  C   UNL     1     111.491 127.151 135.928  0.00  0.00    +0.000 A 
ATOM     15  C   UNL     1     111.740 126.413 136.202  0.00  0.00    +0.000 A 
ATOM     16  C   UNL     1     111.380 125.726 135.922  0.00  0.00    +0.000 A 
ATOM     17  C   UNL     1     110.882 127.200 135.374  0.00  0.00    +0.000 A 
ATOM     18  C   UNL     1     110.771 125.776 135.368  0.00  0.00    +0.000 A 
ATOM     19  C   UNL     1     110.522 126.514 135.094  0.00  0.00    +0.000 A 
BRANCH  16  20
ATOM     20  C   UNL     1     111.629 124.988 136.196  0.00  0.00    +0.000 C 
BRANCH  20  21
ATOM     21  C   UNL     1     112.422 124.866 136.389  0.00  0.00    +0.000 C 
ATOM     22  C   UNL     1     112.656 124.156 136.738  0.00  0.00    +0.000 C 
ATOM     23  C   UNL     1     113.449 124.033 136.931  0.00  0.00    +0.000 C 
ATOM     24  C   UNL     1     112.098 123.569 136.894  0.00  0.00    +0.000 C 
ENDBRANCH  20  21
ENDBRANCH  16  20
ENDBRANCH  11  14
BRANCH   4  25
ATOM     25  O   UNL     1     112.113 130.023 139.123  0.00  0.00    +0.000 OA
BRANCH  25  34
ATOM     26  O   UNL     1     110.905 130.640 138.675  0.00  0.00    +0.000 OA
ATOM     27  O   UNL     1     109.447 131.868 139.741  0.00  0.00    +0.000 OA
ATOM     28  O   UNL     1     110.531 131.555 140.945  0.00  0.00    +0.000 OA
ATOM     29  O   UNL     1     111.864 130.633 140.636  0.00  0.00    +0.000 OA
ATOM     30  C   UNL     1     110.238 131.101 138.829  0.00  0.00    +0.000 C 
ATOM     31  C   UNL     1     110.114 131.406 139.586  0.00  0.00    +0.000 C 
ATOM     32  C   UNL     1     110.656 131.250 140.188  0.00  0.00    +0.000 C 
ATOM     33  C   UNL     1     111.322 130.789 140.034  0.00  0.00    +0.000 C 
ATOM     34  C   UNL     1     111.447 130.484 139.278  0.00  0.00    +0.000 C 
BRANCH  30  35
ATOM     35  C   UNL     1     109.696 131.258 138.228  0.00  0.00    +0.000 C 
BRANCH  35  36
ATOM     36  O   UNL     1     109.936 131.662 137.550  0.00  0.00    +0.000 OA
BRANCH  36  42
ATOM     37  O   UNL     1     109.211 130.807 136.663  0.00  0.00    +0.000 OA
ATOM     38  O   UNL     1     109.794 132.902 136.471  0.00  0.00    +0.000 OA
ATOM     39  O   UNL     1     108.997 132.668 135.045  0.00  0.00    +0.000 OA
ATOM     40  O   UNL     1     108.342 131.193 134.698  0.00  0.00    +0.000 OA
ATOM     41  C   UNL     1     109.466 132.164 136.298  0.00  0.00    +0.000 C 
ATOM     42  C   UNL     1     109.538 131.544 136.837  0.00  0.00    +0.000 C 
ATOM     43  C   UNL     1     109.068 132.048 135.585  0.00  0.00    +0.000 C 
ATOM     44  C   UNL     1     108.741 131.310 135.412  0.00  0.00    +0.000 C 
ATOM     45  C   UNL     1     108.812 130.690 135.951  0.00  0.00    +0.000 C 
ATOM     46  C   UNL     1     108.485 129.953 135.777  0.00  0.00    +0.000 C 
ENDBRANCH  36  42
ENDBRANCH  35  36
ENDBRANCH  30  35
ENDBRANCH  25  34
ENDBRANCH   4  25
TORSDOF 8
ENDMDL
MODEL 10
REMARK VINA RESULT:     -10.8      1.890      4.096
REMARK  Name = 131751598
REMARK  8 active torsions:
REMARK  status: ('A' for Active; 'I' for Inactive)
REMARK    1  A    between atoms: O_3  and  C_20
REMARK    2  A    between atoms: O_3  and  C_25
REMARK    3  A    between atoms: O_6  and  C_23
REMARK    4  A    between atoms: O_6  and  C_27
REMARK    5  A    between atoms: C_15  and  C_25
REMARK    6  A    between atoms: C_34  and  C_36
REMARK    7  A    between atoms: C_38  and  C_40
REMARK    8  A    between atoms: C_40  and  C_43
REMARK                            x       y       z     vdW  Elec       q    Type
REMARK                         _______ _______ _______ _____ _____    ______ ____
ROOT
ATOM      1  O   UNL     1     111.186 128.637 136.253  0.00  0.00    +0.000 OA
ATOM      2  O   UNL     1     113.417 130.473 136.285  0.00  0.00    +0.000 OA
ATOM      3  O   UNL     1     113.485 129.231 135.555  0.00  0.00    +0.000 OA
ATOM      4  C   UNL     1     111.409 130.616 137.267  0.00  0.00    +0.000 A 
ATOM      5  C   UNL     1     111.064 129.874 137.004  0.00  0.00    +0.000 A 
ATOM      6  C   UNL     1     112.207 130.822 137.025  0.00  0.00    +0.000 A 
ATOM      7  C   UNL     1     111.522 129.348 136.502  0.00  0.00    +0.000 A 
ATOM      8  C   UNL     1     112.650 130.283 136.523  0.00  0.00    +0.000 A 
ATOM      9  C   UNL     1     112.289 129.546 136.270  0.00  0.00    +0.000 A 
ATOM     10  C   UNL     1     112.719 129.032 135.788  0.00  0.00    +0.000 A 
ATOM     11  C   UNL     1     111.617 128.124 135.771  0.00  0.00    +0.000 A 
ATOM     12  C   UNL     1     112.383 128.322 135.538  0.00  0.00    +0.000 A 
ENDROOT
BRANCH  11  14
ATOM     13  O   UNL     1     110.273 125.280 134.774  0.00  0.00    +0.000 OA
ATOM     14  C   UNL     1     111.281 127.413 135.522  0.00  0.00    +0.000 A 
ATOM     15  C   UNL     1     111.482 126.707 135.898  0.00  0.00    +0.000 A 
ATOM     16  C   UNL     1     111.146 125.996 135.650  0.00  0.00    +0.000 A 
ATOM     17  C   UNL     1     110.743 127.407 134.895  0.00  0.00    +0.000 A 
ATOM     18  C   UNL     1     110.609 125.991 135.023  0.00  0.00    +0.000 A 
ATOM     19  C   UNL     1     110.408 126.697 134.646  0.00  0.00    +0.000 A 
BRANCH  16  20
ATOM     20  C   UNL     1     111.347 125.290 136.026  0.00  0.00    +0.000 C 
BRANCH  20  21
ATOM     21  C   UNL     1     112.140 125.107 136.165  0.00  0.00    +0.000 C 
ATOM     22  C   UNL     1     112.337 124.430 136.591  0.00  0.00    +0.000 C 
ATOM     23  C   UNL     1     113.131 124.247 136.730  0.00  0.00    +0.000 C 
ATOM     24  C   UNL     1     111.744 123.935 136.879  0.00  0.00    +0.000 C 
ENDBRANCH  20  21
ENDBRANCH  16  20
ENDBRANCH  11  14
BRANCH   4  25
ATOM     25  O   UNL     1     110.976 131.127 137.749  0.00  0.00    +0.000 OA
BRANCH  25  34
ATOM     26  O   UNL     1     111.336 130.363 138.902  0.00  0.00    +0.000 OA
ATOM     27  O   UNL     1     110.614 130.457 140.960  0.00  0.00    +0.000 OA
ATOM     28  O   UNL     1     109.714 131.649 140.260  0.00  0.00    +0.000 OA
ATOM     29  O   UNL     1     109.895 131.985 138.654  0.00  0.00    +0.000 OA
ATOM     30  C   UNL     1     111.245 130.195 139.705  0.00  0.00    +0.000 C 
ATOM     31  C   UNL     1     110.704 130.624 140.158  0.00  0.00    +0.000 C 
ATOM     32  C   UNL     1     110.255 131.220 139.807  0.00  0.00    +0.000 C 
ATOM     33  C   UNL     1     110.345 131.388 139.004  0.00  0.00    +0.000 C 
ATOM     34  C   UNL     1     110.886 130.959 138.552  0.00  0.00    +0.000 C 
BRANCH  30  35
ATOM     35  C   UNL     1     111.695 129.599 140.055  0.00  0.00    +0.000 C 
BRANCH  35  36
ATOM     36  O   UNL     1     112.517 129.607 139.986  0.00  0.00    +0.000 OA
BRANCH  36  42
ATOM     37  O   UNL     1     112.651 128.211 139.713  0.00  0.00    +0.000 OA
ATOM     38  O   UNL     1     113.952 129.585 140.799  0.00  0.00    +0.000 OA
ATOM     39  O   UNL     1     114.804 128.179 140.932  0.00  0.00    +0.000 OA
ATOM     40  O   UNL     1     114.220 126.793 140.253  0.00  0.00    +0.000 OA
ATOM     41  C   UNL     1     113.660 128.892 140.459  0.00  0.00    +0.000 C 
ATOM     42  C   UNL     1     112.942 128.903 140.053  0.00  0.00    +0.000 C 
ATOM     43  C   UNL     1     114.086 128.189 140.526  0.00  0.00    +0.000 C 
ATOM     44  C   UNL     1     113.794 127.497 140.186  0.00  0.00    +0.000 C 
ATOM     45  C   UNL     1     113.076 127.508 139.779  0.00  0.00    +0.000 C 
ATOM     46  C   UNL     1     112.785 126.814 139.440  0.00  0.00    +0.000 C 
ENDBRANCH  36  42
ENDBRANCH  35  36
ENDBRANCH  30  35
ENDBRANCH  25  34
ENDBRANCH   4  25
TORSDOF 8
ENDMDL
