MODEL 1
REMARK VINA RESULT:      -9.1      0.000      0.000
REMARK  Name = 6441269
REMARK  6 active torsions:
REMARK  status: ('A' for Active; 'I' for Inactive)
REMARK    1  A    between atoms: O_4  and  C_16
REMARK    2  A    between atoms: O_4  and  C_18
REMARK    3  A    between atoms: C_14  and  C_17
REMARK    4  A    between atoms: C_23  and  C_24
REMARK    5  A    between atoms: C_24  and  C_25
REMARK    6  A    between atoms: C_26  and  C_27
REMARK                            x       y       z     vdW  Elec       q    Type
REMARK                         _______ _______ _______ _____ _____    ______ ____
ROOT
ATOM      1  O   UNL     1     106.185 124.243 144.658  0.00  0.00    +0.000 OA
ATOM      2  O   UNL     1     106.500 125.424 143.550  0.00  0.00    +0.000 OA
ATOM      3  C   UNL     1     105.654 125.224 145.552  0.00  0.00    +0.000 A 
ATOM      4  C   UNL     1     105.998 125.029 144.828  0.00  0.00    +0.000 A 
ATOM      5  C   UNL     1     105.467 126.009 145.722  0.00  0.00    +0.000 A 
ATOM      6  C   UNL     1     106.155 125.619 144.274  0.00  0.00    +0.000 A 
ATOM      7  C   UNL     1     105.625 126.600 145.168  0.00  0.00    +0.000 A 
ATOM      8  C   UNL     1     105.969 126.405 144.443  0.00  0.00    +0.000 A 
ENDROOT
BRANCH   8  10
ATOM      9  O   UNL     1     106.901 127.252 143.770  0.00  0.00    +0.000 OA
ATOM     10  C   UNL     1     106.127 126.995 143.889  0.00  0.00    +0.000 C 
BRANCH  10  11
ATOM     11  C   UNL     1     105.509 127.328 143.455  0.00  0.00    +0.000 C 
ATOM     12  C   UNL     1     105.628 128.033 143.044  0.00  0.00    +0.000 C 
BRANCH  12  15
ATOM     13  O   UNL     1     104.019 128.099 140.683  0.00  0.00    +0.000 OA
ATOM     14  O   UNL     1     103.161 129.365 141.302  0.00  0.00    +0.000 OA
ATOM     15  C   UNL     1     105.011 128.367 142.609  0.00  0.00    +0.000 A 
ATOM     16  C   UNL     1     104.823 128.066 141.863  0.00  0.00    +0.000 A 
ATOM     17  C   UNL     1     104.582 129.000 142.919  0.00  0.00    +0.000 A 
ATOM     18  C   UNL     1     104.207 128.400 141.428  0.00  0.00    +0.000 A 
ATOM     19  C   UNL     1     103.966 129.332 142.483  0.00  0.00    +0.000 A 
ATOM     20  C   UNL     1     103.778 129.033 141.738  0.00  0.00    +0.000 A 
ENDBRANCH  12  15
ENDBRANCH  10  11
ENDBRANCH   8  10
BRANCH   3  21
ATOM     21  O   UNL     1     105.497 124.633 146.106  0.00  0.00    +0.000 OA
BRANCH  21  30
ATOM     22  O   UNL     1     106.554 124.911 147.026  0.00  0.00    +0.000 OA
ATOM     23  O   UNL     1     105.001 124.553 148.919  0.00  0.00    +0.000 OA
ATOM     24  O   UNL     1     106.575 124.950 149.208  0.00  0.00    +0.000 OA
ATOM     25  O   UNL     1     104.461 124.395 147.368  0.00  0.00    +0.000 OA
ATOM     26  C   UNL     1     106.306 124.871 148.433  0.00  0.00    +0.000 C 
ATOM     27  C   UNL     1     105.519 124.673 148.288  0.00  0.00    +0.000 C 
ATOM     28  C   UNL     1     106.823 124.990 147.802  0.00  0.00    +0.000 C 
ATOM     29  C   UNL     1     105.248 124.593 147.513  0.00  0.00    +0.000 C 
ATOM     30  C   UNL     1     105.766 124.712 146.882  0.00  0.00    +0.000 C 
BRANCH  28  32
ATOM     31  O   UNL     1     108.188 125.019 147.380  0.00  0.00    +0.000 OA
ATOM     32  C   UNL     1     107.611 125.189 147.946  0.00  0.00    +0.000 C 
ENDBRANCH  28  32
ENDBRANCH  21  30
ENDBRANCH   3  21
TORSDOF 6
ENDMDL
MODEL 2
REMARK VINA RESULT:      -8.8      8.280     10.051
REMARK  Name = 6441269
REMARK  6 active torsions:
REMARK  status: ('A' for Active; 'I' for Inactive)
REMARK    1  A    between atoms: O_4  and  C_16
REMARK    2  A    between atoms: O_4  and  C_18
REMARK    3  A    between atoms: C_14  and  C_17
REMARK    4  A    between atoms: C_23  and  C_24
REMARK    5  A    between atoms: C_24  and  C_25
REMARK    6  A    between atoms: C_26  and  C_27
REMARK                            x       y       z     vdW  Elec       q    Type
REMARK                         _______ _______ _______ _____ _____    ______ ____
ROOT
ATOM      1  O   UNL     1     108.137 127.060 135.965  0.00  0.00    +0.000 OA
ATOM      2  O   UNL     1     107.994 128.691 135.764  0.00  0.00    +0.000 OA
ATOM      3  C   UNL     1     109.557 127.170 135.845  0.00  0.00    +0.000 A 
ATOM      4  C   UNL     1     108.812 127.522 135.855  0.00  0.00    +0.000 A 
ATOM      5  C   UNL     1     110.232 127.632 135.734  0.00  0.00    +0.000 A 
ATOM      6  C   UNL     1     108.740 128.338 135.754  0.00  0.00    +0.000 A 
ATOM      7  C   UNL     1     110.160 128.448 135.634  0.00  0.00    +0.000 A 
ATOM      8  C   UNL     1     109.413 128.801 135.644  0.00  0.00    +0.000 A 
ENDROOT
BRANCH   8  10
ATOM      9  O   UNL     1     109.108 129.924 134.815  0.00  0.00    +0.000 OA
ATOM     10  C   UNL     1     109.342 129.617 135.544  0.00  0.00    +0.000 C 
BRANCH  10  11
ATOM     11  C   UNL     1     109.504 130.126 136.173  0.00  0.00    +0.000 C 
ATOM     12  C   UNL     1     109.522 130.941 136.050  0.00  0.00    +0.000 C 
BRANCH  12  15
ATOM     13  O   UNL     1     108.622 132.475 138.287  0.00  0.00    +0.000 OA
ATOM     14  O   UNL     1     110.169 132.979 138.564  0.00  0.00    +0.000 OA
ATOM     15  C   UNL     1     109.684 131.450 136.678  0.00  0.00    +0.000 A 
ATOM     16  C   UNL     1     109.072 131.708 137.168  0.00  0.00    +0.000 A 
ATOM     17  C   UNL     1     110.457 131.702 136.816  0.00  0.00    +0.000 A 
ATOM     18  C   UNL     1     109.234 132.217 137.796  0.00  0.00    +0.000 A 
ATOM     19  C   UNL     1     110.618 132.212 137.445  0.00  0.00    +0.000 A 
ATOM     20  C   UNL     1     110.007 132.469 137.935  0.00  0.00    +0.000 A 
ENDBRANCH  12  15
ENDBRANCH  10  11
ENDBRANCH   8  10
BRANCH   3  21
ATOM     21  O   UNL     1     109.629 126.354 135.945  0.00  0.00    +0.000 OA
BRANCH  21  30
ATOM     22  O   UNL     1     110.006 126.318 137.323  0.00  0.00    +0.000 OA
ATOM     23  O   UNL     1     111.729 124.618 136.808  0.00  0.00    +0.000 OA
ATOM     24  O   UNL     1     111.531 125.149 138.356  0.00  0.00    +0.000 OA
ATOM     25  O   UNL     1     110.778 125.221 135.601  0.00  0.00    +0.000 OA
ATOM     26  C   UNL     1     111.056 125.450 137.754  0.00  0.00    +0.000 C 
ATOM     27  C   UNL     1     111.154 125.185 136.979  0.00  0.00    +0.000 C 
ATOM     28  C   UNL     1     110.481 126.017 137.926  0.00  0.00    +0.000 C 
ATOM     29  C   UNL     1     110.679 125.486 136.376  0.00  0.00    +0.000 C 
ATOM     30  C   UNL     1     110.105 126.053 136.548  0.00  0.00    +0.000 C 
BRANCH  28  32
ATOM     31  O   UNL     1     109.624 126.342 139.021  0.00  0.00    +0.000 OA
ATOM     32  C   UNL     1     110.382 126.282 138.700  0.00  0.00    +0.000 C 
ENDBRANCH  28  32
ENDBRANCH  21  30
ENDBRANCH   3  21
TORSDOF 6
ENDMDL
MODEL 3
REMARK VINA RESULT:      -8.8      9.128     11.438
REMARK  Name = 6441269
REMARK  6 active torsions:
REMARK  status: ('A' for Active; 'I' for Inactive)
REMARK    1  A    between atoms: O_4  and  C_16
REMARK    2  A    between atoms: O_4  and  C_18
REMARK    3  A    between atoms: C_14  and  C_17
REMARK    4  A    between atoms: C_23  and  C_24
REMARK    5  A    between atoms: C_24  and  C_25
REMARK    6  A    between atoms: C_26  and  C_27
REMARK                            x       y       z     vdW  Elec       q    Type
REMARK                         _______ _______ _______ _____ _____    ______ ____
ROOT
ATOM      1  O   UNL     1     109.129 126.938 137.827  0.00  0.00    +0.000 OA
ATOM      2  O   UNL     1     110.119 125.642 137.577  0.00  0.00    +0.000 OA
ATOM      3  C   UNL     1     109.409 127.407 136.506  0.00  0.00    +0.000 A 
ATOM      4  C   UNL     1     109.516 126.849 137.103  0.00  0.00    +0.000 A 
ATOM      5  C   UNL     1     109.797 127.318 135.783  0.00  0.00    +0.000 A 
ATOM      6  C   UNL     1     110.011 126.201 136.978  0.00  0.00    +0.000 A 
ATOM      7  C   UNL     1     110.292 126.670 135.658  0.00  0.00    +0.000 A 
ATOM      8  C   UNL     1     110.399 126.111 136.256  0.00  0.00    +0.000 A 
ENDROOT
BRANCH   8  10
ATOM      9  O   UNL     1     110.626 124.817 135.695  0.00  0.00    +0.000 OA
ATOM     10  C   UNL     1     110.894 125.463 136.131  0.00  0.00    +0.000 C 
BRANCH  10  11
ATOM     11  C   UNL     1     111.658 125.462 136.443  0.00  0.00    +0.000 C 
ATOM     12  C   UNL     1     112.214 124.917 136.170  0.00  0.00    +0.000 C 
BRANCH  12  15
ATOM     13  O   UNL     1     114.841 126.037 136.287  0.00  0.00    +0.000 OA
ATOM     14  O   UNL     1     115.271 124.910 137.413  0.00  0.00    +0.000 OA
ATOM     15  C   UNL     1     112.978 124.915 136.481  0.00  0.00    +0.000 A 
ATOM     16  C   UNL     1     113.528 125.477 136.228  0.00  0.00    +0.000 A 
ATOM     17  C   UNL     1     113.193 124.351 137.044  0.00  0.00    +0.000 A 
ATOM     18  C   UNL     1     114.291 125.475 136.539  0.00  0.00    +0.000 A 
ATOM     19  C   UNL     1     113.958 124.350 137.355  0.00  0.00    +0.000 A 
ATOM     20  C   UNL     1     114.507 124.911 137.103  0.00  0.00    +0.000 A 
ENDBRANCH  12  15
ENDBRANCH  10  11
ENDBRANCH   8  10
BRANCH   3  21
ATOM     21  O   UNL     1     108.914 128.055 136.631  0.00  0.00    +0.000 OA
BRANCH  21  30
ATOM     22  O   UNL     1     109.899 129.089 136.684  0.00  0.00    +0.000 OA
ATOM     23  O   UNL     1     108.457 130.535 135.286  0.00  0.00    +0.000 OA
ATOM     24  O   UNL     1     109.922 131.086 135.805  0.00  0.00    +0.000 OA
ATOM     25  O   UNL     1     107.953 129.019 135.699  0.00  0.00    +0.000 OA
ATOM     26  C   UNL     1     109.670 130.329 136.011  0.00  0.00    +0.000 C 
ATOM     27  C   UNL     1     108.938 130.053 135.752  0.00  0.00    +0.000 C 
ATOM     28  C   UNL     1     110.151 129.847 136.477  0.00  0.00    +0.000 C 
ATOM     29  C   UNL     1     108.685 129.295 135.958  0.00  0.00    +0.000 C 
ATOM     30  C   UNL     1     109.166 128.813 136.424  0.00  0.00    +0.000 C 
BRANCH  28  32
ATOM     31  O   UNL     1     111.101 130.030 137.528  0.00  0.00    +0.000 OA
ATOM     32  C   UNL     1     110.884 130.122 136.737  0.00  0.00    +0.000 C 
ENDBRANCH  28  32
ENDBRANCH  21  30
ENDBRANCH   3  21
TORSDOF 6
ENDMDL
MODEL 4
REMARK VINA RESULT:      -8.7      3.759      5.799
REMARK  Name = 6441269
REMARK  6 active torsions:
REMARK  status: ('A' for Active; 'I' for Inactive)
REMARK    1  A    between atoms: O_4  and  C_16
REMARK    2  A    between atoms: O_4  and  C_18
REMARK    3  A    between atoms: C_14  and  C_17
REMARK    4  A    between atoms: C_23  and  C_24
REMARK    5  A    between atoms: C_24  and  C_25
REMARK    6  A    between atoms: C_26  and  C_27
REMARK                            x       y       z     vdW  Elec       q    Type
REMARK                         _______ _______ _______ _____ _____    ______ ____
ROOT
ATOM      1  O   UNL     1     105.612 124.679 143.131  0.00  0.00    +0.000 OA
ATOM      2  O   UNL     1     105.068 123.540 142.068  0.00  0.00    +0.000 OA
ATOM      3  C   UNL     1     106.359 125.300 142.083  0.00  0.00    +0.000 A 
ATOM      4  C   UNL     1     105.850 124.705 142.341  0.00  0.00    +0.000 A 
ATOM      5  C   UNL     1     106.597 125.326 141.293  0.00  0.00    +0.000 A 
ATOM      6  C   UNL     1     105.578 124.136 141.809  0.00  0.00    +0.000 A 
ATOM      7  C   UNL     1     106.325 124.757 140.762  0.00  0.00    +0.000 A 
ATOM      8  C   UNL     1     105.815 124.161 141.020  0.00  0.00    +0.000 A 
ENDROOT
BRANCH   8  10
ATOM      9  O   UNL     1     105.917 122.859 140.443  0.00  0.00    +0.000 OA
ATOM     10  C   UNL     1     105.543 123.592 140.488  0.00  0.00    +0.000 C 
BRANCH  10  11
ATOM     11  C   UNL     1     104.897 123.757 140.002  0.00  0.00    +0.000 C 
ATOM     12  C   UNL     1     104.706 123.246 139.384  0.00  0.00    +0.000 C 
BRANCH  12  15
ATOM     13  O   UNL     1     103.595 123.560 136.769  0.00  0.00    +0.000 OA
ATOM     14  O   UNL     1     102.124 123.902 137.435  0.00  0.00    +0.000 OA
ATOM     15  C   UNL     1     104.060 123.410 138.897  0.00  0.00    +0.000 A 
ATOM     16  C   UNL     1     104.150 123.403 138.077  0.00  0.00    +0.000 A 
ATOM     17  C   UNL     1     103.325 123.582 139.230  0.00  0.00    +0.000 A 
ATOM     18  C   UNL     1     103.505 123.567 137.590  0.00  0.00    +0.000 A 
ATOM     19  C   UNL     1     102.680 123.746 138.742  0.00  0.00    +0.000 A 
ATOM     20  C   UNL     1     102.769 123.738 137.923  0.00  0.00    +0.000 A 
ENDBRANCH  12  15
ENDBRANCH  10  11
ENDBRANCH   8  10
BRANCH   3  21
ATOM     21  O   UNL     1     106.631 125.869 142.615  0.00  0.00    +0.000 OA
BRANCH  21  30
ATOM     22  O   UNL     1     105.844 126.988 142.200  0.00  0.00    +0.000 OA
ATOM     23  O   UNL     1     107.845 128.440 142.321  0.00  0.00    +0.000 OA
ATOM     24  O   UNL     1     106.392 129.074 141.867  0.00  0.00    +0.000 OA
ATOM     25  O   UNL     1     107.965 126.837 142.695  0.00  0.00    +0.000 OA
ATOM     26  C   UNL     1     106.452 128.273 142.054  0.00  0.00    +0.000 C 
ATOM     27  C   UNL     1     107.178 127.956 142.281  0.00  0.00    +0.000 C 
ATOM     28  C   UNL     1     105.785 127.789 142.013  0.00  0.00    +0.000 C 
ATOM     29  C   UNL     1     107.239 127.154 142.468  0.00  0.00    +0.000 C 
ATOM     30  C   UNL     1     106.572 126.671 142.428  0.00  0.00    +0.000 C 
BRANCH  28  32
ATOM     31  O   UNL     1     104.382 127.948 142.233  0.00  0.00    +0.000 OA
ATOM     32  C   UNL     1     105.058 128.106 141.786  0.00  0.00    +0.000 C 
ENDBRANCH  28  32
ENDBRANCH  21  30
ENDBRANCH   3  21
TORSDOF 6
ENDMDL
MODEL 5
REMARK VINA RESULT:      -8.7      8.117     10.208
REMARK  Name = 6441269
REMARK  6 active torsions:
REMARK  status: ('A' for Active; 'I' for Inactive)
REMARK    1  A    between atoms: O_4  and  C_16
REMARK    2  A    between atoms: O_4  and  C_18
REMARK    3  A    between atoms: C_14  and  C_17
REMARK    4  A    between atoms: C_23  and  C_24
REMARK    5  A    between atoms: C_24  and  C_25
REMARK    6  A    between atoms: C_26  and  C_27
REMARK                            x       y       z     vdW  Elec       q    Type
REMARK                         _______ _______ _______ _____ _____    ______ ____
ROOT
ATOM      1  O   UNL     1     110.471 125.782 139.875  0.00  0.00    +0.000 OA
ATOM      2  O   UNL     1     111.612 126.347 140.925  0.00  0.00    +0.000 OA
ATOM      3  C   UNL     1     111.240 126.273 138.775  0.00  0.00    +0.000 A 
ATOM      4  C   UNL     1     111.141 126.169 139.587  0.00  0.00    +0.000 A 
ATOM      5  C   UNL     1     111.909 126.660 138.487  0.00  0.00    +0.000 A 
ATOM      6  C   UNL     1     111.711 126.451 140.112  0.00  0.00    +0.000 A 
ATOM      7  C   UNL     1     112.480 126.943 139.012  0.00  0.00    +0.000 A 
ATOM      8  C   UNL     1     112.381 126.838 139.825  0.00  0.00    +0.000 A 
ENDROOT
BRANCH   8  10
ATOM      9  O   UNL     1     113.318 126.603 140.877  0.00  0.00    +0.000 OA
ATOM     10  C   UNL     1     112.951 127.120 140.350  0.00  0.00    +0.000 C 
BRANCH  10  11
ATOM     11  C   UNL     1     113.153 127.920 140.348  0.00  0.00    +0.000 C 
ATOM     12  C   UNL     1     113.691 128.211 140.902  0.00  0.00    +0.000 C 
BRANCH  12  15
ATOM     13  O   UNL     1     113.120 130.910 141.650  0.00  0.00    +0.000 OA
ATOM     14  O   UNL     1     114.501 131.410 140.897  0.00  0.00    +0.000 OA
ATOM     15  C   UNL     1     113.894 129.011 140.900  0.00  0.00    +0.000 A 
ATOM     16  C   UNL     1     113.406 129.560 141.276  0.00  0.00    +0.000 A 
ATOM     17  C   UNL     1     114.584 129.261 140.524  0.00  0.00    +0.000 A 
ATOM     18  C   UNL     1     113.609 130.360 141.274  0.00  0.00    +0.000 A 
ATOM     19  C   UNL     1     114.786 130.061 140.523  0.00  0.00    +0.000 A 
ATOM     20  C   UNL     1     114.299 130.610 140.898  0.00  0.00    +0.000 A 
ENDBRANCH  12  15
ENDBRANCH  10  11
ENDBRANCH   8  10
BRANCH   3  21
ATOM     21  O   UNL     1     110.670 125.991 138.250  0.00  0.00    +0.000 OA
BRANCH  21  30
ATOM     22  O   UNL     1     111.359 124.865 137.703  0.00  0.00    +0.000 OA
ATOM     23  O   UNL     1     110.652 125.539 135.428  0.00  0.00    +0.000 OA
ATOM     24  O   UNL     1     111.576 124.189 135.640  0.00  0.00    +0.000 OA
ATOM     25  O   UNL     1     110.199 126.440 136.734  0.00  0.00    +0.000 OA
ATOM     26  C   UNL     1     111.350 124.640 136.292  0.00  0.00    +0.000 C 
ATOM     27  C   UNL     1     110.888 125.314 136.187  0.00  0.00    +0.000 C 
ATOM     28  C   UNL     1     111.585 124.415 137.050  0.00  0.00    +0.000 C 
ATOM     29  C   UNL     1     110.661 125.765 136.839  0.00  0.00    +0.000 C 
ATOM     30  C   UNL     1     110.896 125.541 137.597  0.00  0.00    +0.000 C 
BRANCH  28  32
ATOM     31  O   UNL     1     111.804 123.153 137.683  0.00  0.00    +0.000 OA
ATOM     32  C   UNL     1     112.047 123.740 137.156  0.00  0.00    +0.000 C 
ENDBRANCH  28  32
ENDBRANCH  21  30
ENDBRANCH   3  21
TORSDOF 6
ENDMDL
MODEL 6
REMARK VINA RESULT:      -8.6      9.439     12.122
REMARK  Name = 6441269
REMARK  6 active torsions:
REMARK  status: ('A' for Active; 'I' for Inactive)
REMARK    1  A    between atoms: O_4  and  C_16
REMARK    2  A    between atoms: O_4  and  C_18
REMARK    3  A    between atoms: C_14  and  C_17
REMARK    4  A    between atoms: C_23  and  C_24
REMARK    5  A    between atoms: C_24  and  C_25
REMARK    6  A    between atoms: C_26  and  C_27
REMARK                            x       y       z     vdW  Elec       q    Type
REMARK                         _______ _______ _______ _____ _____    ______ ____
ROOT
ATOM      1  O   UNL     1     112.213 130.206 137.398  0.00  0.00    +0.000 OA
ATOM      2  O   UNL     1     113.458 129.124 137.368  0.00  0.00    +0.000 OA
ATOM      3  C   UNL     1     111.727 129.681 136.161  0.00  0.00    +0.000 A 
ATOM      4  C   UNL     1     112.281 129.673 136.771  0.00  0.00    +0.000 A 
ATOM      5  C   UNL     1     111.795 129.148 135.535  0.00  0.00    +0.000 A 
ATOM      6  C   UNL     1     112.904 129.132 136.757  0.00  0.00    +0.000 A 
ATOM      7  C   UNL     1     112.417 128.607 135.520  0.00  0.00    +0.000 A 
ATOM      8  C   UNL     1     112.972 128.599 136.131  0.00  0.00    +0.000 A 
ENDROOT
BRANCH   8  10
ATOM      9  O   UNL     1     114.336 128.290 135.839  0.00  0.00    +0.000 OA
ATOM     10  C   UNL     1     113.595 128.058 136.116  0.00  0.00    +0.000 C 
BRANCH  10  11
ATOM     11  C   UNL     1     113.475 127.284 136.378  0.00  0.00    +0.000 C 
ATOM     12  C   UNL     1     114.038 126.703 136.219  0.00  0.00    +0.000 C 
BRANCH  12  15
ATOM     13  O   UNL     1     114.944 124.419 137.677  0.00  0.00    +0.000 OA
ATOM     14  O   UNL     1     113.566 123.610 137.266  0.00  0.00    +0.000 OA
ATOM     15  C   UNL     1     113.919 125.930 136.480  0.00  0.00    +0.000 A 
ATOM     16  C   UNL     1     114.491 125.561 136.948  0.00  0.00    +0.000 A 
ATOM     17  C   UNL     1     113.230 125.526 136.275  0.00  0.00    +0.000 A 
ATOM     18  C   UNL     1     114.372 124.788 137.210  0.00  0.00    +0.000 A 
ATOM     19  C   UNL     1     113.113 124.752 136.537  0.00  0.00    +0.000 A 
ATOM     20  C   UNL     1     113.683 124.383 137.004  0.00  0.00    +0.000 A 
ENDBRANCH  12  15
ENDBRANCH  10  11
ENDBRANCH   8  10
BRANCH   3  21
ATOM     21  O   UNL     1     111.105 130.222 136.176  0.00  0.00    +0.000 OA
BRANCH  21  30
ATOM     22  O   UNL     1     110.076 129.282 136.493  0.00  0.00    +0.000 OA
ATOM     23  O   UNL     1     108.496 130.524 135.049  0.00  0.00    +0.000 OA
ATOM     24  O   UNL     1     107.995 129.171 135.847  0.00  0.00    +0.000 OA
ATOM     25  O   UNL     1     110.051 131.051 135.214  0.00  0.00    +0.000 OA
ATOM     26  C   UNL     1     108.772 129.434 135.929  0.00  0.00    +0.000 C 
ATOM     27  C   UNL     1     109.023 130.110 135.530  0.00  0.00    +0.000 C 
ATOM     28  C   UNL     1     109.299 129.019 136.410  0.00  0.00    +0.000 C 
ATOM     29  C   UNL     1     109.800 130.374 135.612  0.00  0.00    +0.000 C 
ATOM     30  C   UNL     1     110.327 129.960 136.093  0.00  0.00    +0.000 C 
BRANCH  28  32
ATOM     31  O   UNL     1     109.197 128.262 137.618  0.00  0.00    +0.000 OA
ATOM     32  C   UNL     1     109.049 128.342 136.809  0.00  0.00    +0.000 C 
ENDBRANCH  28  32
ENDBRANCH  21  30
ENDBRANCH   3  21
TORSDOF 6
ENDMDL
MODEL 7
REMARK VINA RESULT:      -8.5      3.384      5.463
REMARK  Name = 6441269
REMARK  6 active torsions:
REMARK  status: ('A' for Active; 'I' for Inactive)
REMARK    1  A    between atoms: O_4  and  C_16
REMARK    2  A    between atoms: O_4  and  C_18
REMARK    3  A    between atoms: C_14  and  C_17
REMARK    4  A    between atoms: C_23  and  C_24
REMARK    5  A    between atoms: C_24  and  C_25
REMARK    6  A    between atoms: C_26  and  C_27
REMARK                            x       y       z     vdW  Elec       q    Type
REMARK                         _______ _______ _______ _____ _____    ______ ____
ROOT
ATOM      1  O   UNL     1     104.105 127.752 140.590  0.00  0.00    +0.000 OA
ATOM      2  O   UNL     1     103.210 129.121 140.372  0.00  0.00    +0.000 OA
ATOM      3  C   UNL     1     104.463 128.195 141.901  0.00  0.00    +0.000 A 
ATOM      4  C   UNL     1     104.061 128.316 141.192  0.00  0.00    +0.000 A 
ATOM      5  C   UNL     1     104.419 128.759 142.502  0.00  0.00    +0.000 A 
ATOM      6  C   UNL     1     103.613 129.000 141.082  0.00  0.00    +0.000 A 
ATOM      7  C   UNL     1     103.972 129.443 142.393  0.00  0.00    +0.000 A 
ATOM      8  C   UNL     1     103.568 129.564 141.682  0.00  0.00    +0.000 A 
ENDROOT
BRANCH   8  10
ATOM      9  O   UNL     1     102.297 130.205 141.563  0.00  0.00    +0.000 OA
ATOM     10  C   UNL     1     103.120 130.248 141.573  0.00  0.00    +0.000 C 
BRANCH  10  11
ATOM     11  C   UNL     1     103.497 130.976 141.474  0.00  0.00    +0.000 C 
ATOM     12  C   UNL     1     103.052 131.653 141.319  0.00  0.00    +0.000 C 
BRANCH  12  15
ATOM     13  O   UNL     1     104.525 133.474 139.681  0.00  0.00    +0.000 OA
ATOM     14  O   UNL     1     104.555 134.563 140.919  0.00  0.00    +0.000 OA
ATOM     15  C   UNL     1     103.427 132.380 141.220  0.00  0.00    +0.000 A 
ATOM     16  C   UNL     1     103.788 132.563 140.500  0.00  0.00    +0.000 A 
ATOM     17  C   UNL     1     103.443 132.925 141.839  0.00  0.00    +0.000 A 
ATOM     18  C   UNL     1     104.164 133.291 140.401  0.00  0.00    +0.000 A 
ATOM     19  C   UNL     1     103.819 133.653 141.738  0.00  0.00    +0.000 A 
ATOM     20  C   UNL     1     104.179 133.836 141.020  0.00  0.00    +0.000 A 
ENDBRANCH  12  15
ENDBRANCH  10  11
ENDBRANCH   8  10
BRANCH   3  21
ATOM     21  O   UNL     1     104.911 127.511 142.010  0.00  0.00    +0.000 OA
BRANCH  21  30
ATOM     22  O   UNL     1     106.202 128.110 141.880  0.00  0.00    +0.000 OA
ATOM     23  O   UNL     1     107.062 126.649 143.683  0.00  0.00    +0.000 OA
ATOM     24  O   UNL     1     108.065 127.735 142.952  0.00  0.00    +0.000 OA
ATOM     25  O   UNL     1     105.484 126.537 143.212  0.00  0.00    +0.000 OA
ATOM     26  C   UNL     1     107.277 127.679 142.717  0.00  0.00    +0.000 C 
ATOM     27  C   UNL     1     106.775 127.136 143.082  0.00  0.00    +0.000 C 
ATOM     28  C   UNL     1     106.990 128.166 142.116  0.00  0.00    +0.000 C 
ATOM     29  C   UNL     1     105.986 127.079 142.847  0.00  0.00    +0.000 C 
ATOM     30  C   UNL     1     105.700 127.567 142.246  0.00  0.00    +0.000 C 
BRANCH  28  32
ATOM     31  O   UNL     1     107.463 128.810 140.931  0.00  0.00    +0.000 OA
ATOM     32  C   UNL     1     107.492 128.709 141.750  0.00  0.00    +0.000 C 
ENDBRANCH  28  32
ENDBRANCH  21  30
ENDBRANCH   3  21
TORSDOF 6
ENDMDL
MODEL 8
REMARK VINA RESULT:      -8.5      8.954     10.961
REMARK  Name = 6441269
REMARK  6 active torsions:
REMARK  status: ('A' for Active; 'I' for Inactive)
REMARK    1  A    between atoms: O_4  and  C_16
REMARK    2  A    between atoms: O_4  and  C_18
REMARK    3  A    between atoms: C_14  and  C_17
REMARK    4  A    between atoms: C_23  and  C_24
REMARK    5  A    between atoms: C_24  and  C_25
REMARK    6  A    between atoms: C_26  and  C_27
REMARK                            x       y       z     vdW  Elec       q    Type
REMARK                         _______ _______ _______ _____ _____    ______ ____
ROOT
ATOM      1  O   UNL     1     108.259 129.512 135.846  0.00  0.00    +0.000 OA
ATOM      2  O   UNL     1     109.229 128.483 134.996  0.00  0.00    +0.000 OA
ATOM      3  C   UNL     1     109.218 129.541 136.905  0.00  0.00    +0.000 A 
ATOM      4  C   UNL     1     108.981 129.269 136.164  0.00  0.00    +0.000 A 
ATOM      5  C   UNL     1     109.940 129.298 137.223  0.00  0.00    +0.000 A 
ATOM      6  C   UNL     1     109.466 128.755 135.739  0.00  0.00    +0.000 A 
ATOM      7  C   UNL     1     110.425 128.784 136.798  0.00  0.00    +0.000 A 
ATOM      8  C   UNL     1     110.188 128.512 136.055  0.00  0.00    +0.000 A 
ENDROOT
BRANCH   8  10
ATOM      9  O   UNL     1     111.026 128.249 134.929  0.00  0.00    +0.000 OA
ATOM     10  C   UNL     1     110.673 127.997 135.630  0.00  0.00    +0.000 C 
BRANCH  10  11
ATOM     11  C   UNL     1     110.803 127.231 135.907  0.00  0.00    +0.000 C 
ATOM     12  C   UNL     1     111.379 126.757 135.553  0.00  0.00    +0.000 C 
BRANCH  12  15
ATOM     13  O   UNL     1     113.002 124.885 136.978  0.00  0.00    +0.000 OA
ATOM     14  O   UNL     1     111.907 123.693 136.658  0.00  0.00    +0.000 OA
ATOM     15  C   UNL     1     111.511 125.991 135.829  0.00  0.00    +0.000 A 
ATOM     16  C   UNL     1     112.190 125.821 136.266  0.00  0.00    +0.000 A 
ATOM     17  C   UNL     1     110.963 125.395 135.669  0.00  0.00    +0.000 A 
ATOM     18  C   UNL     1     112.322 125.055 136.541  0.00  0.00    +0.000 A 
ATOM     19  C   UNL     1     111.096 124.629 135.945  0.00  0.00    +0.000 A 
ATOM     20  C   UNL     1     111.775 124.459 136.381  0.00  0.00    +0.000 A 
ENDBRANCH  12  15
ENDBRANCH  10  11
ENDBRANCH   8  10
BRANCH   3  21
ATOM     21  O   UNL     1     108.733 130.055 137.330  0.00  0.00    +0.000 OA
BRANCH  21  30
ATOM     22  O   UNL     1     109.440 131.290 137.200  0.00  0.00    +0.000 OA
ATOM     23  O   UNL     1     109.229 131.669 139.636  0.00  0.00    +0.000 OA
ATOM     24  O   UNL     1     110.007 132.776 138.694  0.00  0.00    +0.000 OA
ATOM     25  O   UNL     1     108.592 130.308 138.955  0.00  0.00    +0.000 OA
ATOM     26  C   UNL     1     109.688 132.096 138.353  0.00  0.00    +0.000 C 
ATOM     27  C   UNL     1     109.300 131.542 138.824  0.00  0.00    +0.000 C 
ATOM     28  C   UNL     1     109.759 131.970 137.541  0.00  0.00    +0.000 C 
ATOM     29  C   UNL     1     108.981 130.862 138.484  0.00  0.00    +0.000 C 
ATOM     30  C   UNL     1     109.051 130.735 137.672  0.00  0.00    +0.000 C 
BRANCH  28  32
ATOM     31  O   UNL     1     109.824 132.746 136.342  0.00  0.00    +0.000 OA
ATOM     32  C   UNL     1     110.147 132.524 137.069  0.00  0.00    +0.000 C 
ENDBRANCH  28  32
ENDBRANCH  21  30
ENDBRANCH   3  21
TORSDOF 6
ENDMDL
MODEL 9
REMARK VINA RESULT:      -8.4     10.192     11.492
REMARK  Name = 6441269
REMARK  6 active torsions:
REMARK  status: ('A' for Active; 'I' for Inactive)
REMARK    1  A    between atoms: O_4  and  C_16
REMARK    2  A    between atoms: O_4  and  C_18
REMARK    3  A    between atoms: C_14  and  C_17
REMARK    4  A    between atoms: C_23  and  C_24
REMARK    5  A    between atoms: C_24  and  C_25
REMARK    6  A    between atoms: C_26  and  C_27
REMARK                            x       y       z     vdW  Elec       q    Type
REMARK                         _______ _______ _______ _____ _____    ______ ____
ROOT
ATOM      1  O   UNL     1     113.766 127.537 135.738  0.00  0.00    +0.000 OA
ATOM      2  O   UNL     1     113.345 128.935 136.506  0.00  0.00    +0.000 OA
ATOM      3  C   UNL     1     113.493 126.799 136.931  0.00  0.00    +0.000 A 
ATOM      4  C   UNL     1     113.524 127.517 136.527  0.00  0.00    +0.000 A 
ATOM      5  C   UNL     1     113.250 126.779 137.720  0.00  0.00    +0.000 A 
ATOM      6  C   UNL     1     113.313 128.216 136.911  0.00  0.00    +0.000 A 
ATOM      7  C   UNL     1     113.040 127.479 138.104  0.00  0.00    +0.000 A 
ATOM      8  C   UNL     1     113.071 128.198 137.699  0.00  0.00    +0.000 A 
ENDROOT
BRANCH   8  10
ATOM      9  O   UNL     1     112.148 129.269 137.899  0.00  0.00    +0.000 OA
ATOM     10  C   UNL     1     112.860 128.897 138.083  0.00  0.00    +0.000 C 
BRANCH  10  11
ATOM     11  C   UNL     1     113.363 129.223 138.651  0.00  0.00    +0.000 C 
ATOM     12  C   UNL     1     113.119 129.877 139.090  0.00  0.00    +0.000 C 
BRANCH  12  15
ATOM     13  O   UNL     1     113.647 130.591 141.807  0.00  0.00    +0.000 OA
ATOM     14  O   UNL     1     115.122 131.183 141.364  0.00  0.00    +0.000 OA
ATOM     15  C   UNL     1     113.620 130.203 139.658  0.00  0.00    +0.000 A 
ATOM     16  C   UNL     1     113.383 130.234 140.449  0.00  0.00    +0.000 A 
ATOM     17  C   UNL     1     114.358 130.499 139.437  0.00  0.00    +0.000 A 
ATOM     18  C   UNL     1     113.884 130.560 141.017  0.00  0.00    +0.000 A 
ATOM     19  C   UNL     1     114.858 130.826 140.006  0.00  0.00    +0.000 A 
ATOM     20  C   UNL     1     114.622 130.856 140.795  0.00  0.00    +0.000 A 
ENDBRANCH  12  15
ENDBRANCH  10  11
ENDBRANCH   8  10
BRANCH   3  21
ATOM     21  O   UNL     1     113.703 126.100 136.547  0.00  0.00    +0.000 OA
BRANCH  21  30
ATOM     22  O   UNL     1     112.412 125.534 136.318  0.00  0.00    +0.000 OA
ATOM     23  O   UNL     1     113.236 123.337 137.105  0.00  0.00    +0.000 OA
ATOM     24  O   UNL     1     111.670 123.503 136.614  0.00  0.00    +0.000 OA
ATOM     25  O   UNL     1     114.253 124.636 137.072  0.00  0.00    +0.000 OA
ATOM     26  C   UNL     1     112.178 124.152 136.597  0.00  0.00    +0.000 C 
ATOM     27  C   UNL     1     112.961 124.069 136.843  0.00  0.00    +0.000 C 
ATOM     28  C   UNL     1     111.904 124.884 136.335  0.00  0.00    +0.000 C 
ATOM     29  C   UNL     1     113.470 124.718 136.826  0.00  0.00    +0.000 C 
ATOM     30  C   UNL     1     113.195 125.451 136.564  0.00  0.00    +0.000 C 
BRANCH  28  32
ATOM     31  O   UNL     1     110.949 125.375 135.392  0.00  0.00    +0.000 OA
ATOM     32  C   UNL     1     111.121 124.968 136.090  0.00  0.00    +0.000 C 
ENDBRANCH  28  32
ENDBRANCH  21  30
ENDBRANCH   3  21
TORSDOF 6
ENDMDL
MODEL 10
REMARK VINA RESULT:      -8.4      9.566     11.447
REMARK  Name = 6441269
REMARK  6 active torsions:
REMARK  status: ('A' for Active; 'I' for Inactive)
REMARK    1  A    between atoms: O_4  and  C_16
REMARK    2  A    between atoms: O_4  and  C_18
REMARK    3  A    between atoms: C_14  and  C_17
REMARK    4  A    between atoms: C_23  and  C_24
REMARK    5  A    between atoms: C_24  and  C_25
REMARK    6  A    between atoms: C_26  and  C_27
REMARK                            x       y       z     vdW  Elec       q    Type
REMARK                         _______ _______ _______ _____ _____    ______ ____
ROOT
ATOM      1  O   UNL     1     108.103 128.145 136.040  0.00  0.00    +0.000 OA
ATOM      2  O   UNL     1     108.609 126.591 135.814  0.00  0.00    +0.000 OA
ATOM      3  C   UNL     1     109.350 128.625 135.533  0.00  0.00    +0.000 A 
ATOM      4  C   UNL     1     108.853 127.997 135.730  0.00  0.00    +0.000 A 
ATOM      5  C   UNL     1     110.101 128.476 135.224  0.00  0.00    +0.000 A 
ATOM      6  C   UNL     1     109.106 127.220 135.617  0.00  0.00    +0.000 A 
ATOM      7  C   UNL     1     110.353 127.699 135.111  0.00  0.00    +0.000 A 
ATOM      8  C   UNL     1     109.856 127.070 135.308  0.00  0.00    +0.000 A 
ENDROOT
BRANCH   8  10
ATOM      9  O   UNL     1     109.759 125.827 134.612  0.00  0.00    +0.000 OA
ATOM     10  C   UNL     1     110.109 126.293 135.195  0.00  0.00    +0.000 C 
BRANCH  10  11
ATOM     11  C   UNL     1     110.712 125.983 135.666  0.00  0.00    +0.000 C 
ATOM     12  C   UNL     1     111.005 125.227 135.515  0.00  0.00    +0.000 C 
BRANCH  12  15
ATOM     13  O   UNL     1     111.997 123.156 137.217  0.00  0.00    +0.000 OA
ATOM     14  O   UNL     1     113.414 123.982 137.396  0.00  0.00    +0.000 OA
ATOM     15  C   UNL     1     111.607 124.917 135.985  0.00  0.00    +0.000 A 
ATOM     16  C   UNL     1     111.501 124.192 136.366  0.00  0.00    +0.000 A 
ATOM     17  C   UNL     1     112.316 125.330 136.075  0.00  0.00    +0.000 A 
ATOM     18  C   UNL     1     112.103 123.881 136.836  0.00  0.00    +0.000 A 
ATOM     19  C   UNL     1     112.918 125.018 136.545  0.00  0.00    +0.000 A 
ATOM     20  C   UNL     1     112.812 124.294 136.925  0.00  0.00    +0.000 A 
ENDBRANCH  12  15
ENDBRANCH  10  11
ENDBRANCH   8  10
BRANCH   3  21
ATOM     21  O   UNL     1     109.097 129.402 135.646  0.00  0.00    +0.000 OA
BRANCH  21  30
ATOM     22  O   UNL     1     109.841 129.665 136.838  0.00  0.00    +0.000 OA
ATOM     23  O   UNL     1     110.285 131.969 136.051  0.00  0.00    +0.000 OA
ATOM     24  O   UNL     1     110.880 131.464 137.504  0.00  0.00    +0.000 OA
ATOM     25  O   UNL     1     109.393 130.938 135.122  0.00  0.00    +0.000 OA
ATOM     26  C   UNL     1     110.435 130.949 137.040  0.00  0.00    +0.000 C 
ATOM     27  C   UNL     1     110.137 131.201 136.313  0.00  0.00    +0.000 C 
ATOM     28  C   UNL     1     110.287 130.181 137.302  0.00  0.00    +0.000 C 
ATOM     29  C   UNL     1     109.691 130.686 135.848  0.00  0.00    +0.000 C 
ATOM     30  C   UNL     1     109.543 129.918 136.110  0.00  0.00    +0.000 C 
BRANCH  28  32
ATOM     31  O   UNL     1     110.068 129.661 138.615  0.00  0.00    +0.000 OA
ATOM     32  C   UNL     1     110.585 129.928 138.028  0.00  0.00    +0.000 C 
ENDBRANCH  28  32
ENDBRANCH  21  30
ENDBRANCH   3  21
TORSDOF 6
ENDMDL
