MODEL 1
REMARK VINA RESULT:      -7.2      0.000      0.000
REMARK  Name = 24750459
REMARK  6 active torsions:
REMARK  status: ('A' for Active; 'I' for Inactive)
REMARK    1  A    between atoms: O_2  and  C_13
REMARK    2  A    between atoms: O_3  and  C_17
REMARK    3  A    between atoms: O_4  and  C_19
REMARK    4  A    between atoms: O_5  and  C_20
REMARK    5  A    between atoms: O_6  and  C_21
REMARK    6  A    between atoms: C_7  and  C_11
REMARK                            x       y       z     vdW  Elec       q    Type
REMARK                         _______ _______ _______ _____ _____    ______ ____
ROOT
ATOM      1  O   UNL     1     102.662 132.163 141.509  0.00  0.00    +0.000 OA
ATOM      2  C   UNL     1     102.265 131.473 141.730  0.00  0.00    +0.000 C 
ATOM      3  C   UNL     1     101.475 131.510 141.966  0.00  0.00    +0.000 C 
ATOM      4  C   UNL     1     101.083 132.236 141.981  0.00  0.00    +0.000 C 
ATOM      5  C   UNL     1     101.479 132.924 141.761  0.00  0.00    +0.000 A 
ATOM      6  C   UNL     1     102.269 132.888 141.525  0.00  0.00    +0.000 A 
ATOM      7  C   UNL     1     102.693 133.598 141.292  0.00  0.00    +0.000 A 
ATOM      8  C   UNL     1     101.059 133.674 141.781  0.00  0.00    +0.000 A 
ATOM      9  C   UNL     1     102.289 134.356 141.306  0.00  0.00    +0.000 A 
ATOM     10  C   UNL     1     101.467 134.394 141.552  0.00  0.00    +0.000 A 
ENDROOT
BRANCH   2  11
ATOM     11  C   UNL     1     102.658 130.749 141.714  0.00  0.00    +0.000 A 
ATOM     12  C   UNL     1     102.640 130.283 141.033  0.00  0.00    +0.000 A 
ATOM     13  C   UNL     1     103.070 130.489 142.381  0.00  0.00    +0.000 A 
ATOM     14  C   UNL     1     103.464 129.764 142.365  0.00  0.00    +0.000 A 
ATOM     15  C   UNL     1     103.034 129.559 141.018  0.00  0.00    +0.000 A 
ATOM     16  C   UNL     1     103.446 129.299 141.684  0.00  0.00    +0.000 A 
BRANCH  14  17
ATOM     17  O   UNL     1     103.876 129.504 143.032  0.00  0.00    +0.000 OA
ATOM     18  C   UNL     1     103.907 129.976 143.707  0.00  0.00    +0.000 C 
ENDBRANCH  14  17
BRANCH  15  19
ATOM     19  O   UNL     1     103.016 129.093 140.337  0.00  0.00    +0.000 OA
ATOM     20  C   UNL     1     102.406 129.188 139.789  0.00  0.00    +0.000 C 
ENDBRANCH  15  19
BRANCH  16  21
ATOM     21  O   UNL     1     103.840 128.574 141.669  0.00  0.00    +0.000 OA
ATOM     22  C   UNL     1     104.646 128.545 141.503  0.00  0.00    +0.000 C 
ENDBRANCH  16  21
ENDBRANCH   2  11
BRANCH   7  23
ATOM     23  O   UNL     1     103.483 133.552 141.058  0.00  0.00    +0.000 OA
ATOM     24  C   UNL     1     103.687 133.686 140.269  0.00  0.00    +0.000 C 
ENDBRANCH   7  23
BRANCH   9  25
ATOM     25  O   UNL     1     102.689 135.044 141.085  0.00  0.00    +0.000 OA
ATOM     26  C   UNL     1     102.391 135.782 141.302  0.00  0.00    +0.000 C 
ENDBRANCH   9  25
TORSDOF 6
ENDMDL
MODEL 2
REMARK VINA RESULT:      -7.2     11.170     12.997
REMARK  Name = 24750459
REMARK  6 active torsions:
REMARK  status: ('A' for Active; 'I' for Inactive)
REMARK    1  A    between atoms: O_2  and  C_13
REMARK    2  A    between atoms: O_3  and  C_17
REMARK    3  A    between atoms: O_4  and  C_19
REMARK    4  A    between atoms: O_5  and  C_20
REMARK    5  A    between atoms: O_6  and  C_21
REMARK    6  A    between atoms: C_7  and  C_11
REMARK                            x       y       z     vdW  Elec       q    Type
REMARK                         _______ _______ _______ _____ _____    ______ ____
ROOT
ATOM      1  O   UNL     1     112.764 126.495 136.746  0.00  0.00    +0.000 OA
ATOM      2  C   UNL     1     113.393 127.020 136.645  0.00  0.00    +0.000 C 
ATOM      3  C   UNL     1     114.158 126.731 136.535  0.00  0.00    +0.000 C 
ATOM      4  C   UNL     1     114.294 125.918 136.527  0.00  0.00    +0.000 C 
ATOM      5  C   UNL     1     113.666 125.393 136.629  0.00  0.00    +0.000 A 
ATOM      6  C   UNL     1     112.901 125.681 136.738  0.00  0.00    +0.000 A 
ATOM      7  C   UNL     1     112.238 125.144 136.845  0.00  0.00    +0.000 A 
ATOM      8  C   UNL     1     113.821 124.547 136.618  0.00  0.00    +0.000 A 
ATOM      9  C   UNL     1     112.375 124.296 136.837  0.00  0.00    +0.000 A 
ATOM     10  C   UNL     1     113.171 123.996 136.723  0.00  0.00    +0.000 A 
ENDROOT
BRANCH   2  11
ATOM     11  C   UNL     1     113.255 127.833 136.653  0.00  0.00    +0.000 A 
ATOM     12  C   UNL     1     113.104 128.234 135.948  0.00  0.00    +0.000 A 
ATOM     13  C   UNL     1     113.269 128.246 137.368  0.00  0.00    +0.000 A 
ATOM     14  C   UNL     1     113.131 129.060 137.376  0.00  0.00    +0.000 A 
ATOM     15  C   UNL     1     112.967 129.048 135.958  0.00  0.00    +0.000 A 
ATOM     16  C   UNL     1     112.980 129.460 136.671  0.00  0.00    +0.000 A 
BRANCH  14  17
ATOM     17  O   UNL     1     113.145 129.472 138.091  0.00  0.00    +0.000 OA
ATOM     18  C   UNL     1     112.977 129.081 138.797  0.00  0.00    +0.000 C 
ENDBRANCH  14  17
BRANCH  15  19
ATOM     19  O   UNL     1     112.816 129.448 135.252  0.00  0.00    +0.000 OA
ATOM     20  C   UNL     1     112.432 129.062 134.632  0.00  0.00    +0.000 C 
ENDBRANCH  15  19
BRANCH  16  21
ATOM     21  O   UNL     1     112.843 130.274 136.681  0.00  0.00    +0.000 OA
ATOM     22  C   UNL     1     113.475 130.800 136.625  0.00  0.00    +0.000 C 
ENDBRANCH  16  21
ENDBRANCH   2  11
BRANCH   7  23
ATOM     23  O   UNL     1     111.477 125.442 136.954  0.00  0.00    +0.000 OA
ATOM     24  C   UNL     1     110.914 125.365 136.355  0.00  0.00    +0.000 C 
ENDBRANCH   7  23
BRANCH   9  25
ATOM     25  O   UNL     1     111.744 123.774 136.939  0.00  0.00    +0.000 OA
ATOM     26  C   UNL     1     111.887 122.994 137.168  0.00  0.00    +0.000 C 
ENDBRANCH   9  25
TORSDOF 6
ENDMDL
MODEL 3
REMARK VINA RESULT:      -7.1      8.506      9.912
REMARK  Name = 24750459
REMARK  6 active torsions:
REMARK  status: ('A' for Active; 'I' for Inactive)
REMARK    1  A    between atoms: O_2  and  C_13
REMARK    2  A    between atoms: O_3  and  C_17
REMARK    3  A    between atoms: O_4  and  C_19
REMARK    4  A    between atoms: O_5  and  C_20
REMARK    5  A    between atoms: O_6  and  C_21
REMARK    6  A    between atoms: C_7  and  C_11
REMARK                            x       y       z     vdW  Elec       q    Type
REMARK                         _______ _______ _______ _____ _____    ______ ____
ROOT
ATOM      1  O   UNL     1     103.990 124.282 147.088  0.00  0.00    +0.000 OA
ATOM      2  C   UNL     1     104.395 124.920 147.419  0.00  0.00    +0.000 C 
ATOM      3  C   UNL     1     103.977 125.525 147.794  0.00  0.00    +0.000 C 
ATOM      4  C   UNL     1     103.153 125.491 147.838  0.00  0.00    +0.000 C 
ATOM      5  C   UNL     1     102.749 124.853 147.507  0.00  0.00    +0.000 A 
ATOM      6  C   UNL     1     103.167 124.249 147.132  0.00  0.00    +0.000 A 
ATOM      7  C   UNL     1     102.756 123.579 146.784  0.00  0.00    +0.000 A 
ATOM      8  C   UNL     1     101.891 124.829 147.560  0.00  0.00    +0.000 A 
ATOM      9  C   UNL     1     101.899 123.538 146.827  0.00  0.00    +0.000 A 
ATOM     10  C   UNL     1     101.463 124.168 147.217  0.00  0.00    +0.000 A 
ENDROOT
BRANCH   2  11
ATOM     11  C   UNL     1     105.218 124.954 147.375  0.00  0.00    +0.000 A 
ATOM     12  C   UNL     1     105.676 124.731 148.024  0.00  0.00    +0.000 A 
ATOM     13  C   UNL     1     105.583 125.210 146.680  0.00  0.00    +0.000 A 
ATOM     14  C   UNL     1     106.406 125.243 146.635  0.00  0.00    +0.000 A 
ATOM     15  C   UNL     1     106.499 124.764 147.978  0.00  0.00    +0.000 A 
ATOM     16  C   UNL     1     106.864 125.020 147.284  0.00  0.00    +0.000 A 
BRANCH  14  17
ATOM     17  O   UNL     1     106.771 125.500 145.941  0.00  0.00    +0.000 OA
ATOM     18  C   UNL     1     106.356 125.488 145.228  0.00  0.00    +0.000 C 
ENDBRANCH  14  17
BRANCH  15  19
ATOM     19  O   UNL     1     106.957 124.541 148.627  0.00  0.00    +0.000 OA
ATOM     20  C   UNL     1     106.597 124.212 149.293  0.00  0.00    +0.000 C 
ENDBRANCH  15  19
BRANCH  16  21
ATOM     21  O   UNL     1     107.687 125.054 147.239  0.00  0.00    +0.000 OA
ATOM     22  C   UNL     1     108.086 125.739 147.464  0.00  0.00    +0.000 C 
ENDBRANCH  16  21
ENDBRANCH   2  11
BRANCH   7  23
ATOM     23  O   UNL     1     103.182 122.979 146.411  0.00  0.00    +0.000 OA
ATOM     24  C   UNL     1     103.093 122.853 145.600  0.00  0.00    +0.000 C 
ENDBRANCH   7  23
BRANCH   9  25
ATOM     25  O   UNL     1     101.497 122.898 146.495  0.00  0.00    +0.000 OA
ATOM     26  C   UNL     1     100.719 122.740 146.719  0.00  0.00    +0.000 C 
ENDBRANCH   9  25
TORSDOF 6
ENDMDL
MODEL 4
REMARK VINA RESULT:      -7.0     11.319     12.940
REMARK  Name = 24750459
REMARK  6 active torsions:
REMARK  status: ('A' for Active; 'I' for Inactive)
REMARK    1  A    between atoms: O_2  and  C_13
REMARK    2  A    between atoms: O_3  and  C_17
REMARK    3  A    between atoms: O_4  and  C_19
REMARK    4  A    between atoms: O_5  and  C_20
REMARK    5  A    between atoms: O_6  and  C_21
REMARK    6  A    between atoms: C_7  and  C_11
REMARK                            x       y       z     vdW  Elec       q    Type
REMARK                         _______ _______ _______ _____ _____    ______ ____
ROOT
ATOM      1  O   UNL     1     112.857 126.812 136.552  0.00  0.00    +0.000 OA
ATOM      2  C   UNL     1     112.556 127.534 136.287  0.00  0.00    +0.000 C 
ATOM      3  C   UNL     1     111.829 127.560 135.898  0.00  0.00    +0.000 C 
ATOM      4  C   UNL     1     111.403 126.864 135.774  0.00  0.00    +0.000 C 
ATOM      5  C   UNL     1     111.703 126.144 136.039  0.00  0.00    +0.000 A 
ATOM      6  C   UNL     1     112.429 126.117 136.428  0.00  0.00    +0.000 A 
ATOM      7  C   UNL     1     112.753 125.372 136.709  0.00  0.00    +0.000 A 
ATOM      8  C   UNL     1     111.249 125.426 135.903  0.00  0.00    +0.000 A 
ATOM      9  C   UNL     1     112.313 124.645 136.582  0.00  0.00    +0.000 A 
ATOM     10  C   UNL     1     111.556 124.672 136.177  0.00  0.00    +0.000 A 
ENDROOT
BRANCH   2  11
ATOM     11  C   UNL     1     112.984 128.228 136.412  0.00  0.00    +0.000 A 
ATOM     12  C   UNL     1     113.475 128.523 135.818  0.00  0.00    +0.000 A 
ATOM     13  C   UNL     1     112.919 128.628 137.131  0.00  0.00    +0.000 A 
ATOM     14  C   UNL     1     113.346 129.323 137.256  0.00  0.00    +0.000 A 
ATOM     15  C   UNL     1     113.902 129.217 135.944  0.00  0.00    +0.000 A 
ATOM     16  C   UNL     1     113.838 129.617 136.662  0.00  0.00    +0.000 A 
BRANCH  14  17
ATOM     17  O   UNL     1     113.282 129.723 137.975  0.00  0.00    +0.000 OA
ATOM     18  C   UNL     1     113.096 129.308 138.663  0.00  0.00    +0.000 C 
ENDBRANCH  14  17
BRANCH  15  19
ATOM     19  O   UNL     1     114.394 129.512 135.351  0.00  0.00    +0.000 OA
ATOM     20  C   UNL     1     114.726 128.998 134.796  0.00  0.00    +0.000 C 
ENDBRANCH  15  19
BRANCH  16  21
ATOM     21  O   UNL     1     114.265 130.312 136.788  0.00  0.00    +0.000 OA
ATOM     22  C   UNL     1     113.932 131.042 136.596  0.00  0.00    +0.000 C 
ENDBRANCH  16  21
ENDBRANCH   2  11
BRANCH   7  23
ATOM     23  O   UNL     1     113.480 125.355 137.097  0.00  0.00    +0.000 OA
ATOM     24  C   UNL     1     114.138 125.022 136.726  0.00  0.00    +0.000 C 
ENDBRANCH   7  23
BRANCH   9  25
ATOM     25  O   UNL     1     112.616 123.925 136.849  0.00  0.00    +0.000 OA
ATOM     26  C   UNL     1     112.112 123.281 136.959  0.00  0.00    +0.000 C 
ENDBRANCH   9  25
TORSDOF 6
ENDMDL
MODEL 5
REMARK VINA RESULT:      -6.9     10.106     12.004
REMARK  Name = 24750459
REMARK  6 active torsions:
REMARK  status: ('A' for Active; 'I' for Inactive)
REMARK    1  A    between atoms: O_2  and  C_13
REMARK    2  A    between atoms: O_3  and  C_17
REMARK    3  A    between atoms: O_4  and  C_19
REMARK    4  A    between atoms: O_5  and  C_20
REMARK    5  A    between atoms: O_6  and  C_21
REMARK    6  A    between atoms: C_7  and  C_11
REMARK                            x       y       z     vdW  Elec       q    Type
REMARK                         _______ _______ _______ _____ _____    ______ ____
ROOT
ATOM      1  O   UNL     1     112.619 127.537 137.158  0.00  0.00    +0.000 OA
ATOM      2  C   UNL     1     113.006 127.060 136.607  0.00  0.00    +0.000 C 
ATOM      3  C   UNL     1     113.534 127.395 136.069  0.00  0.00    +0.000 C 
ATOM      4  C   UNL     1     113.675 128.208 136.082  0.00  0.00    +0.000 C 
ATOM      5  C   UNL     1     113.289 128.685 136.632  0.00  0.00    +0.000 A 
ATOM      6  C   UNL     1     112.761 128.350 137.170  0.00  0.00    +0.000 A 
ATOM      7  C   UNL     1     112.351 128.837 137.749  0.00  0.00    +0.000 A 
ATOM      8  C   UNL     1     113.444 129.531 136.636  0.00  0.00    +0.000 A 
ATOM      9  C   UNL     1     112.494 129.683 137.767  0.00  0.00    +0.000 A 
ATOM     10  C   UNL     1     113.044 130.033 137.207  0.00  0.00    +0.000 A 
ENDROOT
BRANCH   2  11
ATOM     11  C   UNL     1     112.864 126.247 136.594  0.00  0.00    +0.000 A 
ATOM     12  C   UNL     1     112.164 125.955 136.270  0.00  0.00    +0.000 A 
ATOM     13  C   UNL     1     113.424 125.727 136.907  0.00  0.00    +0.000 A 
ATOM     14  C   UNL     1     113.282 124.914 136.894  0.00  0.00    +0.000 A 
ATOM     15  C   UNL     1     112.024 125.142 136.258  0.00  0.00    +0.000 A 
ATOM     16  C   UNL     1     112.582 124.622 136.570  0.00  0.00    +0.000 A 
BRANCH  14  17
ATOM     17  O   UNL     1     113.842 124.393 137.207  0.00  0.00    +0.000 OA
ATOM     18  C   UNL     1     114.615 124.649 137.339  0.00  0.00    +0.000 C 
ENDBRANCH  14  17
BRANCH  15  19
ATOM     19  O   UNL     1     111.324 124.850 135.934  0.00  0.00    +0.000 OA
ATOM     20  C   UNL     1     110.841 125.343 135.480  0.00  0.00    +0.000 C 
ENDBRANCH  15  19
BRANCH  16  21
ATOM     21  O   UNL     1     112.442 123.809 136.558  0.00  0.00    +0.000 OA
ATOM     22  C   UNL     1     112.031 123.452 137.178  0.00  0.00    +0.000 C 
ENDBRANCH  16  21
ENDBRANCH   2  11
BRANCH   7  23
ATOM     23  O   UNL     1     111.825 128.492 138.283  0.00  0.00    +0.000 OA
ATOM     24  C   UNL     1     112.026 128.436 139.081  0.00  0.00    +0.000 C 
ENDBRANCH   7  23
BRANCH   9  25
ATOM     25  O   UNL     1     112.106 130.158 138.319  0.00  0.00    +0.000 OA
ATOM     26  C   UNL     1     112.013 130.965 138.176  0.00  0.00    +0.000 C 
ENDBRANCH   9  25
TORSDOF 6
ENDMDL
MODEL 6
REMARK VINA RESULT:      -6.8      8.783      9.987
REMARK  Name = 24750459
REMARK  6 active torsions:
REMARK  status: ('A' for Active; 'I' for Inactive)
REMARK    1  A    between atoms: O_2  and  C_13
REMARK    2  A    between atoms: O_3  and  C_17
REMARK    3  A    between atoms: O_4  and  C_19
REMARK    4  A    between atoms: O_5  and  C_20
REMARK    5  A    between atoms: O_6  and  C_21
REMARK    6  A    between atoms: C_7  and  C_11
REMARK                            x       y       z     vdW  Elec       q    Type
REMARK                         _______ _______ _______ _____ _____    ______ ____
ROOT
ATOM      1  O   UNL     1     105.117 124.567 147.529  0.00  0.00    +0.000 OA
ATOM      2  C   UNL     1     104.637 124.824 146.909  0.00  0.00    +0.000 C 
ATOM      3  C   UNL     1     104.930 125.362 146.356  0.00  0.00    +0.000 C 
ATOM      4  C   UNL     1     105.703 125.642 146.423  0.00  0.00    +0.000 C 
ATOM      5  C   UNL     1     106.183 125.385 147.042  0.00  0.00    +0.000 A 
ATOM      6  C   UNL     1     105.890 124.848 147.595  0.00  0.00    +0.000 A 
ATOM      7  C   UNL     1     106.380 124.573 148.246  0.00  0.00    +0.000 A 
ATOM      8  C   UNL     1     106.986 125.685 147.101  0.00  0.00    +0.000 A 
ATOM      9  C   UNL     1     107.186 124.861 148.320  0.00  0.00    +0.000 A 
ATOM     10  C   UNL     1     107.491 125.421 147.744  0.00  0.00    +0.000 A 
ENDROOT
BRANCH   2  11
ATOM     11  C   UNL     1     103.864 124.544 146.842  0.00  0.00    +0.000 A 
ATOM     12  C   UNL     1     103.690 123.933 146.316  0.00  0.00    +0.000 A 
ATOM     13  C   UNL     1     103.264 124.874 147.304  0.00  0.00    +0.000 A 
ATOM     14  C   UNL     1     102.492 124.594 147.238  0.00  0.00    +0.000 A 
ATOM     15  C   UNL     1     102.916 123.653 146.250  0.00  0.00    +0.000 A 
ATOM     16  C   UNL     1     102.318 123.983 146.711  0.00  0.00    +0.000 A 
BRANCH  14  17
ATOM     17  O   UNL     1     101.892 124.924 147.699  0.00  0.00    +0.000 OA
ATOM     18  C   UNL     1     102.078 125.301 148.409  0.00  0.00    +0.000 C 
ENDBRANCH  14  17
BRANCH  15  19
ATOM     19  O   UNL     1     102.743 123.042 145.724  0.00  0.00    +0.000 OA
ATOM     20  C   UNL     1     103.333 122.741 145.231  0.00  0.00    +0.000 C 
ENDBRANCH  15  19
BRANCH  16  21
ATOM     21  O   UNL     1     101.544 123.703 146.646  0.00  0.00    +0.000 OA
ATOM     22  C   UNL     1     101.042 124.008 146.067  0.00  0.00    +0.000 C 
ENDBRANCH  16  21
ENDBRANCH   2  11
BRANCH   7  23
ATOM     23  O   UNL     1     106.078 124.035 148.794  0.00  0.00    +0.000 OA
ATOM     24  C   UNL     1     105.934 124.275 149.570  0.00  0.00    +0.000 C 
ENDBRANCH   7  23
BRANCH   9  25
ATOM     25  O   UNL     1     107.663 124.602 148.942  0.00  0.00    +0.000 OA
ATOM     26  C   UNL     1     108.481 124.562 148.843  0.00  0.00    +0.000 C 
ENDBRANCH   9  25
TORSDOF 6
ENDMDL
MODEL 7
REMARK VINA RESULT:      -6.8     11.332     12.200
REMARK  Name = 24750459
REMARK  6 active torsions:
REMARK  status: ('A' for Active; 'I' for Inactive)
REMARK    1  A    between atoms: O_2  and  C_13
REMARK    2  A    between atoms: O_3  and  C_17
REMARK    3  A    between atoms: O_4  and  C_19
REMARK    4  A    between atoms: O_5  and  C_20
REMARK    5  A    between atoms: O_6  and  C_21
REMARK    6  A    between atoms: C_7  and  C_11
REMARK                            x       y       z     vdW  Elec       q    Type
REMARK                         _______ _______ _______ _____ _____    ______ ____
ROOT
ATOM      1  O   UNL     1     113.078 127.572 136.830  0.00  0.00    +0.000 OA
ATOM      2  C   UNL     1     112.756 127.017 137.351  0.00  0.00    +0.000 C 
ATOM      3  C   UNL     1     112.492 127.255 138.095  0.00  0.00    +0.000 C 
ATOM      4  C   UNL     1     112.551 128.047 138.320  0.00  0.00    +0.000 C 
ATOM      5  C   UNL     1     112.872 128.601 137.801  0.00  0.00    +0.000 A 
ATOM      6  C   UNL     1     113.136 128.363 137.056  0.00  0.00    +0.000 A 
ATOM      7  C   UNL     1     113.473 128.931 136.506  0.00  0.00    +0.000 A 
ATOM      8  C   UNL     1     112.927 129.423 138.046  0.00  0.00    +0.000 A 
ATOM      9  C   UNL     1     113.536 129.756 136.734  0.00  0.00    +0.000 A 
ATOM     10  C   UNL     1     113.262 130.004 137.510  0.00  0.00    +0.000 A 
ENDROOT
BRANCH   2  11
ATOM     11  C   UNL     1     112.698 126.226 137.125  0.00  0.00    +0.000 A 
ATOM     12  C   UNL     1     112.021 125.954 136.741  0.00  0.00    +0.000 A 
ATOM     13  C   UNL     1     113.319 125.706 137.285  0.00  0.00    +0.000 A 
ATOM     14  C   UNL     1     113.261 124.914 137.059  0.00  0.00    +0.000 A 
ATOM     15  C   UNL     1     111.964 125.163 136.516  0.00  0.00    +0.000 A 
ATOM     16  C   UNL     1     112.584 124.643 136.675  0.00  0.00    +0.000 A 
BRANCH  14  17
ATOM     17  O   UNL     1     113.882 124.394 137.218  0.00  0.00    +0.000 OA
ATOM     18  C   UNL     1     114.652 124.681 137.297  0.00  0.00    +0.000 C 
ENDBRANCH  14  17
BRANCH  15  19
ATOM     19  O   UNL     1     111.286 124.891 136.131  0.00  0.00    +0.000 OA
ATOM     20  C   UNL     1     110.852 125.402 135.650  0.00  0.00    +0.000 C 
ENDBRANCH  15  19
BRANCH  16  21
ATOM     21  O   UNL     1     112.527 123.851 136.450  0.00  0.00    +0.000 OA
ATOM     22  C   UNL     1     112.180 123.301 136.957  0.00  0.00    +0.000 C 
ENDBRANCH  16  21
ENDBRANCH   2  11
BRANCH   7  23
ATOM     23  O   UNL     1     113.734 128.684 135.763  0.00  0.00    +0.000 OA
ATOM     24  C   UNL     1     113.335 128.928 135.083  0.00  0.00    +0.000 C 
ENDBRANCH   7  23
BRANCH   9  25
ATOM     25  O   UNL     1     113.859 130.308 136.212  0.00  0.00    +0.000 OA
ATOM     26  C   UNL     1     114.093 131.049 136.488  0.00  0.00    +0.000 C 
ENDBRANCH   9  25
TORSDOF 6
ENDMDL
MODEL 8
REMARK VINA RESULT:      -6.7      9.958     11.818
REMARK  Name = 24750459
REMARK  6 active torsions:
REMARK  status: ('A' for Active; 'I' for Inactive)
REMARK    1  A    between atoms: O_2  and  C_13
REMARK    2  A    between atoms: O_3  and  C_17
REMARK    3  A    between atoms: O_4  and  C_19
REMARK    4  A    between atoms: O_5  and  C_20
REMARK    5  A    between atoms: O_6  and  C_21
REMARK    6  A    between atoms: C_7  and  C_11
REMARK                            x       y       z     vdW  Elec       q    Type
REMARK                         _______ _______ _______ _____ _____    ______ ____
ROOT
ATOM      1  O   UNL     1     112.214 126.464 138.840  0.00  0.00    +0.000 OA
ATOM      2  C   UNL     1     112.672 126.195 138.208  0.00  0.00    +0.000 C 
ATOM      3  C   UNL     1     113.492 126.147 138.283  0.00  0.00    +0.000 C 
ATOM      4  C   UNL     1     113.854 126.368 138.991  0.00  0.00    +0.000 C 
ATOM      5  C   UNL     1     113.397 126.637 139.622  0.00  0.00    +0.000 A 
ATOM      6  C   UNL     1     112.577 126.685 139.547  0.00  0.00    +0.000 A 
ATOM      7  C   UNL     1     112.090 126.963 140.198  0.00  0.00    +0.000 A 
ATOM      8  C   UNL     1     113.787 126.864 140.354  0.00  0.00    +0.000 A 
ATOM      9  C   UNL     1     112.462 127.195 140.937  0.00  0.00    +0.000 A 
ATOM     10  C   UNL     1     113.316 127.145 141.015  0.00  0.00    +0.000 A 
ENDROOT
BRANCH   2  11
ATOM     11  C   UNL     1     112.308 125.974 137.501  0.00  0.00    +0.000 A 
ATOM     12  C   UNL     1     112.128 125.181 137.360  0.00  0.00    +0.000 A 
ATOM     13  C   UNL     1     112.126 126.547 136.935  0.00  0.00    +0.000 A 
ATOM     14  C   UNL     1     111.762 126.326 136.228  0.00  0.00    +0.000 A 
ATOM     15  C   UNL     1     111.764 124.962 136.652  0.00  0.00    +0.000 A 
ATOM     16  C   UNL     1     111.582 125.533 136.087  0.00  0.00    +0.000 A 
BRANCH  14  17
ATOM     17  O   UNL     1     111.580 126.898 135.662  0.00  0.00    +0.000 OA
ATOM     18  C   UNL     1     111.903 127.655 135.722  0.00  0.00    +0.000 C 
ENDBRANCH  14  17
BRANCH  15  19
ATOM     19  O   UNL     1     111.583 124.169 136.510  0.00  0.00    +0.000 OA
ATOM     20  C   UNL     1     112.018 123.574 136.882  0.00  0.00    +0.000 C 
ENDBRANCH  15  19
BRANCH  16  21
ATOM     21  O   UNL     1     111.218 125.314 135.379  0.00  0.00    +0.000 OA
ATOM     22  C   UNL     1     110.399 125.364 135.303  0.00  0.00    +0.000 C 
ENDBRANCH  16  21
ENDBRANCH   2  11
BRANCH   7  23
ATOM     23  O   UNL     1     111.271 127.008 140.113  0.00  0.00    +0.000 OA
ATOM     24  C   UNL     1     110.784 126.492 140.536  0.00  0.00    +0.000 C 
ENDBRANCH   7  23
BRANCH   9  25
ATOM     25  O   UNL     1     112.001 127.464 141.567  0.00  0.00    +0.000 OA
ATOM     26  C   UNL     1     112.319 127.996 142.112  0.00  0.00    +0.000 C 
ENDBRANCH   9  25
TORSDOF 6
ENDMDL
MODEL 9
REMARK VINA RESULT:      -6.6      7.114      9.031
REMARK  Name = 24750459
REMARK  6 active torsions:
REMARK  status: ('A' for Active; 'I' for Inactive)
REMARK    1  A    between atoms: O_2  and  C_13
REMARK    2  A    between atoms: O_3  and  C_17
REMARK    3  A    between atoms: O_4  and  C_19
REMARK    4  A    between atoms: O_5  and  C_20
REMARK    5  A    between atoms: O_6  and  C_21
REMARK    6  A    between atoms: C_7  and  C_11
REMARK                            x       y       z     vdW  Elec       q    Type
REMARK                         _______ _______ _______ _____ _____    ______ ____
ROOT
ATOM      1  O   UNL     1     104.929 125.438 146.606  0.00  0.00    +0.000 OA
ATOM      2  C   UNL     1     104.699 124.779 147.047  0.00  0.00    +0.000 C 
ATOM      3  C   UNL     1     105.201 124.474 147.626  0.00  0.00    +0.000 C 
ATOM      4  C   UNL     1     105.934 124.828 147.764  0.00  0.00    +0.000 C 
ATOM      5  C   UNL     1     106.164 125.486 147.324  0.00  0.00    +0.000 A 
ATOM      6  C   UNL     1     105.661 125.791 146.745  0.00  0.00    +0.000 A 
ATOM      7  C   UNL     1     105.889 126.478 146.280  0.00  0.00    +0.000 A 
ATOM      8  C   UNL     1     106.929 125.846 147.477  0.00  0.00    +0.000 A 
ATOM      9  C   UNL     1     106.650 126.850 146.420  0.00  0.00    +0.000 A 
ATOM     10  C   UNL     1     107.174 126.532 147.022  0.00  0.00    +0.000 A 
ENDROOT
BRANCH   2  11
ATOM     11  C   UNL     1     103.966 124.426 146.908  0.00  0.00    +0.000 A 
ATOM     12  C   UNL     1     103.298 124.687 147.316  0.00  0.00    +0.000 A 
ATOM     13  C   UNL     1     103.902 123.811 146.361  0.00  0.00    +0.000 A 
ATOM     14  C   UNL     1     103.170 123.458 146.222  0.00  0.00    +0.000 A 
ATOM     15  C   UNL     1     102.566 124.332 147.176  0.00  0.00    +0.000 A 
ATOM     16  C   UNL     1     102.502 123.719 146.629  0.00  0.00    +0.000 A 
BRANCH  14  17
ATOM     17  O   UNL     1     103.106 122.843 145.674  0.00  0.00    +0.000 OA
ATOM     18  C   UNL     1     103.690 122.739 145.100  0.00  0.00    +0.000 C 
ENDBRANCH  14  17
BRANCH  15  19
ATOM     19  O   UNL     1     101.898 124.593 147.583  0.00  0.00    +0.000 OA
ATOM     20  C   UNL     1     101.879 125.355 147.902  0.00  0.00    +0.000 C 
ENDBRANCH  15  19
BRANCH  16  21
ATOM     21  O   UNL     1     101.770 123.365 146.489  0.00  0.00    +0.000 OA
ATOM     22  C   UNL     1     101.509 122.750 146.973  0.00  0.00    +0.000 C 
ENDBRANCH  16  21
ENDBRANCH   2  11
BRANCH   7  23
ATOM     23  O   UNL     1     105.380 126.776 145.704  0.00  0.00    +0.000 OA
ATOM     24  C   UNL     1     105.582 126.719 144.906  0.00  0.00    +0.000 C 
ENDBRANCH   7  23
BRANCH   9  25
ATOM     25  O   UNL     1     106.877 127.509 145.978  0.00  0.00    +0.000 OA
ATOM     26  C   UNL     1     107.499 127.985 146.237  0.00  0.00    +0.000 C 
ENDBRANCH   9  25
TORSDOF 6
ENDMDL
MODEL 10
REMARK VINA RESULT:      -6.5     10.581     11.834
REMARK  Name = 24750459
REMARK  6 active torsions:
REMARK  status: ('A' for Active; 'I' for Inactive)
REMARK    1  A    between atoms: O_2  and  C_13
REMARK    2  A    between atoms: O_3  and  C_17
REMARK    3  A    between atoms: O_4  and  C_19
REMARK    4  A    between atoms: O_5  and  C_20
REMARK    5  A    between atoms: O_6  and  C_21
REMARK    6  A    between atoms: C_7  and  C_11
REMARK                            x       y       z     vdW  Elec       q    Type
REMARK                         _______ _______ _______ _____ _____    ______ ____
ROOT
ATOM      1  O   UNL     1     113.208 127.527 138.955  0.00  0.00    +0.000 OA
ATOM      2  C   UNL     1     113.075 126.739 139.165  0.00  0.00    +0.000 C 
ATOM      3  C   UNL     1     113.181 126.497 139.946  0.00  0.00    +0.000 C 
ATOM      4  C   UNL     1     113.420 127.043 140.518  0.00  0.00    +0.000 C 
ATOM      5  C   UNL     1     113.553 127.829 140.308  0.00  0.00    +0.000 A 
ATOM      6  C   UNL     1     113.447 128.071 139.527  0.00  0.00    +0.000 A 
ATOM      7  C   UNL     1     113.582 128.888 139.296  0.00  0.00    +0.000 A 
ATOM      8  C   UNL     1     113.802 128.387 140.913  0.00  0.00    +0.000 A 
ATOM      9  C   UNL     1     113.830 129.460 139.887  0.00  0.00    +0.000 A 
ATOM     10  C   UNL     1     113.941 129.208 140.701  0.00  0.00    +0.000 A 
ENDROOT
BRANCH   2  11
ATOM     11  C   UNL     1     112.836 126.195 138.593  0.00  0.00    +0.000 A 
ATOM     12  C   UNL     1     112.033 126.057 138.464  0.00  0.00    +0.000 A 
ATOM     13  C   UNL     1     113.402 125.789 138.149  0.00  0.00    +0.000 A 
ATOM     14  C   UNL     1     113.163 125.245 137.577  0.00  0.00    +0.000 A 
ATOM     15  C   UNL     1     111.796 125.512 137.891  0.00  0.00    +0.000 A 
ATOM     16  C   UNL     1     112.360 125.106 137.448  0.00  0.00    +0.000 A 
BRANCH  14  17
ATOM     17  O   UNL     1     113.729 124.838 137.133  0.00  0.00    +0.000 OA
ATOM     18  C   UNL     1     114.504 125.118 137.097  0.00  0.00    +0.000 C 
ENDBRANCH  14  17
BRANCH  15  19
ATOM     19  O   UNL     1     110.993 125.374 137.763  0.00  0.00    +0.000 OA
ATOM     20  C   UNL     1     110.442 125.971 137.910  0.00  0.00    +0.000 C 
ENDBRANCH  15  19
BRANCH  16  21
ATOM     21  O   UNL     1     112.122 124.562 136.876  0.00  0.00    +0.000 OA
ATOM     22  C   UNL     1     112.015 123.770 137.078  0.00  0.00    +0.000 C 
ENDBRANCH  16  21
ENDBRANCH   2  11
BRANCH   7  23
ATOM     23  O   UNL     1     113.473 129.121 138.512  0.00  0.00    +0.000 OA
ATOM     24  C   UNL     1     112.839 129.609 138.311  0.00  0.00    +0.000 C 
ENDBRANCH   7  23
BRANCH   9  25
ATOM     25  O   UNL     1     113.962 130.246 139.673  0.00  0.00    +0.000 OA
ATOM     26  C   UNL     1     114.473 130.714 140.121  0.00  0.00    +0.000 C 
ENDBRANCH   9  25
TORSDOF 6
ENDMDL
