MODEL 1
REMARK VINA RESULT:      -9.6      0.000      0.000
REMARK  Name = 42607568
REMARK  9 active torsions:
REMARK  status: ('A' for Active; 'I' for Inactive)
REMARK    1  A    between atoms: O_1  and  C_16
REMARK    2  A    between atoms: O_1  and  C_19
REMARK    3  A    between atoms: O_7  and  C_24
REMARK    4  A    between atoms: O_7  and  C_27
REMARK    5  A    between atoms: C_18  and  C_25
REMARK    6  A    between atoms: C_23  and  C_26
REMARK    7  A    between atoms: C_32  and  C_33
REMARK    8  A    between atoms: C_33  and  C_34
REMARK    9  A    between atoms: C_35  and  C_36
REMARK                            x       y       z     vdW  Elec       q    Type
REMARK                         _______ _______ _______ _____ _____    ______ ____
ROOT
ATOM      1  O   UNL     1     109.378 126.502 135.628  0.00  0.00    +0.000 OA
ENDROOT
BRANCH   1   9
ATOM      2  O   UNL     1     110.182 126.316 136.795  0.00  0.00    +0.000 OA
ATOM      3  O   UNL     1     111.513 124.602 135.604  0.00  0.00    +0.000 OA
ATOM      4  O   UNL     1     110.265 125.359 134.834  0.00  0.00    +0.000 OA
ATOM      5  C   UNL     1     111.249 125.365 136.782  0.00  0.00    +0.000 C 
ATOM      6  C   UNL     1     111.069 125.173 136.001  0.00  0.00    +0.000 C 
ATOM      7  C   UNL     1     110.806 125.937 137.179  0.00  0.00    +0.000 C 
ATOM      8  C   UNL     1     110.445 125.552 135.616  0.00  0.00    +0.000 C 
ATOM      9  C   UNL     1     110.002 126.123 136.013  0.00  0.00    +0.000 C 
BRANCH   7  11
ATOM     10  O   UNL     1     110.380 126.290 138.497  0.00  0.00    +0.000 OA
ATOM     11  C   UNL     1     110.986 126.129 137.961  0.00  0.00    +0.000 C 
ENDBRANCH   7  11
BRANCH   5  12
ATOM     12  O   UNL     1     111.873 124.987 137.168  0.00  0.00    +0.000 OA
BRANCH  12  16
ATOM     13  O   UNL     1     112.877 125.983 136.765  0.00  0.00    +0.000 OA
ATOM     14  O   UNL     1     113.358 124.027 137.472  0.00  0.00    +0.000 OA
ATOM     15  O   UNL     1     114.774 125.045 137.047  0.00  0.00    +0.000 OA
ATOM     16  C   UNL     1     112.648 125.241 137.047  0.00  0.00    +0.000 C 
ATOM     17  C   UNL     1     113.331 124.800 137.187  0.00  0.00    +0.000 C 
ATOM     18  C   UNL     1     113.982 125.268 136.992  0.00  0.00    +0.000 C 
ATOM     19  C   UNL     1     113.701 125.998 136.731  0.00  0.00    +0.000 C 
BRANCH  19  21
ATOM     20  O   UNL     1     113.804 127.331 136.223  0.00  0.00    +0.000 OA
ATOM     21  C   UNL     1     114.164 126.634 136.480  0.00  0.00    +0.000 C 
ENDBRANCH  19  21
ENDBRANCH  12  16
ENDBRANCH   5  12
ENDBRANCH   1   9
BRANCH   1  24
ATOM     22  O   UNL     1     107.994 127.332 135.971  0.00  0.00    +0.000 OA
ATOM     23  O   UNL     1     107.970 128.978 135.859  0.00  0.00    +0.000 OA
ATOM     24  C   UNL     1     109.366 127.325 135.573  0.00  0.00    +0.000 A 
ATOM     25  C   UNL     1     108.674 127.740 135.744  0.00  0.00    +0.000 A 
ATOM     26  C   UNL     1     110.047 127.732 135.346  0.00  0.00    +0.000 A 
ATOM     27  C   UNL     1     108.662 128.563 135.688  0.00  0.00    +0.000 A 
ATOM     28  C   UNL     1     110.035 128.555 135.290  0.00  0.00    +0.000 A 
ATOM     29  C   UNL     1     109.342 128.971 135.461  0.00  0.00    +0.000 A 
BRANCH  29  31
ATOM     30  O   UNL     1     109.142 130.156 134.689  0.00  0.00    +0.000 OA
ATOM     31  C   UNL     1     109.330 129.794 135.406  0.00  0.00    +0.000 C 
BRANCH  31  32
ATOM     32  C   UNL     1     109.507 130.254 136.068  0.00  0.00    +0.000 C 
ATOM     33  C   UNL     1     109.586 131.072 135.991  0.00  0.00    +0.000 C 
BRANCH  33  36
ATOM     34  O   UNL     1     108.724 132.518 138.301  0.00  0.00    +0.000 OA
ATOM     35  O   UNL     1     110.290 132.917 138.635  0.00  0.00    +0.000 OA
ATOM     36  C   UNL     1     109.762 131.533 136.652  0.00  0.00    +0.000 A 
ATOM     37  C   UNL     1     109.155 131.795 137.146  0.00  0.00    +0.000 A 
ATOM     38  C   UNL     1     110.545 131.733 136.819  0.00  0.00    +0.000 A 
ATOM     39  C   UNL     1     109.331 132.256 137.807  0.00  0.00    +0.000 A 
ATOM     40  C   UNL     1     110.720 132.194 137.480  0.00  0.00    +0.000 A 
ATOM     41  C   UNL     1     110.114 132.456 137.974  0.00  0.00    +0.000 A 
ENDBRANCH  33  36
ENDBRANCH  31  32
ENDBRANCH  29  31
ENDBRANCH   1  24
TORSDOF 9
ENDMDL
MODEL 2
REMARK VINA RESULT:      -9.3      4.220      7.235
REMARK  Name = 42607568
REMARK  9 active torsions:
REMARK  status: ('A' for Active; 'I' for Inactive)
REMARK    1  A    between atoms: O_1  and  C_16
REMARK    2  A    between atoms: O_1  and  C_19
REMARK    3  A    between atoms: O_7  and  C_24
REMARK    4  A    between atoms: O_7  and  C_27
REMARK    5  A    between atoms: C_18  and  C_25
REMARK    6  A    between atoms: C_23  and  C_26
REMARK    7  A    between atoms: C_32  and  C_33
REMARK    8  A    between atoms: C_33  and  C_34
REMARK    9  A    between atoms: C_35  and  C_36
REMARK                            x       y       z     vdW  Elec       q    Type
REMARK                         _______ _______ _______ _____ _____    ______ ____
ROOT
ATOM      1  O   UNL     1     108.566 126.377 141.604  0.00  0.00    +0.000 OA
ENDROOT
BRANCH   1   9
ATOM      2  O   UNL     1     108.169 125.032 141.326  0.00  0.00    +0.000 OA
ATOM      3  O   UNL     1     105.835 125.598 141.925  0.00  0.00    +0.000 OA
ATOM      4  O   UNL     1     107.010 126.753 142.004  0.00  0.00    +0.000 OA
ATOM      5  C   UNL     1     106.803 124.643 141.487  0.00  0.00    +0.000 C 
ATOM      6  C   UNL     1     106.613 125.409 141.725  0.00  0.00    +0.000 C 
ATOM      7  C   UNL     1     107.581 124.455 141.287  0.00  0.00    +0.000 C 
ATOM      8  C   UNL     1     107.200 125.988 141.765  0.00  0.00    +0.000 C 
ATOM      9  C   UNL     1     107.978 125.799 141.565  0.00  0.00    +0.000 C 
BRANCH   7  11
ATOM     10  O   UNL     1     108.503 123.363 141.247  0.00  0.00    +0.000 OA
ATOM     11  C   UNL     1     107.772 123.688 141.047  0.00  0.00    +0.000 C 
ENDBRANCH   7  11
BRANCH   5  12
ATOM     12  O   UNL     1     106.216 124.065 141.447  0.00  0.00    +0.000 OA
BRANCH  12  16
ATOM     13  O   UNL     1     105.778 124.489 140.110  0.00  0.00    +0.000 OA
ATOM     14  O   UNL     1     104.900 122.872 141.191  0.00  0.00    +0.000 OA
ATOM     15  O   UNL     1     104.177 123.181 139.578  0.00  0.00    +0.000 OA
ATOM     16  C   UNL     1     105.737 124.008 140.779  0.00  0.00    +0.000 C 
ATOM     17  C   UNL     1     105.132 123.459 140.660  0.00  0.00    +0.000 C 
ATOM     18  C   UNL     1     104.799 123.601 139.919  0.00  0.00    +0.000 C 
ATOM     19  C   UNL     1     105.199 124.238 139.579  0.00  0.00    +0.000 C 
BRANCH  19  21
ATOM     20  O   UNL     1     105.466 125.230 138.585  0.00  0.00    +0.000 OA
ATOM     21  C   UNL     1     105.046 124.566 138.837  0.00  0.00    +0.000 C 
ENDBRANCH  19  21
ENDBRANCH  12  16
ENDBRANCH   5  12
ENDBRANCH   1   9
BRANCH   1  24
ATOM     22  O   UNL     1     110.173 126.315 141.972  0.00  0.00    +0.000 OA
ATOM     23  O   UNL     1     111.299 126.429 140.772  0.00  0.00    +0.000 OA
ATOM     24  C   UNL     1     109.129 126.434 141.004  0.00  0.00    +0.000 A 
ATOM     25  C   UNL     1     109.932 126.403 141.188  0.00  0.00    +0.000 A 
ATOM     26  C   UNL     1     108.888 126.522 140.219  0.00  0.00    +0.000 A 
ATOM     27  C   UNL     1     110.495 126.460 140.587  0.00  0.00    +0.000 A 
ATOM     28  C   UNL     1     109.451 126.580 139.619  0.00  0.00    +0.000 A 
ATOM     29  C   UNL     1     110.255 126.549 139.803  0.00  0.00    +0.000 A 
BRANCH  29  31
ATOM     30  O   UNL     1     111.287 127.281 139.141  0.00  0.00    +0.000 OA
ATOM     31  C   UNL     1     110.818 126.606 139.203  0.00  0.00    +0.000 C 
BRANCH  31  32
ATOM     32  C   UNL     1     110.912 125.987 138.665  0.00  0.00    +0.000 C 
ATOM     33  C   UNL     1     111.402 126.082 138.009  0.00  0.00    +0.000 C 
BRANCH  33  36
ATOM     34  O   UNL     1     110.812 124.896 135.476  0.00  0.00    +0.000 OA
ATOM     35  O   UNL     1     111.777 123.612 135.853  0.00  0.00    +0.000 OA
ATOM     36  C   UNL     1     111.496 125.465 137.470  0.00  0.00    +0.000 A 
ATOM     37  C   UNL     1     111.107 125.489 136.742  0.00  0.00    +0.000 A 
ATOM     38  C   UNL     1     111.979 124.823 137.659  0.00  0.00    +0.000 A 
ATOM     39  C   UNL     1     111.201 124.871 136.204  0.00  0.00    +0.000 A 
ATOM     40  C   UNL     1     112.072 124.205 137.119  0.00  0.00    +0.000 A 
ATOM     41  C   UNL     1     111.684 124.229 136.393  0.00  0.00    +0.000 A 
ENDBRANCH  33  36
ENDBRANCH  31  32
ENDBRANCH  29  31
ENDBRANCH   1  24
TORSDOF 9
ENDMDL
MODEL 3
REMARK VINA RESULT:      -9.2      6.718      9.373
REMARK  Name = 42607568
REMARK  9 active torsions:
REMARK  status: ('A' for Active; 'I' for Inactive)
REMARK    1  A    between atoms: O_1  and  C_16
REMARK    2  A    between atoms: O_1  and  C_19
REMARK    3  A    between atoms: O_7  and  C_24
REMARK    4  A    between atoms: O_7  and  C_27
REMARK    5  A    between atoms: C_18  and  C_25
REMARK    6  A    between atoms: C_23  and  C_26
REMARK    7  A    between atoms: C_32  and  C_33
REMARK    8  A    between atoms: C_33  and  C_34
REMARK    9  A    between atoms: C_35  and  C_36
REMARK                            x       y       z     vdW  Elec       q    Type
REMARK                         _______ _______ _______ _____ _____    ______ ____
ROOT
ATOM      1  O   UNL     1     107.471 125.798 141.419  0.00  0.00    +0.000 OA
ENDROOT
BRANCH   1   9
ATOM      2  O   UNL     1     106.994 126.174 142.712  0.00  0.00    +0.000 OA
ATOM      3  O   UNL     1     107.546 128.538 142.229  0.00  0.00    +0.000 OA
ATOM      4  O   UNL     1     107.839 127.374 141.097  0.00  0.00    +0.000 OA
ATOM      5  C   UNL     1     107.032 127.544 143.117  0.00  0.00    +0.000 C 
ATOM      6  C   UNL     1     107.362 127.750 142.390  0.00  0.00    +0.000 C 
ATOM      7  C   UNL     1     106.848 126.756 143.278  0.00  0.00    +0.000 C 
ATOM      8  C   UNL     1     107.509 127.168 141.823  0.00  0.00    +0.000 C 
ATOM      9  C   UNL     1     107.325 126.380 141.984  0.00  0.00    +0.000 C 
BRANCH   7  11
ATOM     10  O   UNL     1     106.762 125.862 144.391  0.00  0.00    +0.000 OA
ATOM     11  C   UNL     1     106.517 126.550 144.006  0.00  0.00    +0.000 C 
ENDBRANCH   7  11
BRANCH   5  12
ATOM     12  O   UNL     1     106.885 128.125 143.684  0.00  0.00    +0.000 OA
BRANCH  12  16
ATOM     13  O   UNL     1     105.580 128.473 143.103  0.00  0.00    +0.000 OA
ATOM     14  O   UNL     1     106.430 129.460 144.794  0.00  0.00    +0.000 OA
ATOM     15  O   UNL     1     104.824 130.080 144.287  0.00  0.00    +0.000 OA
ATOM     16  C   UNL     1     106.189 128.567 143.651  0.00  0.00    +0.000 C 
ATOM     17  C   UNL     1     105.980 129.181 144.162  0.00  0.00    +0.000 C 
ATOM     18  C   UNL     1     105.242 129.466 143.929  0.00  0.00    +0.000 C 
ATOM     19  C   UNL     1     104.995 129.028 143.274  0.00  0.00    +0.000 C 
BRANCH  19  21
ATOM     20  O   UNL     1     104.129 128.673 142.193  0.00  0.00    +0.000 OA
ATOM     21  C   UNL     1     104.286 129.129 142.864  0.00  0.00    +0.000 C 
ENDBRANCH  19  21
ENDBRANCH  12  16
ENDBRANCH   5  12
ENDBRANCH   1   9
BRANCH   1  24
ATOM     22  O   UNL     1     107.789 124.185 141.278  0.00  0.00    +0.000 OA
ATOM     23  O   UNL     1     106.589 123.143 140.835  0.00  0.00    +0.000 OA
ATOM     24  C   UNL     1     106.871 125.277 141.197  0.00  0.00    +0.000 A 
ATOM     25  C   UNL     1     107.030 124.471 141.127  0.00  0.00    +0.000 A 
ATOM     26  C   UNL     1     106.112 125.563 141.046  0.00  0.00    +0.000 A 
ATOM     27  C   UNL     1     106.430 123.950 140.905  0.00  0.00    +0.000 A 
ATOM     28  C   UNL     1     105.512 125.043 140.824  0.00  0.00    +0.000 A 
ATOM     29  C   UNL     1     105.671 124.235 140.754  0.00  0.00    +0.000 A 
BRANCH  29  31
ATOM     30  O   UNL     1     104.846 123.105 141.040  0.00  0.00    +0.000 OA
ATOM     31  C   UNL     1     105.071 123.715 140.532  0.00  0.00    +0.000 C 
BRANCH  31  32
ATOM     32  C   UNL     1     104.696 123.805 139.803  0.00  0.00    +0.000 C 
ATOM     33  C   UNL     1     104.042 123.338 139.616  0.00  0.00    +0.000 C 
BRANCH  33  36
ATOM     34  O   UNL     1     101.670 123.832 138.099  0.00  0.00    +0.000 OA
ATOM     35  O   UNL     1     102.536 123.694 136.701  0.00  0.00    +0.000 OA
ATOM     36  C   UNL     1     103.666 123.427 138.887  0.00  0.00    +0.000 A 
ATOM     37  C   UNL     1     102.856 123.585 138.857  0.00  0.00    +0.000 A 
ATOM     38  C   UNL     1     104.099 123.358 138.188  0.00  0.00    +0.000 A 
ATOM     39  C   UNL     1     102.480 123.674 138.128  0.00  0.00    +0.000 A 
ATOM     40  C   UNL     1     103.721 123.447 137.459  0.00  0.00    +0.000 A 
ATOM     41  C   UNL     1     102.913 123.605 137.429  0.00  0.00    +0.000 A 
ENDBRANCH  33  36
ENDBRANCH  31  32
ENDBRANCH  29  31
ENDBRANCH   1  24
TORSDOF 9
ENDMDL
MODEL 4
REMARK VINA RESULT:      -9.2      8.476     10.853
REMARK  Name = 42607568
REMARK  9 active torsions:
REMARK  status: ('A' for Active; 'I' for Inactive)
REMARK    1  A    between atoms: O_1  and  C_16
REMARK    2  A    between atoms: O_1  and  C_19
REMARK    3  A    between atoms: O_7  and  C_24
REMARK    4  A    between atoms: O_7  and  C_27
REMARK    5  A    between atoms: C_18  and  C_25
REMARK    6  A    between atoms: C_23  and  C_26
REMARK    7  A    between atoms: C_32  and  C_33
REMARK    8  A    between atoms: C_33  and  C_34
REMARK    9  A    between atoms: C_35  and  C_36
REMARK                            x       y       z     vdW  Elec       q    Type
REMARK                         _______ _______ _______ _____ _____    ______ ____
ROOT
ATOM      1  O   UNL     1     106.438 126.986 144.106  0.00  0.00    +0.000 OA
ENDROOT
BRANCH   1   9
ATOM      2  O   UNL     1     106.592 126.130 145.240  0.00  0.00    +0.000 OA
ATOM      3  O   UNL     1     104.748 127.317 146.387  0.00  0.00    +0.000 OA
ATOM      4  O   UNL     1     105.208 127.777 144.871  0.00  0.00    +0.000 OA
ATOM      5  C   UNL     1     105.747 126.297 146.381  0.00  0.00    +0.000 C 
ATOM      6  C   UNL     1     105.362 126.922 146.005  0.00  0.00    +0.000 C 
ATOM      7  C   UNL     1     106.361 125.901 145.998  0.00  0.00    +0.000 C 
ATOM      8  C   UNL     1     105.592 127.152 145.247  0.00  0.00    +0.000 C 
ATOM      9  C   UNL     1     106.207 126.756 144.864  0.00  0.00    +0.000 C 
BRANCH   7  11
ATOM     10  O   UNL     1     107.568 125.208 146.329  0.00  0.00    +0.000 OA
ATOM     11  C   UNL     1     106.747 125.275 146.374  0.00  0.00    +0.000 C 
ENDBRANCH   7  11
BRANCH   5  12
ATOM     12  O   UNL     1     105.517 126.066 147.139  0.00  0.00    +0.000 OA
BRANCH  12  16
ATOM     13  O   UNL     1     104.475 125.160 146.636  0.00  0.00    +0.000 OA
ATOM     14  O   UNL     1     104.791 125.577 148.705  0.00  0.00    +0.000 OA
ATOM     15  O   UNL     1     103.450 124.434 148.362  0.00  0.00    +0.000 OA
ATOM     16  C   UNL     1     104.885 125.546 147.239  0.00  0.00    +0.000 C 
ATOM     17  C   UNL     1     104.550 125.321 147.959  0.00  0.00    +0.000 C 
ATOM     18  C   UNL     1     103.934 124.796 147.801  0.00  0.00    +0.000 C 
ATOM     19  C   UNL     1     103.888 124.696 146.984  0.00  0.00    +0.000 C 
BRANCH  19  21
ATOM     20  O   UNL     1     103.378 124.158 145.761  0.00  0.00    +0.000 OA
ATOM     21  C   UNL     1     103.349 124.216 146.584  0.00  0.00    +0.000 C 
ENDBRANCH  19  21
ENDBRANCH  12  16
ENDBRANCH   5  12
ENDBRANCH   1   9
BRANCH   1  24
ATOM     22  O   UNL     1     107.699 126.981 143.043  0.00  0.00    +0.000 OA
ATOM     23  O   UNL     1     107.745 125.872 141.822  0.00  0.00    +0.000 OA
ATOM     24  C   UNL     1     106.460 126.431 143.496  0.00  0.00    +0.000 A 
ATOM     25  C   UNL     1     107.091 126.429 142.965  0.00  0.00    +0.000 A 
ATOM     26  C   UNL     1     105.852 125.879 143.418  0.00  0.00    +0.000 A 
ATOM     27  C   UNL     1     107.114 125.874 142.354  0.00  0.00    +0.000 A 
ATOM     28  C   UNL     1     105.875 125.325 142.807  0.00  0.00    +0.000 A 
ATOM     29  C   UNL     1     106.506 125.322 142.275  0.00  0.00    +0.000 A 
BRANCH  29  31
ATOM     30  O   UNL     1     107.163 124.244 141.607  0.00  0.00    +0.000 OA
ATOM     31  C   UNL     1     106.529 124.768 141.665  0.00  0.00    +0.000 C 
BRANCH  31  32
ATOM     32  C   UNL     1     105.917 124.737 141.113  0.00  0.00    +0.000 C 
ATOM     33  C   UNL     1     105.896 124.131 140.553  0.00  0.00    +0.000 C 
BRANCH  33  36
ATOM     34  O   UNL     1     103.421 123.013 139.663  0.00  0.00    +0.000 OA
ATOM     35  O   UNL     1     103.448 124.004 138.344  0.00  0.00    +0.000 OA
ATOM     36  C   UNL     1     105.285 124.100 140.000  0.00  0.00    +0.000 A 
ATOM     37  C   UNL     1     104.659 123.572 140.108  0.00  0.00    +0.000 A 
ATOM     38  C   UNL     1     105.298 124.595 139.341  0.00  0.00    +0.000 A 
ATOM     39  C   UNL     1     104.047 123.541 139.555  0.00  0.00    +0.000 A 
ATOM     40  C   UNL     1     104.686 124.563 138.789  0.00  0.00    +0.000 A 
ATOM     41  C   UNL     1     104.061 124.036 138.896  0.00  0.00    +0.000 A 
ENDBRANCH  33  36
ENDBRANCH  31  32
ENDBRANCH  29  31
ENDBRANCH   1  24
TORSDOF 9
ENDMDL
MODEL 5
REMARK VINA RESULT:      -9.1      1.182      6.000
REMARK  Name = 42607568
REMARK  9 active torsions:
REMARK  status: ('A' for Active; 'I' for Inactive)
REMARK    1  A    between atoms: O_1  and  C_16
REMARK    2  A    between atoms: O_1  and  C_19
REMARK    3  A    between atoms: O_7  and  C_24
REMARK    4  A    between atoms: O_7  and  C_27
REMARK    5  A    between atoms: C_18  and  C_25
REMARK    6  A    between atoms: C_23  and  C_26
REMARK    7  A    between atoms: C_32  and  C_33
REMARK    8  A    between atoms: C_33  and  C_34
REMARK    9  A    between atoms: C_35  and  C_36
REMARK                            x       y       z     vdW  Elec       q    Type
REMARK                         _______ _______ _______ _____ _____    ______ ____
ROOT
ATOM      1  O   UNL     1     109.082 127.837 135.472  0.00  0.00    +0.000 OA
ENDROOT
BRANCH   1   9
ATOM      2  O   UNL     1     110.079 128.860 135.420  0.00  0.00    +0.000 OA
ATOM      3  O   UNL     1     108.407 130.526 136.163  0.00  0.00    +0.000 OA
ATOM      4  O   UNL     1     107.968 128.948 135.967  0.00  0.00    +0.000 OA
ATOM      5  C   UNL     1     109.741 130.205 135.766  0.00  0.00    +0.000 C 
ATOM      6  C   UNL     1     108.964 129.971 135.916  0.00  0.00    +0.000 C 
ATOM      7  C   UNL     1     110.298 129.649 135.519  0.00  0.00    +0.000 C 
ATOM      8  C   UNL     1     108.744 129.182 135.818  0.00  0.00    +0.000 C 
ATOM      9  C   UNL     1     109.301 128.626 135.570  0.00  0.00    +0.000 C 
BRANCH   7  11
ATOM     10  O   UNL     1     111.507 129.519 134.767  0.00  0.00    +0.000 OA
ATOM     11  C   UNL     1     111.076 129.883 135.369  0.00  0.00    +0.000 C 
ENDBRANCH   7  11
BRANCH   5  12
ATOM     12  O   UNL     1     109.961 130.994 135.864  0.00  0.00    +0.000 OA
BRANCH  12  16
ATOM     13  O   UNL     1     110.293 130.821 137.286  0.00  0.00    +0.000 OA
ATOM     14  O   UNL     1     110.138 132.720 136.321  0.00  0.00    +0.000 OA
ATOM     15  O   UNL     1     110.557 132.791 138.065  0.00  0.00    +0.000 OA
ATOM     16  C   UNL     1     110.151 131.279 136.614  0.00  0.00    +0.000 C 
ATOM     17  C   UNL     1     110.233 132.073 136.825  0.00  0.00    +0.000 C 
ATOM     18  C   UNL     1     110.425 132.106 137.626  0.00  0.00    +0.000 C 
ATOM     19  C   UNL     1     110.462 131.332 137.911  0.00  0.00    +0.000 C 
BRANCH  19  21
ATOM     20  O   UNL     1     110.962 130.365 138.837  0.00  0.00    +0.000 OA
ATOM     21  C   UNL     1     110.638 131.109 138.686  0.00  0.00    +0.000 C 
ENDBRANCH  19  21
ENDBRANCH  12  16
ENDBRANCH   5  12
ENDBRANCH   1   9
BRANCH   1  24
ATOM     22  O   UNL     1     109.425 126.471 134.612  0.00  0.00    +0.000 OA
ATOM     23  O   UNL     1     110.329 125.271 135.296  0.00  0.00    +0.000 OA
ATOM     24  C   UNL     1     109.534 127.237 135.813  0.00  0.00    +0.000 A 
ATOM     25  C   UNL     1     109.705 126.555 135.384  0.00  0.00    +0.000 A 
ATOM     26  C   UNL     1     109.815 127.321 136.585  0.00  0.00    +0.000 A 
ATOM     27  C   UNL     1     110.157 125.955 135.725  0.00  0.00    +0.000 A 
ATOM     28  C   UNL     1     110.267 126.722 136.926  0.00  0.00    +0.000 A 
ATOM     29  C   UNL     1     110.439 126.038 136.496  0.00  0.00    +0.000 A 
BRANCH  29  31
ATOM     30  O   UNL     1     110.520 124.812 137.225  0.00  0.00    +0.000 OA
ATOM     31  C   UNL     1     110.891 125.438 136.838  0.00  0.00    +0.000 C 
BRANCH  31  32
ATOM     32  C   UNL     1     111.714 125.466 136.791  0.00  0.00    +0.000 C 
ATOM     33  C   UNL     1     112.169 124.922 137.214  0.00  0.00    +0.000 C 
BRANCH  33  36
ATOM     34  O   UNL     1     114.685 125.691 138.329  0.00  0.00    +0.000 OA
ATOM     35  O   UNL     1     115.462 125.029 137.033  0.00  0.00    +0.000 OA
ATOM     36  C   UNL     1     112.992 124.948 137.168  0.00  0.00    +0.000 A 
ATOM     37  C   UNL     1     113.427 125.307 137.771  0.00  0.00    +0.000 A 
ATOM     38  C   UNL     1     113.380 124.617 136.520  0.00  0.00    +0.000 A 
ATOM     39  C   UNL     1     114.250 125.333 137.725  0.00  0.00    +0.000 A 
ATOM     40  C   UNL     1     114.204 124.644 136.475  0.00  0.00    +0.000 A 
ATOM     41  C   UNL     1     114.639 125.002 137.077  0.00  0.00    +0.000 A 
ENDBRANCH  33  36
ENDBRANCH  31  32
ENDBRANCH  29  31
ENDBRANCH   1  24
TORSDOF 9
ENDMDL
MODEL 6
REMARK VINA RESULT:      -9.1      9.195     10.908
REMARK  Name = 42607568
REMARK  9 active torsions:
REMARK  status: ('A' for Active; 'I' for Inactive)
REMARK    1  A    between atoms: O_1  and  C_16
REMARK    2  A    between atoms: O_1  and  C_19
REMARK    3  A    between atoms: O_7  and  C_24
REMARK    4  A    between atoms: O_7  and  C_27
REMARK    5  A    between atoms: C_18  and  C_25
REMARK    6  A    between atoms: C_23  and  C_26
REMARK    7  A    between atoms: C_32  and  C_33
REMARK    8  A    between atoms: C_33  and  C_34
REMARK    9  A    between atoms: C_35  and  C_36
REMARK                            x       y       z     vdW  Elec       q    Type
REMARK                         _______ _______ _______ _____ _____    ______ ____
ROOT
ATOM      1  O   UNL     1     106.903 126.293 145.090  0.00  0.00    +0.000 OA
ENDROOT
BRANCH   1   9
ATOM      2  O   UNL     1     105.863 126.640 146.006  0.00  0.00    +0.000 OA
ATOM      3  O   UNL     1     106.074 124.424 147.087  0.00  0.00    +0.000 OA
ATOM      4  O   UNL     1     107.043 124.815 145.810  0.00  0.00    +0.000 OA
ATOM      5  C   UNL     1     105.449 125.706 147.005  0.00  0.00    +0.000 C 
ATOM      6  C   UNL     1     106.004 125.163 146.727  0.00  0.00    +0.000 C 
ATOM      7  C   UNL     1     105.379 126.444 146.644  0.00  0.00    +0.000 C 
ATOM      8  C   UNL     1     106.489 125.358 146.088  0.00  0.00    +0.000 C 
ATOM      9  C   UNL     1     106.419 126.097 145.728  0.00  0.00    +0.000 C 
BRANCH   7  11
ATOM     10  O   UNL     1     105.026 127.785 146.995  0.00  0.00    +0.000 OA
ATOM     11  C   UNL     1     104.823 126.988 146.923  0.00  0.00    +0.000 C 
ENDBRANCH   7  11
BRANCH   5  12
ATOM     12  O   UNL     1     104.964 125.511 147.643  0.00  0.00    +0.000 OA
BRANCH  12  16
ATOM     13  O   UNL     1     103.964 124.851 146.792  0.00  0.00    +0.000 OA
ATOM     14  O   UNL     1     103.932 124.797 148.926  0.00  0.00    +0.000 OA
ATOM     15  O   UNL     1     102.592 123.907 148.129  0.00  0.00    +0.000 OA
ATOM     16  C   UNL     1     104.286 125.057 147.523  0.00  0.00    +0.000 C 
ATOM     17  C   UNL     1     103.811 124.728 148.113  0.00  0.00    +0.000 C 
ATOM     18  C   UNL     1     103.196 124.319 147.746  0.00  0.00    +0.000 C 
ATOM     19  C   UNL     1     103.290 124.395 146.930  0.00  0.00    +0.000 C 
BRANCH  19  21
ATOM     20  O   UNL     1     103.073 123.972 145.582  0.00  0.00    +0.000 OA
ATOM     21  C   UNL     1     102.796 124.072 146.353  0.00  0.00    +0.000 C 
ENDBRANCH  19  21
ENDBRANCH  12  16
ENDBRANCH   5  12
ENDBRANCH   1   9
BRANCH   1  24
ATOM     22  O   UNL     1     107.603 127.588 144.345  0.00  0.00    +0.000 OA
ATOM     23  O   UNL     1     106.942 128.202 142.964  0.00  0.00    +0.000 OA
ATOM     24  C   UNL     1     106.572 126.600 144.399  0.00  0.00    +0.000 A 
ATOM     25  C   UNL     1     106.922 127.247 144.027  0.00  0.00    +0.000 A 
ATOM     26  C   UNL     1     105.891 126.259 144.082  0.00  0.00    +0.000 A 
ATOM     27  C   UNL     1     106.591 127.554 143.337  0.00  0.00    +0.000 A 
ATOM     28  C   UNL     1     105.560 126.566 143.391  0.00  0.00    +0.000 A 
ATOM     29  C   UNL     1     105.911 127.214 143.018  0.00  0.00    +0.000 A 
BRANCH  29  31
ATOM     30  O   UNL     1     105.826 127.241 141.593  0.00  0.00    +0.000 OA
ATOM     31  C   UNL     1     105.580 127.521 142.328  0.00  0.00    +0.000 C 
BRANCH  31  32
ATOM     32  C   UNL     1     105.003 128.109 142.373  0.00  0.00    +0.000 C 
ATOM     33  C   UNL     1     104.583 128.328 141.698  0.00  0.00    +0.000 C 
BRANCH  33  36
ATOM     34  O   UNL     1     102.412 129.758 140.510  0.00  0.00    +0.000 OA
ATOM     35  O   UNL     1     102.273 130.678 141.873  0.00  0.00    +0.000 OA
ATOM     36  C   UNL     1     104.006 128.915 141.742  0.00  0.00    +0.000 A 
ATOM     37  C   UNL     1     103.497 129.043 141.104  0.00  0.00    +0.000 A 
ATOM     38  C   UNL     1     103.936 129.376 142.423  0.00  0.00    +0.000 A 
ATOM     39  C   UNL     1     102.920 129.630 141.148  0.00  0.00    +0.000 A 
ATOM     40  C   UNL     1     103.358 129.963 142.466  0.00  0.00    +0.000 A 
ATOM     41  C   UNL     1     102.851 130.090 141.830  0.00  0.00    +0.000 A 
ENDBRANCH  33  36
ENDBRANCH  31  32
ENDBRANCH  29  31
ENDBRANCH   1  24
TORSDOF 9
ENDMDL
MODEL 7
REMARK VINA RESULT:      -9.0      9.290     10.979
REMARK  Name = 42607568
REMARK  9 active torsions:
REMARK  status: ('A' for Active; 'I' for Inactive)
REMARK    1  A    between atoms: O_1  and  C_16
REMARK    2  A    between atoms: O_1  and  C_19
REMARK    3  A    between atoms: O_7  and  C_24
REMARK    4  A    between atoms: O_7  and  C_27
REMARK    5  A    between atoms: C_18  and  C_25
REMARK    6  A    between atoms: C_23  and  C_26
REMARK    7  A    between atoms: C_32  and  C_33
REMARK    8  A    between atoms: C_33  and  C_34
REMARK    9  A    between atoms: C_35  and  C_36
REMARK                            x       y       z     vdW  Elec       q    Type
REMARK                         _______ _______ _______ _____ _____    ______ ____
ROOT
ATOM      1  O   UNL     1     106.306 124.851 144.809  0.00  0.00    +0.000 OA
ENDROOT
BRANCH   1   9
ATOM      2  O   UNL     1     105.116 124.937 145.596  0.00  0.00    +0.000 OA
ATOM      3  O   UNL     1     106.488 125.145 147.646  0.00  0.00    +0.000 OA
ATOM      4  O   UNL     1     107.220 124.989 146.175  0.00  0.00    +0.000 OA
ATOM      5  C   UNL     1     105.208 125.084 147.015  0.00  0.00    +0.000 C 
ATOM      6  C   UNL     1     106.031 125.076 146.963  0.00  0.00    +0.000 C 
ATOM      7  C   UNL     1     104.751 125.015 146.332  0.00  0.00    +0.000 C 
ATOM      8  C   UNL     1     106.398 124.998 146.228  0.00  0.00    +0.000 C 
ATOM      9  C   UNL     1     105.940 124.928 145.544  0.00  0.00    +0.000 C 
BRANCH   7  11
ATOM     10  O   UNL     1     103.479 124.512 145.916  0.00  0.00    +0.000 OA
ATOM     11  C   UNL     1     103.927 125.023 146.383  0.00  0.00    +0.000 C 
ENDBRANCH   7  11
BRANCH   5  12
ATOM     12  O   UNL     1     104.841 125.162 147.750  0.00  0.00    +0.000 OA
BRANCH  12  16
ATOM     13  O   UNL     1     104.862 126.630 147.698  0.00  0.00    +0.000 OA
ATOM     14  O   UNL     1     104.253 125.508 149.409  0.00  0.00    +0.000 OA
ATOM     15  O   UNL     1     104.184 127.290 149.612  0.00  0.00    +0.000 OA
ATOM     16  C   UNL     1     104.726 125.910 148.077  0.00  0.00    +0.000 C 
ATOM     17  C   UNL     1     104.456 126.070 148.840  0.00  0.00    +0.000 C 
ATOM     18  C   UNL     1     104.424 126.889 148.933  0.00  0.00    +0.000 C 
ATOM     19  C   UNL     1     104.675 127.235 148.228  0.00  0.00    +0.000 C 
BRANCH  19  21
ATOM     20  O   UNL     1     105.415 128.357 147.743  0.00  0.00    +0.000 OA
ATOM     21  C   UNL     1     104.729 128.045 148.078  0.00  0.00    +0.000 C 
ENDBRANCH  19  21
ENDBRANCH  12  16
ENDBRANCH   5  12
ENDBRANCH   1   9
BRANCH   1  24
ATOM     22  O   UNL     1     105.844 124.396 143.291  0.00  0.00    +0.000 OA
ATOM     23  O   UNL     1     105.605 125.538 142.125  0.00  0.00    +0.000 OA
ATOM     24  C   UNL     1     106.186 125.422 144.226  0.00  0.00    +0.000 A 
ATOM     25  C   UNL     1     105.956 125.194 143.468  0.00  0.00    +0.000 A 
ATOM     26  C   UNL     1     106.297 126.220 144.402  0.00  0.00    +0.000 A 
ATOM     27  C   UNL     1     105.836 125.766 142.884  0.00  0.00    +0.000 A 
ATOM     28  C   UNL     1     106.178 126.791 143.819  0.00  0.00    +0.000 A 
ATOM     29  C   UNL     1     105.947 126.564 143.059  0.00  0.00    +0.000 A 
BRANCH  29  31
ATOM     30  O   UNL     1     106.354 127.197 141.845  0.00  0.00    +0.000 OA
ATOM     31  C   UNL     1     105.827 127.135 142.476  0.00  0.00    +0.000 C 
BRANCH  31  32
ATOM     32  C   UNL     1     105.179 127.644 142.525  0.00  0.00    +0.000 C 
ATOM     33  C   UNL     1     105.160 128.331 142.069  0.00  0.00    +0.000 C 
BRANCH  33  36
ATOM     34  O   UNL     1     102.790 129.435 140.914  0.00  0.00    +0.000 OA
ATOM     35  O   UNL     1     102.571 130.369 142.257  0.00  0.00    +0.000 OA
ATOM     36  C   UNL     1     104.513 128.841 142.116  0.00  0.00    +0.000 A 
ATOM     37  C   UNL     1     103.975 128.883 141.491  0.00  0.00    +0.000 A 
ATOM     38  C   UNL     1     104.404 129.308 142.787  0.00  0.00    +0.000 A 
ATOM     39  C   UNL     1     103.328 129.393 141.539  0.00  0.00    +0.000 A 
ATOM     40  C   UNL     1     103.757 129.817 142.834  0.00  0.00    +0.000 A 
ATOM     41  C   UNL     1     103.219 129.860 142.210  0.00  0.00    +0.000 A 
ENDBRANCH  33  36
ENDBRANCH  31  32
ENDBRANCH  29  31
ENDBRANCH   1  24
TORSDOF 9
ENDMDL
MODEL 8
REMARK VINA RESULT:      -8.9      1.978      3.386
REMARK  Name = 42607568
REMARK  9 active torsions:
REMARK  status: ('A' for Active; 'I' for Inactive)
REMARK    1  A    between atoms: O_1  and  C_16
REMARK    2  A    between atoms: O_1  and  C_19
REMARK    3  A    between atoms: O_7  and  C_24
REMARK    4  A    between atoms: O_7  and  C_27
REMARK    5  A    between atoms: C_18  and  C_25
REMARK    6  A    between atoms: C_23  and  C_26
REMARK    7  A    between atoms: C_32  and  C_33
REMARK    8  A    between atoms: C_33  and  C_34
REMARK    9  A    between atoms: C_35  and  C_36
REMARK                            x       y       z     vdW  Elec       q    Type
REMARK                         _______ _______ _______ _____ _____    ______ ____
ROOT
ATOM      1  O   UNL     1     112.742 129.036 138.501  0.00  0.00    +0.000 OA
ENDROOT
BRANCH   1   9
ATOM      2  O   UNL     1     112.373 128.121 137.468  0.00  0.00    +0.000 OA
ATOM      3  O   UNL     1     112.204 126.303 139.138  0.00  0.00    +0.000 OA
ATOM      4  O   UNL     1     112.630 127.824 139.615  0.00  0.00    +0.000 OA
ATOM      5  C   UNL     1     112.104 126.754 137.787  0.00  0.00    +0.000 C 
ATOM      6  C   UNL     1     112.261 126.909 138.582  0.00  0.00    +0.000 C 
ATOM      7  C   UNL     1     112.161 127.360 137.230  0.00  0.00    +0.000 C 
ATOM      8  C   UNL     1     112.473 127.670 138.821  0.00  0.00    +0.000 C 
ATOM      9  C   UNL     1     112.530 128.276 138.264  0.00  0.00    +0.000 C 
BRANCH   7  11
ATOM     10  O   UNL     1     112.216 127.757 135.858  0.00  0.00    +0.000 OA
ATOM     11  C   UNL     1     112.004 127.206 136.434  0.00  0.00    +0.000 C 
ENDBRANCH   7  11
BRANCH   5  12
ATOM     12  O   UNL     1     111.892 125.994 137.548  0.00  0.00    +0.000 OA
BRANCH  12  16
ATOM     13  O   UNL     1     113.289 125.550 137.449  0.00  0.00    +0.000 OA
ATOM     14  O   UNL     1     111.610 124.293 137.049  0.00  0.00    +0.000 OA
ATOM     15  O   UNL     1     113.209 123.501 136.854  0.00  0.00    +0.000 OA
ATOM     16  C   UNL     1     112.474 125.430 137.397  0.00  0.00    +0.000 C 
ATOM     17  C   UNL     1     112.346 124.648 137.168  0.00  0.00    +0.000 C 
ATOM     18  C   UNL     1     113.080 124.284 137.078  0.00  0.00    +0.000 C 
ATOM     19  C   UNL     1     113.663 124.841 137.252  0.00  0.00    +0.000 C 
BRANCH  19  21
ATOM     20  O   UNL     1     114.978 125.151 137.721  0.00  0.00    +0.000 OA
ATOM     21  C   UNL     1     114.478 124.712 137.232  0.00  0.00    +0.000 C 
ENDBRANCH  19  21
ENDBRANCH  12  16
ENDBRANCH   5  12
ENDBRANCH   1   9
BRANCH   1  24
ATOM     22  O   UNL     1     113.363 130.396 137.803  0.00  0.00    +0.000 OA
ATOM     23  O   UNL     1     112.376 131.674 137.464  0.00  0.00    +0.000 OA
ATOM     24  C   UNL     1     112.248 129.675 138.332  0.00  0.00    +0.000 A 
ATOM     25  C   UNL     1     112.559 130.355 137.983  0.00  0.00    +0.000 A 
ATOM     26  C   UNL     1     111.444 129.633 138.512  0.00  0.00    +0.000 A 
ATOM     27  C   UNL     1     112.065 130.993 137.813  0.00  0.00    +0.000 A 
ATOM     28  C   UNL     1     110.950 130.272 138.342  0.00  0.00    +0.000 A 
ATOM     29  C   UNL     1     111.261 130.953 137.992  0.00  0.00    +0.000 A 
BRANCH  29  31
ATOM     30  O   UNL     1     110.805 132.275 138.283  0.00  0.00    +0.000 OA
ATOM     31  C   UNL     1     110.767 131.592 137.823  0.00  0.00    +0.000 C 
BRANCH  31  32
ATOM     32  C   UNL     1     110.236 131.546 137.193  0.00  0.00    +0.000 C 
ATOM     33  C   UNL     1     109.625 132.097 137.128  0.00  0.00    +0.000 C 
BRANCH  33  36
ATOM     34  O   UNL     1     107.062 131.358 136.102  0.00  0.00    +0.000 OA
ATOM     35  O   UNL     1     107.498 131.918 134.612  0.00  0.00    +0.000 OA
ATOM     36  C   UNL     1     109.094 132.052 136.499  0.00  0.00    +0.000 A 
ATOM     37  C   UNL     1     108.344 131.727 136.615  0.00  0.00    +0.000 A 
ATOM     38  C   UNL     1     109.312 132.332 135.754  0.00  0.00    +0.000 A 
ATOM     39  C   UNL     1     107.812 131.683 135.986  0.00  0.00    +0.000 A 
ATOM     40  C   UNL     1     108.779 132.287 135.125  0.00  0.00    +0.000 A 
ATOM     41  C   UNL     1     108.030 131.963 135.241  0.00  0.00    +0.000 A 
ENDBRANCH  33  36
ENDBRANCH  31  32
ENDBRANCH  29  31
ENDBRANCH   1  24
TORSDOF 9
ENDMDL
MODEL 9
REMARK VINA RESULT:      -8.9      1.657      2.269
REMARK  Name = 42607568
REMARK  9 active torsions:
REMARK  status: ('A' for Active; 'I' for Inactive)
REMARK    1  A    between atoms: O_1  and  C_16
REMARK    2  A    between atoms: O_1  and  C_19
REMARK    3  A    between atoms: O_7  and  C_24
REMARK    4  A    between atoms: O_7  and  C_27
REMARK    5  A    between atoms: C_18  and  C_25
REMARK    6  A    between atoms: C_23  and  C_26
REMARK    7  A    between atoms: C_32  and  C_33
REMARK    8  A    between atoms: C_33  and  C_34
REMARK    9  A    between atoms: C_35  and  C_36
REMARK                            x       y       z     vdW  Elec       q    Type
REMARK                         _______ _______ _______ _____ _____    ______ ____
ROOT
ATOM      1  O   UNL     1     109.694 126.615 136.702  0.00  0.00    +0.000 OA
ENDROOT
BRANCH   1   9
ATOM      2  O   UNL     1     109.728 126.831 138.114  0.00  0.00    +0.000 OA
ATOM      3  O   UNL     1     111.521 125.138 138.331  0.00  0.00    +0.000 OA
ATOM      4  O   UNL     1     110.890 125.486 136.846  0.00  0.00    +0.000 OA
ATOM      5  C   UNL     1     110.642 126.092 138.928  0.00  0.00    +0.000 C 
ATOM      6  C   UNL     1     110.924 125.702 138.259  0.00  0.00    +0.000 C 
ATOM      7  C   UNL     1     110.045 126.656 138.856  0.00  0.00    +0.000 C 
ATOM      8  C   UNL     1     110.608 125.876 137.516  0.00  0.00    +0.000 C 
ATOM      9  C   UNL     1     110.011 126.440 137.444  0.00  0.00    +0.000 C 
BRANCH   7  11
ATOM     10  O   UNL     1     108.961 127.234 139.589  0.00  0.00    +0.000 OA
ATOM     11  C   UNL     1     109.762 127.047 139.527  0.00  0.00    +0.000 C 
ENDBRANCH   7  11
BRANCH   5  12
ATOM     12  O   UNL     1     110.958 125.919 139.671  0.00  0.00    +0.000 OA
BRANCH  12  16
ATOM     13  O   UNL     1     112.123 126.795 139.485  0.00  0.00    +0.000 OA
ATOM     14  O   UNL     1     111.567 125.934 141.358  0.00  0.00    +0.000 OA
ATOM     15  O   UNL     1     113.034 126.967 141.408  0.00  0.00    +0.000 OA
ATOM     16  C   UNL     1     111.622 126.324 139.942  0.00  0.00    +0.000 C 
ATOM     17  C   UNL     1     111.903 126.332 140.718  0.00  0.00    +0.000 C 
ATOM     18  C   UNL     1     112.577 126.806 140.741  0.00  0.00    +0.000 C 
ATOM     19  C   UNL     1     112.713 127.092 139.979  0.00  0.00    +0.000 C 
BRANCH  19  21
ATOM     20  O   UNL     1     113.284 128.009 139.042  0.00  0.00    +0.000 OA
ATOM     21  C   UNL     1     113.331 127.589 139.751  0.00  0.00    +0.000 C 
ENDBRANCH  19  21
ENDBRANCH  12  16
ENDBRANCH   5  12
ENDBRANCH   1   9
BRANCH   1  24
ATOM     22  O   UNL     1     108.221 127.152 136.188  0.00  0.00    +0.000 OA
ATOM     23  O   UNL     1     108.034 128.723 135.719  0.00  0.00    +0.000 OA
ATOM     24  C   UNL     1     109.601 127.400 136.467  0.00  0.00    +0.000 A 
ATOM     25  C   UNL     1     108.865 127.668 136.211  0.00  0.00    +0.000 A 
ATOM     26  C   UNL     1     110.244 127.916 136.490  0.00  0.00    +0.000 A 
ATOM     27  C   UNL     1     108.771 128.453 135.976  0.00  0.00    +0.000 A 
ATOM     28  C   UNL     1     110.151 128.701 136.255  0.00  0.00    +0.000 A 
ATOM     29  C   UNL     1     109.414 128.970 135.998  0.00  0.00    +0.000 A 
BRANCH  29  31
ATOM     30  O   UNL     1     109.028 129.929 135.012  0.00  0.00    +0.000 OA
ATOM     31  C   UNL     1     109.320 129.756 135.763  0.00  0.00    +0.000 C 
BRANCH  31  32
ATOM     32  C   UNL     1     109.519 130.367 136.280  0.00  0.00    +0.000 C 
ATOM     33  C   UNL     1     109.374 131.151 136.067  0.00  0.00    +0.000 C 
BRANCH  33  36
ATOM     34  O   UNL     1     110.820 133.555 136.615  0.00  0.00    +0.000 OA
ATOM     35  O   UNL     1     110.169 133.600 138.131  0.00  0.00    +0.000 OA
ATOM     36  C   UNL     1     109.573 131.763 136.583  0.00  0.00    +0.000 A 
ATOM     37  C   UNL     1     110.097 132.353 136.341  0.00  0.00    +0.000 A 
ATOM     38  C   UNL     1     109.247 131.785 137.341  0.00  0.00    +0.000 A 
ATOM     39  C   UNL     1     110.295 132.965 136.858  0.00  0.00    +0.000 A 
ATOM     40  C   UNL     1     109.446 132.398 137.857  0.00  0.00    +0.000 A 
ATOM     41  C   UNL     1     109.970 132.987 137.615  0.00  0.00    +0.000 A 
ENDBRANCH  33  36
ENDBRANCH  31  32
ENDBRANCH  29  31
ENDBRANCH   1  24
TORSDOF 9
ENDMDL
MODEL 10
REMARK VINA RESULT:      -8.9      9.093     11.292
REMARK  Name = 42607568
REMARK  9 active torsions:
REMARK  status: ('A' for Active; 'I' for Inactive)
REMARK    1  A    between atoms: O_1  and  C_16
REMARK    2  A    between atoms: O_1  and  C_19
REMARK    3  A    between atoms: O_7  and  C_24
REMARK    4  A    between atoms: O_7  and  C_27
REMARK    5  A    between atoms: C_18  and  C_25
REMARK    6  A    between atoms: C_23  and  C_26
REMARK    7  A    between atoms: C_32  and  C_33
REMARK    8  A    between atoms: C_33  and  C_34
REMARK    9  A    between atoms: C_35  and  C_36
REMARK                            x       y       z     vdW  Elec       q    Type
REMARK                         _______ _______ _______ _____ _____    ______ ____
ROOT
ATOM      1  O   UNL     1     107.031 126.753 145.913  0.00  0.00    +0.000 OA
ENDROOT
BRANCH   1   9
ATOM      2  O   UNL     1     106.802 126.570 144.515  0.00  0.00    +0.000 OA
ATOM      3  O   UNL     1     106.853 129.023 144.186  0.00  0.00    +0.000 OA
ATOM      4  O   UNL     1     107.065 128.388 145.694  0.00  0.00    +0.000 OA
ATOM      5  C   UNL     1     106.713 127.706 143.652  0.00  0.00    +0.000 C 
ATOM      6  C   UNL     1     106.836 128.205 144.296  0.00  0.00    +0.000 C 
ATOM      7  C   UNL     1     106.696 126.888 143.761  0.00  0.00    +0.000 C 
ATOM      8  C   UNL     1     106.942 127.888 145.050  0.00  0.00    +0.000 C 
ATOM      9  C   UNL     1     106.925 127.071 145.160  0.00  0.00    +0.000 C 
BRANCH   7  11
ATOM     10  O   UNL     1     106.588 125.569 143.220  0.00  0.00    +0.000 OA
ATOM     11  C   UNL     1     106.573 126.388 143.116  0.00  0.00    +0.000 C 
ENDBRANCH   7  11
BRANCH   5  12
ATOM     12  O   UNL     1     106.607 128.023 142.897  0.00  0.00    +0.000 OA
BRANCH  12  16
ATOM     13  O   UNL     1     108.050 128.078 142.626  0.00  0.00    +0.000 OA
ATOM     14  O   UNL     1     106.565 128.910 141.338  0.00  0.00    +0.000 OA
ATOM     15  O   UNL     1     108.255 129.117 140.772  0.00  0.00    +0.000 OA
ATOM     16  C   UNL     1     107.261 128.236 142.443  0.00  0.00    +0.000 C 
ATOM     17  C   UNL     1     107.242 128.644 141.726  0.00  0.00    +0.000 C 
ATOM     18  C   UNL     1     108.019 128.739 141.466  0.00  0.00    +0.000 C 
ATOM     19  C   UNL     1     108.518 128.389 142.022  0.00  0.00    +0.000 C 
BRANCH  19  21
ATOM     20  O   UNL     1     109.754 127.784 142.409  0.00  0.00    +0.000 OA
ATOM     21  C   UNL     1     109.342 128.357 141.981  0.00  0.00    +0.000 C 
ENDBRANCH  19  21
ENDBRANCH  12  16
ENDBRANCH   5  12
ENDBRANCH   1   9
BRANCH   1  24
ATOM     22  O   UNL     1     107.450 125.287 146.545  0.00  0.00    +0.000 OA
ATOM     23  O   UNL     1     106.292 124.310 147.199  0.00  0.00    +0.000 OA
ATOM     24  C   UNL     1     106.452 126.264 146.241  0.00  0.00    +0.000 A 
ATOM     25  C   UNL     1     106.662 125.532 146.556  0.00  0.00    +0.000 A 
ATOM     26  C   UNL     1     105.665 126.509 146.252  0.00  0.00    +0.000 A 
ATOM     27  C   UNL     1     106.083 125.043 146.883  0.00  0.00    +0.000 A 
ATOM     28  C   UNL     1     105.086 126.021 146.579  0.00  0.00    +0.000 A 
ATOM     29  C   UNL     1     105.295 125.287 146.895  0.00  0.00    +0.000 A 
BRANCH  29  31
ATOM     30  O   UNL     1     104.722 124.637 148.031  0.00  0.00    +0.000 OA
ATOM     31  C   UNL     1     104.716 124.798 147.222  0.00  0.00    +0.000 C 
BRANCH  31  32
ATOM     32  C   UNL     1     104.132 124.471 146.740  0.00  0.00    +0.000 C 
ATOM     33  C   UNL     1     103.510 124.048 147.077  0.00  0.00    +0.000 C 
BRANCH  33  36
ATOM     34  O   UNL     1     100.811 124.014 146.137  0.00  0.00    +0.000 OA
ATOM     35  O   UNL     1     101.169 122.739 145.153  0.00  0.00    +0.000 OA
ATOM     36  C   UNL     1     102.925 123.720 146.596  0.00  0.00    +0.000 A 
ATOM     37  C   UNL     1     102.160 124.031 146.607  0.00  0.00    +0.000 A 
ATOM     38  C   UNL     1     103.104 123.083 146.103  0.00  0.00    +0.000 A 
ATOM     39  C   UNL     1     101.576 123.703 146.126  0.00  0.00    +0.000 A 
ATOM     40  C   UNL     1     102.519 122.756 145.622  0.00  0.00    +0.000 A 
ATOM     41  C   UNL     1     101.755 123.066 145.634  0.00  0.00    +0.000 A 
ENDBRANCH  33  36
ENDBRANCH  31  32
ENDBRANCH  29  31
ENDBRANCH   1  24
TORSDOF 9
ENDMDL
