MODEL 1
REMARK VINA RESULT:     -10.3      0.000      0.000
REMARK  Name = 44258527
REMARK  3 active torsions:
REMARK  status: ('A' for Active; 'I' for Inactive)
REMARK    1  A    between atoms: O_2  and  C_17
REMARK    2  A    between atoms: O_2  and  C_19
REMARK    3  A    between atoms: C_26  and  C_28
REMARK                            x       y       z     vdW  Elec       q    Type
REMARK                         _______ _______ _______ _____ _____    ______ ____
ROOT
ATOM      1  O   UNL     1     104.330 123.657 139.976  0.00  0.00    +0.000 OA
ATOM      2  O   UNL     1     106.381 124.430 142.489  0.00  0.00    +0.000 OA
ATOM      3  O   UNL     1     105.114 123.402 142.737  0.00  0.00    +0.000 OA
ATOM      4  O   UNL     1     106.277 125.233 139.605  0.00  0.00    +0.000 OA
ATOM      5  C   UNL     1     106.003 124.565 141.117  0.00  0.00    +0.000 A 
ATOM      6  C   UNL     1     105.497 124.376 140.494  0.00  0.00    +0.000 A 
ATOM      7  C   UNL     1     105.875 124.240 141.866  0.00  0.00    +0.000 A 
ATOM      8  C   UNL     1     104.864 123.862 140.618  0.00  0.00    +0.000 A 
ATOM      9  C   UNL     1     105.641 124.720 139.720  0.00  0.00    +0.000 A 
ATOM     10  C   UNL     1     105.242 123.727 141.989  0.00  0.00    +0.000 A 
ATOM     11  C   UNL     1     104.736 123.538 141.365  0.00  0.00    +0.000 A 
ATOM     12  C   UNL     1     104.458 123.992 139.195  0.00  0.00    +0.000 A 
ATOM     13  C   UNL     1     105.118 124.527 139.066  0.00  0.00    +0.000 A 
ENDROOT
BRANCH  12  17
ATOM     14  O   UNL     1     104.046 122.925 136.576  0.00  0.00    +0.000 OA
ATOM     15  O   UNL     1     101.827 123.913 138.081  0.00  0.00    +0.000 OA
ATOM     16  O   UNL     1     102.430 123.228 136.706  0.00  0.00    +0.000 OA
ATOM     17  C   UNL     1     103.951 123.801 138.573  0.00  0.00    +0.000 A 
ATOM     18  C   UNL     1     103.143 123.952 138.638  0.00  0.00    +0.000 A 
ATOM     19  C   UNL     1     104.252 123.458 137.886  0.00  0.00    +0.000 A 
ATOM     20  C   UNL     1     103.745 123.268 137.264  0.00  0.00    +0.000 A 
ATOM     21  C   UNL     1     102.636 123.761 138.016  0.00  0.00    +0.000 A 
ATOM     22  C   UNL     1     102.937 123.419 137.328  0.00  0.00    +0.000 A 
ENDBRANCH  12  17
BRANCH   5  23
ATOM     23  O   UNL     1     106.637 125.079 140.994  0.00  0.00    +0.000 OA
BRANCH  23  32
ATOM     24  O   UNL     1     105.946 126.249 141.435  0.00  0.00    +0.000 OA
ATOM     25  O   UNL     1     108.070 127.177 142.302  0.00  0.00    +0.000 OA
ATOM     26  O   UNL     1     106.671 128.038 142.455  0.00  0.00    +0.000 OA
ATOM     27  O   UNL     1     108.053 125.697 141.571  0.00  0.00    +0.000 OA
ATOM     28  C   UNL     1     107.362 126.867 142.013  0.00  0.00    +0.000 C 
ATOM     29  C   UNL     1     106.662 127.297 142.089  0.00  0.00    +0.000 C 
ATOM     30  C   UNL     1     107.353 126.128 141.648  0.00  0.00    +0.000 C 
ATOM     31  C   UNL     1     105.954 126.988 141.800  0.00  0.00    +0.000 C 
ATOM     32  C   UNL     1     106.645 125.819 141.359  0.00  0.00    +0.000 C 
ATOM     33  C   UNL     1     105.255 127.419 141.877  0.00  0.00    +0.000 C 
ENDBRANCH  23  32
ENDBRANCH   5  23
TORSDOF 3
ENDMDL
MODEL 2
REMARK VINA RESULT:     -10.2      8.433      9.747
REMARK  Name = 44258527
REMARK  3 active torsions:
REMARK  status: ('A' for Active; 'I' for Inactive)
REMARK    1  A    between atoms: O_2  and  C_17
REMARK    2  A    between atoms: O_2  and  C_19
REMARK    3  A    between atoms: C_26  and  C_28
REMARK                            x       y       z     vdW  Elec       q    Type
REMARK                         _______ _______ _______ _____ _____    ______ ____
ROOT
ATOM      1  O   UNL     1     113.744 127.299 136.175  0.00  0.00    +0.000 OA
ATOM      2  O   UNL     1     113.796 130.632 136.102  0.00  0.00    +0.000 OA
ATOM      3  O   UNL     1     114.541 129.763 134.913  0.00  0.00    +0.000 OA
ATOM      4  O   UNL     1     112.603 128.640 137.994  0.00  0.00    +0.000 OA
ATOM      5  C   UNL     1     113.394 129.417 136.738  0.00  0.00    +0.000 A 
ATOM      6  C   UNL     1     113.380 128.593 136.758  0.00  0.00    +0.000 A 
ATOM      7  C   UNL     1     113.782 129.808 136.122  0.00  0.00    +0.000 A 
ATOM      8  C   UNL     1     113.752 128.158 136.164  0.00  0.00    +0.000 A 
ATOM      9  C   UNL     1     112.973 128.197 137.404  0.00  0.00    +0.000 A 
ATOM     10  C   UNL     1     114.154 129.373 135.528  0.00  0.00    +0.000 A 
ATOM     11  C   UNL     1     114.139 128.548 135.549  0.00  0.00    +0.000 A 
ATOM     12  C   UNL     1     113.343 126.887 136.813  0.00  0.00    +0.000 A 
ATOM     13  C   UNL     1     112.955 127.339 137.432  0.00  0.00    +0.000 A 
ENDROOT
BRANCH  12  17
ATOM     14  O   UNL     1     114.600 124.406 137.471  0.00  0.00    +0.000 OA
ATOM     15  O   UNL     1     112.008 124.419 136.267  0.00  0.00    +0.000 OA
ATOM     16  O   UNL     1     113.291 123.588 136.887  0.00  0.00    +0.000 OA
ATOM     17  C   UNL     1     113.330 126.062 136.831  0.00  0.00    +0.000 A 
ATOM     18  C   UNL     1     112.676 125.653 136.540  0.00  0.00    +0.000 A 
ATOM     19  C   UNL     1     113.971 125.646 137.142  0.00  0.00    +0.000 A 
ATOM     20  C   UNL     1     113.958 124.822 137.160  0.00  0.00    +0.000 A 
ATOM     21  C   UNL     1     112.663 124.828 136.559  0.00  0.00    +0.000 A 
ATOM     22  C   UNL     1     113.304 124.412 136.869  0.00  0.00    +0.000 A 
ENDBRANCH  12  17
BRANCH   5  23
ATOM     23  O   UNL     1     113.021 129.851 137.332  0.00  0.00    +0.000 OA
BRANCH  23  32
ATOM     24  O   UNL     1     111.821 130.001 136.572  0.00  0.00    +0.000 OA
ATOM     25  O   UNL     1     111.260 132.040 137.859  0.00  0.00    +0.000 OA
ATOM     26  O   UNL     1     110.247 131.510 136.670  0.00  0.00    +0.000 OA
ATOM     27  O   UNL     1     112.648 131.210 138.190  0.00  0.00    +0.000 OA
ATOM     28  C   UNL     1     111.447 131.360 137.430  0.00  0.00    +0.000 C 
ATOM     29  C   UNL     1     110.941 131.095 136.835  0.00  0.00    +0.000 C 
ATOM     30  C   UNL     1     112.141 130.945 137.595  0.00  0.00    +0.000 C 
ATOM     31  C   UNL     1     111.128 130.416 136.406  0.00  0.00    +0.000 C 
ATOM     32  C   UNL     1     112.327 130.266 137.166  0.00  0.00    +0.000 C 
ATOM     33  C   UNL     1     110.620 130.152 135.812  0.00  0.00    +0.000 C 
ENDBRANCH  23  32
ENDBRANCH   5  23
TORSDOF 3
ENDMDL
MODEL 3
REMARK VINA RESULT:     -10.0      5.206      7.356
REMARK  Name = 44258527
REMARK  3 active torsions:
REMARK  status: ('A' for Active; 'I' for Inactive)
REMARK    1  A    between atoms: O_2  and  C_17
REMARK    2  A    between atoms: O_2  and  C_19
REMARK    3  A    between atoms: C_26  and  C_28
REMARK                            x       y       z     vdW  Elec       q    Type
REMARK                         _______ _______ _______ _____ _____    ______ ____
ROOT
ATOM      1  O   UNL     1     104.260 124.629 147.991  0.00  0.00    +0.000 OA
ATOM      2  O   UNL     1     107.075 124.963 146.234  0.00  0.00    +0.000 OA
ATOM      3  O   UNL     1     107.107 125.058 147.881  0.00  0.00    +0.000 OA
ATOM      4  O   UNL     1     104.220 124.484 145.463  0.00  0.00    +0.000 OA
ATOM      5  C   UNL     1     105.662 124.749 146.274  0.00  0.00    +0.000 A 
ATOM      6  C   UNL     1     104.965 124.666 146.706  0.00  0.00    +0.000 A 
ATOM      7  C   UNL     1     106.377 124.880 146.666  0.00  0.00    +0.000 A 
ATOM      8  C   UNL     1     104.981 124.714 147.530  0.00  0.00    +0.000 A 
ATOM      9  C   UNL     1     104.227 124.530 146.287  0.00  0.00    +0.000 A 
ATOM     10  C   UNL     1     106.393 124.928 147.490  0.00  0.00    +0.000 A 
ATOM     11  C   UNL     1     105.695 124.844 147.921  0.00  0.00    +0.000 A 
ATOM     12  C   UNL     1     103.514 124.492 147.588  0.00  0.00    +0.000 A 
ATOM     13  C   UNL     1     103.497 124.443 146.731  0.00  0.00    +0.000 A 
ENDROOT
BRANCH  12  17
ATOM     14  O   UNL     1     101.249 125.662 148.880  0.00  0.00    +0.000 OA
ATOM     15  O   UNL     1     101.599 122.827 148.902  0.00  0.00    +0.000 OA
ATOM     16  O   UNL     1     100.727 124.162 149.326  0.00  0.00    +0.000 OA
ATOM     17  C   UNL     1     102.817 124.410 148.023  0.00  0.00    +0.000 A 
ATOM     18  C   UNL     1     102.556 123.660 148.245  0.00  0.00    +0.000 A 
ATOM     19  C   UNL     1     102.381 125.077 148.234  0.00  0.00    +0.000 A 
ATOM     20  C   UNL     1     101.685 124.994 148.668  0.00  0.00    +0.000 A 
ATOM     21  C   UNL     1     101.859 123.577 148.680  0.00  0.00    +0.000 A 
ATOM     22  C   UNL     1     101.423 124.245 148.891  0.00  0.00    +0.000 A 
ENDBRANCH  12  17
BRANCH   5  23
ATOM     23  O   UNL     1     105.646 124.701 145.451  0.00  0.00    +0.000 OA
BRANCH  23  32
ATOM     24  O   UNL     1     105.537 126.117 145.287  0.00  0.00    +0.000 OA
ATOM     25  O   UNL     1     106.579 125.938 143.049  0.00  0.00    +0.000 OA
ATOM     26  O   UNL     1     106.123 127.413 143.631  0.00  0.00    +0.000 OA
ATOM     27  O   UNL     1     106.341 124.582 143.959  0.00  0.00    +0.000 OA
ATOM     28  C   UNL     1     106.232 125.998 143.795  0.00  0.00    +0.000 C 
ATOM     29  C   UNL     1     106.004 126.735 144.087  0.00  0.00    +0.000 C 
ATOM     30  C   UNL     1     106.112 125.320 144.250  0.00  0.00    +0.000 C 
ATOM     31  C   UNL     1     105.657 126.794 144.833  0.00  0.00    +0.000 C 
ATOM     32  C   UNL     1     105.765 125.380 144.996  0.00  0.00    +0.000 C 
ATOM     33  C   UNL     1     105.429 127.532 145.123  0.00  0.00    +0.000 C 
ENDBRANCH  23  32
ENDBRANCH   5  23
TORSDOF 3
ENDMDL
MODEL 4
REMARK VINA RESULT:      -9.7      6.963      9.798
REMARK  Name = 44258527
REMARK  3 active torsions:
REMARK  status: ('A' for Active; 'I' for Inactive)
REMARK    1  A    between atoms: O_2  and  C_17
REMARK    2  A    between atoms: O_2  and  C_19
REMARK    3  A    between atoms: C_26  and  C_28
REMARK                            x       y       z     vdW  Elec       q    Type
REMARK                         _______ _______ _______ _____ _____    ______ ____
ROOT
ATOM      1  O   UNL     1     112.980 128.389 140.724  0.00  0.00    +0.000 OA
ATOM      2  O   UNL     1     111.275 125.814 139.465  0.00  0.00    +0.000 OA
ATOM      3  O   UNL     1     111.558 125.910 141.088  0.00  0.00    +0.000 OA
ATOM      4  O   UNL     1     112.540 128.235 138.235  0.00  0.00    +0.000 OA
ATOM      5  C   UNL     1     111.978 127.044 139.271  0.00  0.00    +0.000 A 
ATOM      6  C   UNL     1     112.400 127.681 139.580  0.00  0.00    +0.000 A 
ATOM      7  C   UNL     1     111.697 126.452 139.774  0.00  0.00    +0.000 A 
ATOM      8  C   UNL     1     112.541 127.729 140.391  0.00  0.00    +0.000 A 
ATOM      9  C   UNL     1     112.687 128.291 139.045  0.00  0.00    +0.000 A 
ATOM     10  C   UNL     1     111.839 126.500 140.586  0.00  0.00    +0.000 A 
ATOM     11  C   UNL     1     112.261 127.139 140.893  0.00  0.00    +0.000 A 
ATOM     12  C   UNL     1     113.274 129.007 140.205  0.00  0.00    +0.000 A 
ATOM     13  C   UNL     1     113.127 128.958 139.361  0.00  0.00    +0.000 A 
ENDROOT
BRANCH  12  17
ATOM     14  O   UNL     1     113.368 131.356 141.831  0.00  0.00    +0.000 OA
ATOM     15  O   UNL     1     115.710 130.482 140.447  0.00  0.00    +0.000 OA
ATOM     16  O   UNL     1     114.960 131.557 141.450  0.00  0.00    +0.000 OA
ATOM     17  C   UNL     1     113.696 129.645 140.516  0.00  0.00    +0.000 A 
ATOM     18  C   UNL     1     114.492 129.745 140.327  0.00  0.00    +0.000 A 
ATOM     19  C   UNL     1     113.321 130.182 141.018  0.00  0.00    +0.000 A 
ATOM     20  C   UNL     1     113.743 130.819 141.329  0.00  0.00    +0.000 A 
ATOM     21  C   UNL     1     114.913 130.382 140.638  0.00  0.00    +0.000 A 
ATOM     22  C   UNL     1     114.539 130.920 141.139  0.00  0.00    +0.000 A 
ENDBRANCH  12  17
BRANCH   5  23
ATOM     23  O   UNL     1     111.836 126.996 138.459  0.00  0.00    +0.000 OA
BRANCH  23  32
ATOM     24  O   UNL     1     112.997 126.201 138.209  0.00  0.00    +0.000 OA
ATOM     25  O   UNL     1     111.892 125.212 136.227  0.00  0.00    +0.000 OA
ATOM     26  O   UNL     1     113.421 124.747 136.637  0.00  0.00    +0.000 OA
ATOM     27  O   UNL     1     111.100 126.337 137.138  0.00  0.00    +0.000 OA
ATOM     28  C   UNL     1     112.260 125.542 136.888  0.00  0.00    +0.000 C 
ATOM     29  C   UNL     1     113.025 125.310 137.093  0.00  0.00    +0.000 C 
ATOM     30  C   UNL     1     111.865 126.104 137.343  0.00  0.00    +0.000 C 
ATOM     31  C   UNL     1     113.393 125.639 137.754  0.00  0.00    +0.000 C 
ATOM     32  C   UNL     1     112.233 126.434 138.004  0.00  0.00    +0.000 C 
ATOM     33  C   UNL     1     114.158 125.406 137.958  0.00  0.00    +0.000 C 
ENDBRANCH  23  32
ENDBRANCH   5  23
TORSDOF 3
ENDMDL
MODEL 5
REMARK VINA RESULT:      -9.7      8.105      9.327
REMARK  Name = 44258527
REMARK  3 active torsions:
REMARK  status: ('A' for Active; 'I' for Inactive)
REMARK    1  A    between atoms: O_2  and  C_17
REMARK    2  A    between atoms: O_2  and  C_19
REMARK    3  A    between atoms: C_26  and  C_28
REMARK                            x       y       z     vdW  Elec       q    Type
REMARK                         _______ _______ _______ _____ _____    ______ ____
ROOT
ATOM      1  O   UNL     1     112.985 127.720 137.864  0.00  0.00    +0.000 OA
ATOM      2  O   UNL     1     112.300 130.739 139.105  0.00  0.00    +0.000 OA
ATOM      3  O   UNL     1     112.336 130.500 137.472  0.00  0.00    +0.000 OA
ATOM      4  O   UNL     1     112.927 128.096 140.367  0.00  0.00    +0.000 OA
ATOM      5  C   UNL     1     112.621 129.362 139.313  0.00  0.00    +0.000 A 
ATOM      6  C   UNL     1     112.791 128.614 139.009  0.00  0.00    +0.000 A 
ATOM      7  C   UNL     1     112.469 129.991 138.800  0.00  0.00    +0.000 A 
ATOM      8  C   UNL     1     112.809 128.495 138.193  0.00  0.00    +0.000 A 
ATOM      9  C   UNL     1     112.947 127.967 139.553  0.00  0.00    +0.000 A 
ATOM     10  C   UNL     1     112.488 129.872 137.984  0.00  0.00    +0.000 A 
ATOM     11  C   UNL     1     112.658 129.123 137.681  0.00  0.00    +0.000 A 
ATOM     12  C   UNL     1     113.143 127.062 138.392  0.00  0.00    +0.000 A 
ATOM     13  C   UNL     1     113.125 127.186 139.242  0.00  0.00    +0.000 A 
ENDROOT
BRANCH  12  17
ATOM     14  O   UNL     1     112.254 124.563 137.328  0.00  0.00    +0.000 OA
ATOM     15  O   UNL     1     115.049 125.078 137.617  0.00  0.00    +0.000 OA
ATOM     16  O   UNL     1     113.821 124.073 137.166  0.00  0.00    +0.000 OA
ATOM     17  C   UNL     1     113.313 126.315 138.086  0.00  0.00    +0.000 A 
ATOM     18  C   UNL     1     114.096 126.070 138.005  0.00  0.00    +0.000 A 
ATOM     19  C   UNL     1     112.699 125.813 137.860  0.00  0.00    +0.000 A 
ATOM     20  C   UNL     1     112.868 125.066 137.554  0.00  0.00    +0.000 A 
ATOM     21  C   UNL     1     114.266 125.323 137.698  0.00  0.00    +0.000 A 
ATOM     22  C   UNL     1     113.651 124.820 137.473  0.00  0.00    +0.000 A 
ENDBRANCH  12  17
BRANCH   5  23
ATOM     23  O   UNL     1     112.603 129.481 140.129  0.00  0.00    +0.000 OA
BRANCH  23  32
ATOM     24  O   UNL     1     113.945 129.967 140.193  0.00  0.00    +0.000 OA
ATOM     25  O   UNL     1     113.355 131.341 142.165  0.00  0.00    +0.000 OA
ATOM     26  O   UNL     1     114.894 131.368 141.572  0.00  0.00    +0.000 OA
ATOM     27  O   UNL     1     112.209 130.397 141.444  0.00  0.00    +0.000 OA
ATOM     28  C   UNL     1     113.551 130.883 141.508  0.00  0.00    +0.000 C 
ATOM     29  C   UNL     1     114.321 130.896 141.211  0.00  0.00    +0.000 C 
ATOM     30  C   UNL     1     112.979 130.411 141.147  0.00  0.00    +0.000 C 
ATOM     31  C   UNL     1     114.518 130.438 140.553  0.00  0.00    +0.000 C 
ATOM     32  C   UNL     1     113.176 129.953 140.490  0.00  0.00    +0.000 C 
ATOM     33  C   UNL     1     115.288 130.453 140.257  0.00  0.00    +0.000 C 
ENDBRANCH  23  32
ENDBRANCH   5  23
TORSDOF 3
ENDMDL
MODEL 6
REMARK VINA RESULT:      -9.7      7.247      9.103
REMARK  Name = 44258527
REMARK  3 active torsions:
REMARK  status: ('A' for Active; 'I' for Inactive)
REMARK    1  A    between atoms: O_2  and  C_17
REMARK    2  A    between atoms: O_2  and  C_19
REMARK    3  A    between atoms: C_26  and  C_28
REMARK                            x       y       z     vdW  Elec       q    Type
REMARK                         _______ _______ _______ _____ _____    ______ ____
ROOT
ATOM      1  O   UNL     1     113.032 127.258 136.212  0.00  0.00    +0.000 OA
ATOM      2  O   UNL     1     111.525 130.192 135.727  0.00  0.00    +0.000 OA
ATOM      3  O   UNL     1     112.686 129.671 134.677  0.00  0.00    +0.000 OA
ATOM      4  O   UNL     1     111.250 128.066 137.818  0.00  0.00    +0.000 OA
ATOM      5  C   UNL     1     111.687 129.000 136.498  0.00  0.00    +0.000 A 
ATOM      6  C   UNL     1     112.058 128.274 136.620  0.00  0.00    +0.000 A 
ATOM      7  C   UNL     1     111.896 129.466 135.849  0.00  0.00    +0.000 A 
ATOM      8  C   UNL     1     112.638 128.013 136.095  0.00  0.00    +0.000 A 
ATOM      9  C   UNL     1     111.831 127.797 137.298  0.00  0.00    +0.000 A 
ATOM     10  C   UNL     1     112.477 129.205 135.324  0.00  0.00    +0.000 A 
ATOM     11  C   UNL     1     112.847 128.478 135.447  0.00  0.00    +0.000 A 
ATOM     12  C   UNL     1     112.818 126.768 136.885  0.00  0.00    +0.000 A 
ATOM     13  C   UNL     1     112.214 127.040 137.431  0.00  0.00    +0.000 A 
ENDROOT
BRANCH  12  17
ATOM     14  O   UNL     1     114.947 125.237 138.020  0.00  0.00    +0.000 OA
ATOM     15  O   UNL     1     112.925 123.942 136.472  0.00  0.00    +0.000 OA
ATOM     16  O   UNL     1     114.309 123.863 137.366  0.00  0.00    +0.000 OA
ATOM     17  C   UNL     1     113.191 126.042 137.005  0.00  0.00    +0.000 A 
ATOM     18  C   UNL     1     112.872 125.355 136.678  0.00  0.00    +0.000 A 
ATOM     19  C   UNL     1     113.883 126.003 137.452  0.00  0.00    +0.000 A 
ATOM     20  C   UNL     1     114.255 125.276 137.573  0.00  0.00    +0.000 A 
ATOM     21  C   UNL     1     113.244 124.629 136.799  0.00  0.00    +0.000 A 
ATOM     22  C   UNL     1     113.936 124.590 137.246  0.00  0.00    +0.000 A 
ENDBRANCH  12  17
BRANCH   5  23
ATOM     23  O   UNL     1     111.106 129.261 137.023  0.00  0.00    +0.000 OA
BRANCH  23  32
ATOM     24  O   UNL     1     110.029 128.740 136.241  0.00  0.00    +0.000 OA
ATOM     25  O   UNL     1     108.526 130.482 137.152  0.00  0.00    +0.000 OA
ATOM     26  O   UNL     1     107.950 129.380 136.067  0.00  0.00    +0.000 OA
ATOM     27  O   UNL     1     110.104 130.422 137.630  0.00  0.00    +0.000 OA
ATOM     28  C   UNL     1     109.027 129.901 136.848  0.00  0.00    +0.000 C 
ATOM     29  C   UNL     1     108.740 129.350 136.306  0.00  0.00    +0.000 C 
ATOM     30  C   UNL     1     109.816 129.871 137.087  0.00  0.00    +0.000 C 
ATOM     31  C   UNL     1     109.241 128.770 136.002  0.00  0.00    +0.000 C 
ATOM     32  C   UNL     1     110.317 129.290 136.783  0.00  0.00    +0.000 C 
ATOM     33  C   UNL     1     108.952 128.219 135.460  0.00  0.00    +0.000 C 
ENDBRANCH  23  32
ENDBRANCH   5  23
TORSDOF 3
ENDMDL
MODEL 7
REMARK VINA RESULT:      -9.6      7.842      9.934
REMARK  Name = 44258527
REMARK  3 active torsions:
REMARK  status: ('A' for Active; 'I' for Inactive)
REMARK    1  A    between atoms: O_2  and  C_17
REMARK    2  A    between atoms: O_2  and  C_19
REMARK    3  A    between atoms: C_26  and  C_28
REMARK                            x       y       z     vdW  Elec       q    Type
REMARK                         _______ _______ _______ _____ _____    ______ ____
ROOT
ATOM      1  O   UNL     1     112.552 128.756 135.383  0.00  0.00    +0.000 OA
ATOM      2  O   UNL     1     110.570 126.075 135.413  0.00  0.00    +0.000 OA
ATOM      3  O   UNL     1     110.067 127.472 134.694  0.00  0.00    +0.000 OA
ATOM      4  O   UNL     1     113.316 126.607 136.484  0.00  0.00    +0.000 OA
ATOM      5  C   UNL     1     111.807 126.700 135.761  0.00  0.00    +0.000 A 
ATOM      6  C   UNL     1     112.299 127.361 135.755  0.00  0.00    +0.000 A 
ATOM      7  C   UNL     1     111.062 126.737 135.407  0.00  0.00    +0.000 A 
ATOM      8  C   UNL     1     112.048 128.060 135.395  0.00  0.00    +0.000 A 
ATOM      9  C   UNL     1     113.073 127.311 136.127  0.00  0.00    +0.000 A 
ATOM     10  C   UNL     1     110.811 127.436 135.048  0.00  0.00    +0.000 A 
ATOM     11  C   UNL     1     111.304 128.097 135.042  0.00  0.00    +0.000 A 
ATOM     12  C   UNL     1     113.329 128.724 135.749  0.00  0.00    +0.000 A 
ATOM     13  C   UNL     1     113.590 127.996 136.124  0.00  0.00    +0.000 A 
ENDROOT
BRANCH  12  17
ATOM     14  O   UNL     1     114.089 131.251 136.844  0.00  0.00    +0.000 OA
ATOM     15  O   UNL     1     115.512 130.175 134.612  0.00  0.00    +0.000 OA
ATOM     16  O   UNL     1     115.292 131.376 135.721  0.00  0.00    +0.000 OA
ATOM     17  C   UNL     1     113.819 129.387 135.742  0.00  0.00    +0.000 A 
ATOM     18  C   UNL     1     114.420 129.449 135.181  0.00  0.00    +0.000 A 
ATOM     19  C   UNL     1     113.709 129.987 136.296  0.00  0.00    +0.000 A 
ATOM     20  C   UNL     1     114.200 130.651 136.289  0.00  0.00    +0.000 A 
ATOM     21  C   UNL     1     114.911 130.113 135.174  0.00  0.00    +0.000 A 
ATOM     22  C   UNL     1     114.801 130.713 135.728  0.00  0.00    +0.000 A 
ENDBRANCH  12  17
BRANCH   5  23
ATOM     23  O   UNL     1     112.059 126.001 136.120  0.00  0.00    +0.000 OA
BRANCH  23  32
ATOM     24  O   UNL     1     111.424 126.330 137.357  0.00  0.00    +0.000 OA
ATOM     25  O   UNL     1     111.358 123.931 137.963  0.00  0.00    +0.000 OA
ATOM     26  O   UNL     1     110.745 125.060 138.998  0.00  0.00    +0.000 OA
ATOM     27  O   UNL     1     112.015 124.402 136.524  0.00  0.00    +0.000 OA
ATOM     28  C   UNL     1     111.380 124.731 137.761  0.00  0.00    +0.000 C 
ATOM     29  C   UNL     1     111.074 125.296 138.278  0.00  0.00    +0.000 C 
ATOM     30  C   UNL     1     111.708 124.967 137.042  0.00  0.00    +0.000 C 
ATOM     31  C   UNL     1     111.096 126.095 138.076  0.00  0.00    +0.000 C 
ATOM     32  C   UNL     1     111.730 125.766 136.840  0.00  0.00    +0.000 C 
ATOM     33  C   UNL     1     110.789 126.660 138.595  0.00  0.00    +0.000 C 
ENDBRANCH  23  32
ENDBRANCH   5  23
TORSDOF 3
ENDMDL
MODEL 8
REMARK VINA RESULT:      -9.6      7.403      9.904
REMARK  Name = 44258527
REMARK  3 active torsions:
REMARK  status: ('A' for Active; 'I' for Inactive)
REMARK    1  A    between atoms: O_2  and  C_17
REMARK    2  A    between atoms: O_2  and  C_19
REMARK    3  A    between atoms: C_26  and  C_28
REMARK                            x       y       z     vdW  Elec       q    Type
REMARK                         _______ _______ _______ _____ _____    ______ ____
ROOT
ATOM      1  O   UNL     1     112.997 128.979 138.249  0.00  0.00    +0.000 OA
ATOM      2  O   UNL     1     111.973 126.857 135.889  0.00  0.00    +0.000 OA
ATOM      3  O   UNL     1     112.634 128.310 135.470  0.00  0.00    +0.000 OA
ATOM      4  O   UNL     1     111.982 126.748 138.883  0.00  0.00    +0.000 OA
ATOM      5  C   UNL     1     112.147 127.176 137.271  0.00  0.00    +0.000 A 
ATOM      6  C   UNL     1     112.400 127.700 137.857  0.00  0.00    +0.000 A 
ATOM      7  C   UNL     1     112.226 127.380 136.475  0.00  0.00    +0.000 A 
ATOM      8  C   UNL     1     112.730 128.426 137.647  0.00  0.00    +0.000 A 
ATOM      9  C   UNL     1     112.313 127.476 138.683  0.00  0.00    +0.000 A 
ATOM     10  C   UNL     1     112.556 128.106 136.265  0.00  0.00    +0.000 A 
ATOM     11  C   UNL     1     112.808 128.629 136.852  0.00  0.00    +0.000 A 
ATOM     12  C   UNL     1     112.918 128.773 139.079  0.00  0.00    +0.000 A 
ATOM     13  C   UNL     1     112.574 128.017 139.297  0.00  0.00    +0.000 A 
ENDROOT
BRANCH  12  17
ATOM     14  O   UNL     1     112.343 130.841 140.966  0.00  0.00    +0.000 OA
ATOM     15  O   UNL     1     115.011 129.854 140.697  0.00  0.00    +0.000 OA
ATOM     16  O   UNL     1     113.929 130.873 141.416  0.00  0.00    +0.000 OA
ATOM     17  C   UNL     1     113.171 129.298 139.663  0.00  0.00    +0.000 A 
ATOM     18  C   UNL     1     113.964 129.314 139.888  0.00  0.00    +0.000 A 
ATOM     19  C   UNL     1     112.630 129.807 140.022  0.00  0.00    +0.000 A 
ATOM     20  C   UNL     1     112.883 130.332 140.606  0.00  0.00    +0.000 A 
ATOM     21  C   UNL     1     114.217 129.839 140.472  0.00  0.00    +0.000 A 
ATOM     22  C   UNL     1     113.676 130.348 140.832  0.00  0.00    +0.000 A 
ENDBRANCH  12  17
BRANCH   5  23
ATOM     23  O   UNL     1     111.817 126.450 137.481  0.00  0.00    +0.000 OA
BRANCH  23  32
ATOM     24  O   UNL     1     113.061 125.756 137.365  0.00  0.00    +0.000 OA
ATOM     25  O   UNL     1     111.844 123.651 136.904  0.00  0.00    +0.000 OA
ATOM     26  O   UNL     1     113.493 123.659 136.942  0.00  0.00    +0.000 OA
ATOM     27  O   UNL     1     111.006 125.047 137.173  0.00  0.00    +0.000 OA
ATOM     28  C   UNL     1     112.249 124.353 137.058  0.00  0.00    +0.000 C 
ATOM     29  C   UNL     1     113.074 124.357 137.077  0.00  0.00    +0.000 C 
ATOM     30  C   UNL     1     111.831 125.051 137.193  0.00  0.00    +0.000 C 
ATOM     31  C   UNL     1     113.480 125.059 137.231  0.00  0.00    +0.000 C 
ATOM     32  C   UNL     1     112.237 125.752 137.346  0.00  0.00    +0.000 C 
ATOM     33  C   UNL     1     114.305 125.062 137.250  0.00  0.00    +0.000 C 
ENDBRANCH  23  32
ENDBRANCH   5  23
TORSDOF 3
ENDMDL
MODEL 9
REMARK VINA RESULT:      -9.5      8.131      9.634
REMARK  Name = 44258527
REMARK  3 active torsions:
REMARK  status: ('A' for Active; 'I' for Inactive)
REMARK    1  A    between atoms: O_2  and  C_17
REMARK    2  A    between atoms: O_2  and  C_19
REMARK    3  A    between atoms: C_26  and  C_28
REMARK                            x       y       z     vdW  Elec       q    Type
REMARK                         _______ _______ _______ _____ _____    ______ ____
ROOT
ATOM      1  O   UNL     1     111.774 126.776 136.058  0.00  0.00    +0.000 OA
ATOM      2  O   UNL     1     111.747 130.057 135.460  0.00  0.00    +0.000 OA
ATOM      3  O   UNL     1     110.753 129.049 134.612  0.00  0.00    +0.000 OA
ATOM      4  O   UNL     1     113.296 128.330 137.354  0.00  0.00    +0.000 OA
ATOM      5  C   UNL     1     112.262 128.938 136.185  0.00  0.00    +0.000 A 
ATOM      6  C   UNL     1     112.271 128.127 136.335  0.00  0.00    +0.000 A 
ATOM      7  C   UNL     1     111.756 129.245 135.610  0.00  0.00    +0.000 A 
ATOM      8  C   UNL     1     111.774 127.623 135.910  0.00  0.00    +0.000 A 
ATOM      9  C   UNL     1     112.803 127.818 136.935  0.00  0.00    +0.000 A 
ATOM     10  C   UNL     1     111.258 128.742 135.186  0.00  0.00    +0.000 A 
ATOM     11  C   UNL     1     111.268 127.931 135.337  0.00  0.00    +0.000 A 
ATOM     12  C   UNL     1     112.299 126.450 136.655  0.00  0.00    +0.000 A 
ATOM     13  C   UNL     1     112.816 126.974 137.096  0.00  0.00    +0.000 A 
ENDROOT
BRANCH  12  17
ATOM     14  O   UNL     1     113.428 123.863 136.210  0.00  0.00    +0.000 OA
ATOM     15  O   UNL     1     111.212 124.167 137.987  0.00  0.00    +0.000 OA
ATOM     16  O   UNL     1     112.327 123.203 137.247  0.00  0.00    +0.000 OA
ATOM     17  C   UNL     1     112.306 125.639 136.803  0.00  0.00    +0.000 A 
ATOM     18  C   UNL     1     111.756 125.308 137.321  0.00  0.00    +0.000 A 
ATOM     19  C   UNL     1     112.864 125.157 136.432  0.00  0.00    +0.000 A 
ATOM     20  C   UNL     1     112.871 124.345 136.581  0.00  0.00    +0.000 A 
ATOM     21  C   UNL     1     111.763 124.497 137.469  0.00  0.00    +0.000 A 
ATOM     22  C   UNL     1     112.320 124.015 137.099  0.00  0.00    +0.000 A 
ENDBRANCH  12  17
BRANCH   5  23
ATOM     23  O   UNL     1     112.759 129.441 136.609  0.00  0.00    +0.000 OA
BRANCH  23  32
ATOM     24  O   UNL     1     113.788 129.402 135.618  0.00  0.00    +0.000 OA
ATOM     25  O   UNL     1     114.581 131.628 136.354  0.00  0.00    +0.000 OA
ATOM     26  O   UNL     1     115.345 130.848 135.117  0.00  0.00    +0.000 OA
ATOM     27  O   UNL     1     113.288 130.925 137.099  0.00  0.00    +0.000 OA
ATOM     28  C   UNL     1     114.317 130.886 136.108  0.00  0.00    +0.000 C 
ATOM     29  C   UNL     1     114.698 130.496 135.490  0.00  0.00    +0.000 C 
ATOM     30  C   UNL     1     113.670 130.534 136.481  0.00  0.00    +0.000 C 
ATOM     31  C   UNL     1     114.434 129.754 135.245  0.00  0.00    +0.000 C 
ATOM     32  C   UNL     1     113.406 129.792 136.236  0.00  0.00    +0.000 C 
ATOM     33  C   UNL     1     114.817 129.364 134.627  0.00  0.00    +0.000 C 
ENDBRANCH  23  32
ENDBRANCH   5  23
TORSDOF 3
ENDMDL
MODEL 10
REMARK VINA RESULT:      -9.5      7.249      9.644
REMARK  Name = 44258527
REMARK  3 active torsions:
REMARK  status: ('A' for Active; 'I' for Inactive)
REMARK    1  A    between atoms: O_2  and  C_17
REMARK    2  A    between atoms: O_2  and  C_19
REMARK    3  A    between atoms: C_26  and  C_28
REMARK                            x       y       z     vdW  Elec       q    Type
REMARK                         _______ _______ _______ _____ _____    ______ ____
ROOT
ATOM      1  O   UNL     1     112.959 128.806 138.320  0.00  0.00    +0.000 OA
ATOM      2  O   UNL     1     111.962 125.802 139.369  0.00  0.00    +0.000 OA
ATOM      3  O   UNL     1     112.623 126.876 140.432  0.00  0.00    +0.000 OA
ATOM      4  O   UNL     1     111.943 127.151 136.695  0.00  0.00    +0.000 OA
ATOM      5  C   UNL     1     112.123 126.750 138.311  0.00  0.00    +0.000 A 
ATOM      6  C   UNL     1     112.369 127.492 138.049  0.00  0.00    +0.000 A 
ATOM      7  C   UNL     1     112.208 126.545 139.107  0.00  0.00    +0.000 A 
ATOM      8  C   UNL     1     112.699 128.029 138.581  0.00  0.00    +0.000 A 
ATOM      9  C   UNL     1     112.275 127.695 137.219  0.00  0.00    +0.000 A 
ATOM     10  C   UNL     1     112.538 127.082 139.639  0.00  0.00    +0.000 A 
ATOM     11  C   UNL     1     112.784 127.824 139.375  0.00  0.00    +0.000 A 
ATOM     12  C   UNL     1     112.873 129.025 137.494  0.00  0.00    +0.000 A 
ATOM     13  C   UNL     1     112.529 128.466 136.940  0.00  0.00    +0.000 A 
ENDROOT
BRANCH  12  17
ATOM     14  O   UNL     1     112.333 131.796 137.046  0.00  0.00    +0.000 OA
ATOM     15  O   UNL     1     114.893 130.714 136.381  0.00  0.00    +0.000 OA
ATOM     16  O   UNL     1     113.860 131.998 136.454  0.00  0.00    +0.000 OA
ATOM     17  C   UNL     1     113.120 129.769 137.234  0.00  0.00    +0.000 A 
ATOM     18  C   UNL     1     113.883 129.870 136.938  0.00  0.00    +0.000 A 
ATOM     19  C   UNL     1     112.603 130.411 137.270  0.00  0.00    +0.000 A 
ATOM     20  C   UNL     1     112.850 131.154 137.010  0.00  0.00    +0.000 A 
ATOM     21  C   UNL     1     114.130 130.613 136.678  0.00  0.00    +0.000 A 
ATOM     22  C   UNL     1     113.613 131.255 136.714  0.00  0.00    +0.000 A 
ENDBRANCH  12  17
BRANCH   5  23
ATOM     23  O   UNL     1     111.792 126.213 137.780  0.00  0.00    +0.000 OA
BRANCH  23  32
ATOM     24  O   UNL     1     113.046 125.573 137.537  0.00  0.00    +0.000 OA
ATOM     25  O   UNL     1     111.861 123.514 136.843  0.00  0.00    +0.000 OA
ATOM     26  O   UNL     1     113.510 123.560 136.831  0.00  0.00    +0.000 OA
ATOM     27  O   UNL     1     111.002 124.840 137.317  0.00  0.00    +0.000 OA
ATOM     28  C   UNL     1     112.256 124.200 137.074  0.00  0.00    +0.000 C 
ATOM     29  C   UNL     1     113.080 124.224 137.069  0.00  0.00    +0.000 C 
ATOM     30  C   UNL     1     111.827 124.864 137.311  0.00  0.00    +0.000 C 
ATOM     31  C   UNL     1     113.475 124.910 137.300  0.00  0.00    +0.000 C 
ATOM     32  C   UNL     1     112.222 125.550 137.543  0.00  0.00    +0.000 C 
ATOM     33  C   UNL     1     114.300 124.932 137.294  0.00  0.00    +0.000 C 
ENDBRANCH  23  32
ENDBRANCH   5  23
TORSDOF 3
ENDMDL
