MODEL 1
REMARK VINA RESULT:      -8.9      0.000      0.000
REMARK  Name = 15558313
REMARK  2 active torsions:
REMARK  status: ('A' for Active; 'I' for Inactive)
REMARK    1  A    between atoms: O_2  and  C_13
REMARK    2  A    between atoms: C_11  and  C_12
REMARK                            x       y       z     vdW  Elec       q    Type
REMARK                         _______ _______ _______ _____ _____    ______ ____
ROOT
ATOM      1  O   UNL     1     104.681 124.182 146.785  0.00  0.00    +0.000 OA
ATOM      2  O   UNL     1     101.965 124.924 147.454  0.00  0.00    +0.000 OA
ATOM      3  O   UNL     1     102.447 122.739 145.675  0.00  0.00    +0.000 OA
ATOM      4  O   UNL     1     103.056 125.671 148.030  0.00  0.00    +0.000 OA
ATOM      5  C   UNL     1     103.304 124.555 147.122  0.00  0.00    +0.000 A 
ATOM      6  C   UNL     1     103.832 124.068 146.715  0.00  0.00    +0.000 A 
ATOM      7  C   UNL     1     104.984 124.810 147.285  0.00  0.00    +0.000 A 
ATOM      8  C   UNL     1     103.546 123.463 146.233  0.00  0.00    +0.000 A 
ATOM      9  C   UNL     1     103.590 125.189 147.627  0.00  0.00    +0.000 A 
ATOM     10  C   UNL     1     102.492 124.437 147.047  0.00  0.00    +0.000 A 
ATOM     11  C   UNL     1     104.436 125.317 147.709  0.00  0.00    +0.000 A 
ATOM     12  C   UNL     1     102.733 123.345 146.158  0.00  0.00    +0.000 A 
ATOM     13  C   UNL     1     102.206 123.832 146.565  0.00  0.00    +0.000 A 
ENDROOT
BRANCH   7  17
ATOM     14  O   UNL     1     107.439 125.846 146.249  0.00  0.00    +0.000 OA
ATOM     15  O   UNL     1     107.413 124.470 148.754  0.00  0.00    +0.000 OA
ATOM     16  O   UNL     1     108.239 125.274 147.574  0.00  0.00    +0.000 OA
ATOM     17  C   UNL     1     105.799 124.926 147.358  0.00  0.00    +0.000 A 
ATOM     18  C   UNL     1     106.199 124.640 148.020  0.00  0.00    +0.000 A 
ATOM     19  C   UNL     1     106.212 125.328 146.768  0.00  0.00    +0.000 A 
ATOM     20  C   UNL     1     107.025 125.444 146.840  0.00  0.00    +0.000 A 
ATOM     21  C   UNL     1     107.013 124.756 148.092  0.00  0.00    +0.000 A 
ATOM     22  C   UNL     1     107.426 125.158 147.502  0.00  0.00    +0.000 A 
ENDBRANCH   7  17
BRANCH   8  23
ATOM     23  O   UNL     1     104.073 122.976 145.825  0.00  0.00    +0.000 OA
ATOM     24  C   UNL     1     103.956 122.821 145.024  0.00  0.00    +0.000 C 
ENDBRANCH   8  23
TORSDOF 2
ENDMDL
MODEL 2
REMARK VINA RESULT:      -8.6      0.730      4.367
REMARK  Name = 15558313
REMARK  2 active torsions:
REMARK  status: ('A' for Active; 'I' for Inactive)
REMARK    1  A    between atoms: O_2  and  C_13
REMARK    2  A    between atoms: C_11  and  C_12
REMARK                            x       y       z     vdW  Elec       q    Type
REMARK                         _______ _______ _______ _____ _____    ______ ____
ROOT
ATOM      1  O   UNL     1     105.182 124.478 147.465  0.00  0.00    +0.000 OA
ATOM      2  O   UNL     1     107.440 125.836 146.269  0.00  0.00    +0.000 OA
ATOM      3  O   UNL     1     107.687 124.684 148.873  0.00  0.00    +0.000 OA
ATOM      4  O   UNL     1     106.203 125.754 145.532  0.00  0.00    +0.000 OA
ATOM      5  C   UNL     1     106.327 125.165 146.862  0.00  0.00    +0.000 A 
ATOM      6  C   UNL     1     105.997 124.749 147.494  0.00  0.00    +0.000 A 
ATOM      7  C   UNL     1     104.705 124.642 146.770  0.00  0.00    +0.000 A 
ATOM      8  C   UNL     1     106.450 124.589 148.164  0.00  0.00    +0.000 A 
ATOM      9  C   UNL     1     105.864 125.338 146.158  0.00  0.00    +0.000 A 
ATOM     10  C   UNL     1     107.110 125.420 146.901  0.00  0.00    +0.000 A 
ATOM     11  C   UNL     1     105.048 125.075 146.112  0.00  0.00    +0.000 A 
ATOM     12  C   UNL     1     107.233 124.844 148.202  0.00  0.00    +0.000 A 
ATOM     13  C   UNL     1     107.563 125.260 147.570  0.00  0.00    +0.000 A 
ENDROOT
BRANCH   7  17
ATOM     14  O   UNL     1     102.762 122.740 145.890  0.00  0.00    +0.000 OA
ATOM     15  O   UNL     1     101.948 125.000 147.438  0.00  0.00    +0.000 OA
ATOM     16  O   UNL     1     101.572 123.613 146.628  0.00  0.00    +0.000 OA
ATOM     17  C   UNL     1     103.921 124.385 146.735  0.00  0.00    +0.000 A 
ATOM     18  C   UNL     1     103.326 124.821 147.104  0.00  0.00    +0.000 A 
ATOM     19  C   UNL     1     103.733 123.691 146.330  0.00  0.00    +0.000 A 
ATOM     20  C   UNL     1     102.950 123.434 146.295  0.00  0.00    +0.000 A 
ATOM     21  C   UNL     1     102.543 124.564 147.069  0.00  0.00    +0.000 A 
ATOM     22  C   UNL     1     102.355 123.870 146.664  0.00  0.00    +0.000 A 
ENDBRANCH   7  17
BRANCH   8  23
ATOM     23  O   UNL     1     106.120 124.173 148.796  0.00  0.00    +0.000 OA
ATOM     24  C   UNL     1     106.183 124.470 149.562  0.00  0.00    +0.000 C 
ENDBRANCH   8  23
TORSDOF 2
ENDMDL
MODEL 3
REMARK VINA RESULT:      -8.2     11.528     13.388
REMARK  Name = 15558313
REMARK  2 active torsions:
REMARK  status: ('A' for Active; 'I' for Inactive)
REMARK    1  A    between atoms: O_2  and  C_13
REMARK    2  A    between atoms: C_11  and  C_12
REMARK                            x       y       z     vdW  Elec       q    Type
REMARK                         _______ _______ _______ _____ _____    ______ ____
ROOT
ATOM      1  O   UNL     1     112.028 125.838 136.368  0.00  0.00    +0.000 OA
ATOM      2  O   UNL     1     113.452 123.454 137.182  0.00  0.00    +0.000 OA
ATOM      3  O   UNL     1     114.905 125.825 136.523  0.00  0.00    +0.000 OA
ATOM      4  O   UNL     1     112.011 123.419 137.117  0.00  0.00    +0.000 OA
ATOM      5  C   UNL     1     112.752 124.632 136.780  0.00  0.00    +0.000 A 
ATOM      6  C   UNL     1     112.760 125.420 136.536  0.00  0.00    +0.000 A 
ATOM      7  C   UNL     1     111.277 125.429 136.455  0.00  0.00    +0.000 A 
ATOM      8  C   UNL     1     113.478 125.818 136.450  0.00  0.00    +0.000 A 
ATOM      9  C   UNL     1     112.010 124.207 136.873  0.00  0.00    +0.000 A 
ATOM     10  C   UNL     1     113.460 124.242 136.938  0.00  0.00    +0.000 A 
ATOM     11  C   UNL     1     111.268 124.609 136.709  0.00  0.00    +0.000 A 
ATOM     12  C   UNL     1     114.186 125.427 136.609  0.00  0.00    +0.000 A 
ATOM     13  C   UNL     1     114.178 124.639 136.853  0.00  0.00    +0.000 A 
ENDROOT
BRANCH   7  17
ATOM     14  O   UNL     1     109.079 127.024 137.344  0.00  0.00    +0.000 OA
ATOM     15  O   UNL     1     109.232 126.198 134.612  0.00  0.00    +0.000 OA
ATOM     16  O   UNL     1     108.448 127.005 135.820  0.00  0.00    +0.000 OA
ATOM     17  C   UNL     1     110.570 125.823 136.295  0.00  0.00    +0.000 A 
ATOM     18  C   UNL     1     110.254 125.814 135.533  0.00  0.00    +0.000 A 
ATOM     19  C   UNL     1     110.178 126.227 136.899  0.00  0.00    +0.000 A 
ATOM     20  C   UNL     1     109.471 126.621 136.740  0.00  0.00    +0.000 A 
ATOM     21  C   UNL     1     109.547 126.208 135.375  0.00  0.00    +0.000 A 
ATOM     22  C   UNL     1     109.155 126.611 135.978  0.00  0.00    +0.000 A 
ENDBRANCH   7  17
BRANCH   8  23
ATOM     23  O   UNL     1     113.486 126.606 136.206  0.00  0.00    +0.000 OA
ATOM     24  C   UNL     1     113.824 127.183 136.689  0.00  0.00    +0.000 C 
ENDBRANCH   8  23
TORSDOF 2
ENDMDL
MODEL 4
REMARK VINA RESULT:      -8.2     12.561     13.485
REMARK  Name = 15558313
REMARK  2 active torsions:
REMARK  status: ('A' for Active; 'I' for Inactive)
REMARK    1  A    between atoms: O_2  and  C_13
REMARK    2  A    between atoms: C_11  and  C_12
REMARK                            x       y       z     vdW  Elec       q    Type
REMARK                         _______ _______ _______ _____ _____    ______ ____
ROOT
ATOM      1  O   UNL     1     112.088 126.829 136.078  0.00  0.00    +0.000 OA
ATOM      2  O   UNL     1     109.725 125.935 134.668  0.00  0.00    +0.000 OA
ATOM      3  O   UNL     1     110.455 128.697 134.612  0.00  0.00    +0.000 OA
ATOM      4  O   UNL     1     110.515 124.968 135.390  0.00  0.00    +0.000 OA
ATOM      5  C   UNL     1     110.890 126.379 135.363  0.00  0.00    +0.000 A 
ATOM      6  C   UNL     1     111.401 126.988 135.586  0.00  0.00    +0.000 A 
ATOM      7  C   UNL     1     112.244 126.027 136.342  0.00  0.00    +0.000 A 
ATOM      8  C   UNL     1     111.256 127.760 135.336  0.00  0.00    +0.000 A 
ATOM      9  C   UNL     1     111.031 125.570 135.618  0.00  0.00    +0.000 A 
ATOM     10  C   UNL     1     110.235 126.543 134.891  0.00  0.00    +0.000 A 
ATOM     11  C   UNL     1     111.712 125.393 136.110  0.00  0.00    +0.000 A 
ATOM     12  C   UNL     1     110.601 127.924 134.863  0.00  0.00    +0.000 A 
ATOM     13  C   UNL     1     110.090 127.315 134.640  0.00  0.00    +0.000 A 
ENDROOT
BRANCH   7  17
ATOM     14  O   UNL     1     113.528 126.085 138.895  0.00  0.00    +0.000 OA
ATOM     15  O   UNL     1     114.899 125.008 136.630  0.00  0.00    +0.000 OA
ATOM     16  O   UNL     1     114.870 125.387 138.236  0.00  0.00    +0.000 OA
ATOM     17  C   UNL     1     112.901 125.867 136.815  0.00  0.00    +0.000 A 
ATOM     18  C   UNL     1     113.572 125.518 136.486  0.00  0.00    +0.000 A 
ATOM     19  C   UNL     1     112.886 126.056 137.618  0.00  0.00    +0.000 A 
ATOM     20  C   UNL     1     113.542 125.896 138.092  0.00  0.00    +0.000 A 
ATOM     21  C   UNL     1     114.228 125.358 136.959  0.00  0.00    +0.000 A 
ATOM     22  C   UNL     1     114.213 125.547 137.762  0.00  0.00    +0.000 A 
ENDBRANCH   7  17
BRANCH   8  23
ATOM     23  O   UNL     1     111.767 128.369 135.558  0.00  0.00    +0.000 OA
ATOM     24  C   UNL     1     112.140 128.826 134.982  0.00  0.00    +0.000 C 
ENDBRANCH   8  23
TORSDOF 2
ENDMDL
MODEL 5
REMARK VINA RESULT:      -8.2      9.122      9.867
REMARK  Name = 15558313
REMARK  2 active torsions:
REMARK  status: ('A' for Active; 'I' for Inactive)
REMARK    1  A    between atoms: O_2  and  C_13
REMARK    2  A    between atoms: C_11  and  C_12
REMARK                            x       y       z     vdW  Elec       q    Type
REMARK                         _______ _______ _______ _____ _____    ______ ____
ROOT
ATOM      1  O   UNL     1     102.888 131.727 141.048  0.00  0.00    +0.000 OA
ATOM      2  O   UNL     1     100.895 133.374 142.347  0.00  0.00    +0.000 OA
ATOM      3  O   UNL     1     103.181 134.592 141.140  0.00  0.00    +0.000 OA
ATOM      4  O   UNL     1     100.711 131.944 142.322  0.00  0.00    +0.000 OA
ATOM      5  C   UNL     1     101.880 132.563 141.705  0.00  0.00    +0.000 A 
ATOM      6  C   UNL     1     102.590 132.496 141.290  0.00  0.00    +0.000 A 
ATOM      7  C   UNL     1     102.441 131.019 141.241  0.00  0.00    +0.000 A 
ATOM      8  C   UNL     1     103.024 133.172 141.101  0.00  0.00    +0.000 A 
ATOM      9  C   UNL     1     101.419 131.866 141.907  0.00  0.00    +0.000 A 
ATOM     10  C   UNL     1     101.604 133.306 141.932  0.00  0.00    +0.000 A 
ATOM     11  C   UNL     1     101.702 131.089 141.673  0.00  0.00    +0.000 A 
ATOM     12  C   UNL     1     102.747 133.915 141.328  0.00  0.00    +0.000 A 
ATOM     13  C   UNL     1     102.037 133.982 141.744  0.00  0.00    +0.000 A 
ENDROOT
BRANCH   7  17
ATOM     14  O   UNL     1     102.509 128.875 139.352  0.00  0.00    +0.000 OA
ATOM     15  O   UNL     1     104.047 128.711 141.755  0.00  0.00    +0.000 OA
ATOM     16  O   UNL     1     103.556 128.051 140.324  0.00  0.00    +0.000 OA
ATOM     17  C   UNL     1     102.720 130.277 141.012  0.00  0.00    +0.000 A 
ATOM     18  C   UNL     1     103.244 129.865 141.498  0.00  0.00    +0.000 A 
ATOM     19  C   UNL     1     102.475 129.947 140.297  0.00  0.00    +0.000 A 
ATOM     20  C   UNL     1     102.754 129.205 140.068  0.00  0.00    +0.000 A 
ATOM     21  C   UNL     1     103.523 129.123 141.269  0.00  0.00    +0.000 A 
ATOM     22  C   UNL     1     103.278 128.793 140.554  0.00  0.00    +0.000 A 
ENDBRANCH   7  17
BRANCH   8  23
ATOM     23  O   UNL     1     103.733 133.104 140.686  0.00  0.00    +0.000 OA
ATOM     24  C   UNL     1     103.851 133.542 139.998  0.00  0.00    +0.000 C 
ENDBRANCH   8  23
TORSDOF 2
ENDMDL
MODEL 6
REMARK VINA RESULT:      -8.1     12.931     13.824
REMARK  Name = 15558313
REMARK  2 active torsions:
REMARK  status: ('A' for Active; 'I' for Inactive)
REMARK    1  A    between atoms: O_2  and  C_13
REMARK    2  A    between atoms: C_11  and  C_12
REMARK                            x       y       z     vdW  Elec       q    Type
REMARK                         _______ _______ _______ _____ _____    ______ ____
ROOT
ATOM      1  O   UNL     1     112.715 126.452 136.443  0.00  0.00    +0.000 OA
ATOM      2  O   UNL     1     113.970 123.942 137.149  0.00  0.00    +0.000 OA
ATOM      3  O   UNL     1     111.256 123.975 136.255  0.00  0.00    +0.000 OA
ATOM      4  O   UNL     1     114.735 125.160 137.257  0.00  0.00    +0.000 OA
ATOM      5  C   UNL     1     113.348 125.179 136.800  0.00  0.00    +0.000 A 
ATOM      6  C   UNL     1     112.688 125.598 136.535  0.00  0.00    +0.000 A 
ATOM      7  C   UNL     1     113.438 126.876 136.631  0.00  0.00    +0.000 A 
ATOM      8  C   UNL     1     111.991 125.196 136.353  0.00  0.00    +0.000 A 
ATOM      9  C   UNL     1     114.080 125.587 136.993  0.00  0.00    +0.000 A 
ATOM     10  C   UNL     1     113.310 124.360 136.884  0.00  0.00    +0.000 A 
ATOM     11  C   UNL     1     114.125 126.440 136.907  0.00  0.00    +0.000 A 
ATOM     12  C   UNL     1     111.954 124.377 136.437  0.00  0.00    +0.000 A 
ATOM     13  C   UNL     1     112.614 123.959 136.702  0.00  0.00    +0.000 A 
ENDROOT
BRANCH   7  17
ATOM     14  O   UNL     1     112.938 129.493 137.665  0.00  0.00    +0.000 OA
ATOM     15  O   UNL     1     114.141 129.179 135.091  0.00  0.00    +0.000 OA
ATOM     16  O   UNL     1     113.573 130.156 136.294  0.00  0.00    +0.000 OA
ATOM     17  C   UNL     1     113.472 127.696 136.546  0.00  0.00    +0.000 A 
ATOM     18  C   UNL     1     113.790 128.028 135.861  0.00  0.00    +0.000 A 
ATOM     19  C   UNL     1     113.188 128.185 137.147  0.00  0.00    +0.000 A 
ATOM     20  C   UNL     1     113.222 129.005 137.063  0.00  0.00    +0.000 A 
ATOM     21  C   UNL     1     113.823 128.848 135.777  0.00  0.00    +0.000 A 
ATOM     22  C   UNL     1     113.539 129.336 136.378  0.00  0.00    +0.000 A 
ENDBRANCH   7  17
BRANCH   8  23
ATOM     23  O   UNL     1     111.331 125.615 136.087  0.00  0.00    +0.000 OA
ATOM     24  C   UNL     1     110.941 125.376 135.401  0.00  0.00    +0.000 C 
ENDBRANCH   8  23
TORSDOF 2
ENDMDL
MODEL 7
REMARK VINA RESULT:      -8.1      0.708      2.220
REMARK  Name = 15558313
REMARK  2 active torsions:
REMARK  status: ('A' for Active; 'I' for Inactive)
REMARK    1  A    between atoms: O_2  and  C_13
REMARK    2  A    between atoms: C_11  and  C_12
REMARK                            x       y       z     vdW  Elec       q    Type
REMARK                         _______ _______ _______ _____ _____    ______ ____
ROOT
ATOM      1  O   UNL     1     104.204 125.008 147.455  0.00  0.00    +0.000 OA
ATOM      2  O   UNL     1     102.129 123.651 145.963  0.00  0.00    +0.000 OA
ATOM      3  O   UNL     1     101.437 125.268 148.215  0.00  0.00    +0.000 OA
ATOM      4  O   UNL     1     103.502 123.495 145.550  0.00  0.00    +0.000 OA
ATOM      5  C   UNL     1     103.151 124.322 146.701  0.00  0.00    +0.000 A 
ATOM      6  C   UNL     1     103.377 124.815 147.323  0.00  0.00    +0.000 A 
ATOM      7  C   UNL     1     104.803 124.682 146.932  0.00  0.00    +0.000 A 
ATOM      8  C   UNL     1     102.806 125.131 147.828  0.00  0.00    +0.000 A 
ATOM      9  C   UNL     1     103.737 123.987 146.168  0.00  0.00    +0.000 A 
ATOM     10  C   UNL     1     102.355 124.144 146.584  0.00  0.00    +0.000 A 
ATOM     11  C   UNL     1     104.568 124.169 146.285  0.00  0.00    +0.000 A 
ATOM     12  C   UNL     1     102.009 124.952 147.710  0.00  0.00    +0.000 A 
ATOM     13  C   UNL     1     101.783 124.459 147.089  0.00  0.00    +0.000 A 
ENDROOT
BRANCH   7  17
ATOM     14  O   UNL     1     107.164 124.515 148.535  0.00  0.00    +0.000 OA
ATOM     15  O   UNL     1     107.221 125.928 146.052  0.00  0.00    +0.000 OA
ATOM     16  O   UNL     1     107.988 125.401 147.414  0.00  0.00    +0.000 OA
ATOM     17  C   UNL     1     105.600 124.862 147.052  0.00  0.00    +0.000 A 
ATOM     18  C   UNL     1     106.012 125.306 146.492  0.00  0.00    +0.000 A 
ATOM     19  C   UNL     1     105.984 124.599 147.734  0.00  0.00    +0.000 A 
ATOM     20  C   UNL     1     106.780 124.778 147.854  0.00  0.00    +0.000 A 
ATOM     21  C   UNL     1     106.809 125.485 146.613  0.00  0.00    +0.000 A 
ATOM     22  C   UNL     1     107.192 125.222 147.294  0.00  0.00    +0.000 A 
ENDBRANCH   7  17
BRANCH   8  23
ATOM     23  O   UNL     1     103.032 125.624 148.449  0.00  0.00    +0.000 OA
ATOM     24  C   UNL     1     102.688 126.369 148.530  0.00  0.00    +0.000 C 
ENDBRANCH   8  23
TORSDOF 2
ENDMDL
MODEL 8
REMARK VINA RESULT:      -8.1     10.950     12.340
REMARK  Name = 15558313
REMARK  2 active torsions:
REMARK  status: ('A' for Active; 'I' for Inactive)
REMARK    1  A    between atoms: O_2  and  C_13
REMARK    2  A    between atoms: C_11  and  C_12
REMARK                            x       y       z     vdW  Elec       q    Type
REMARK                         _______ _______ _______ _____ _____    ______ ____
ROOT
ATOM      1  O   UNL     1     112.666 125.961 138.351  0.00  0.00    +0.000 OA
ATOM      2  O   UNL     1     114.314 124.232 136.717  0.00  0.00    +0.000 OA
ATOM      3  O   UNL     1     111.468 124.127 136.480  0.00  0.00    +0.000 OA
ATOM      4  O   UNL     1     114.953 125.136 137.642  0.00  0.00    +0.000 OA
ATOM      5  C   UNL     1     113.498 125.084 137.522  0.00  0.00    +0.000 A 
ATOM      6  C   UNL     1     112.752 125.351 137.751  0.00  0.00    +0.000 A 
ATOM      7  C   UNL     1     113.367 126.297 138.716  0.00  0.00    +0.000 A 
ATOM      8  C   UNL     1     112.075 125.033 137.404  0.00  0.00    +0.000 A 
ATOM      9  C   UNL     1     114.211 125.409 137.877  0.00  0.00    +0.000 A 
ATOM     10  C   UNL     1     113.567 124.499 136.946  0.00  0.00    +0.000 A 
ATOM     11  C   UNL     1     114.144 126.020 138.478  0.00  0.00    +0.000 A 
ATOM     12  C   UNL     1     112.145 124.447 136.828  0.00  0.00    +0.000 A 
ATOM     13  C   UNL     1     112.891 124.180 136.599  0.00  0.00    +0.000 A 
ENDROOT
BRANCH   7  17
ATOM     14  O   UNL     1     113.130 127.050 141.463  0.00  0.00    +0.000 OA
ATOM     15  O   UNL     1     113.164 129.058 139.430  0.00  0.00    +0.000 OA
ATOM     16  O   UNL     1     113.074 128.639 141.023  0.00  0.00    +0.000 OA
ATOM     17  C   UNL     1     113.294 126.884 139.293  0.00  0.00    +0.000 A 
ATOM     18  C   UNL     1     113.266 127.678 139.073  0.00  0.00    +0.000 A 
ATOM     19  C   UNL     1     113.249 126.674 140.090  0.00  0.00    +0.000 A 
ATOM     20  C   UNL     1     113.175 127.260 140.666  0.00  0.00    +0.000 A 
ATOM     21  C   UNL     1     113.192 128.264 139.650  0.00  0.00    +0.000 A 
ATOM     22  C   UNL     1     113.147 128.054 140.446  0.00  0.00    +0.000 A 
ENDBRANCH   7  17
BRANCH   8  23
ATOM     23  O   UNL     1     111.328 125.300 137.633  0.00  0.00    +0.000 OA
ATOM     24  C   UNL     1     110.803 125.588 137.067  0.00  0.00    +0.000 C 
ENDBRANCH   8  23
TORSDOF 2
ENDMDL
MODEL 9
REMARK VINA RESULT:      -8.0     12.966     13.607
REMARK  Name = 15558313
REMARK  2 active torsions:
REMARK  status: ('A' for Active; 'I' for Inactive)
REMARK    1  A    between atoms: O_2  and  C_13
REMARK    2  A    between atoms: C_11  and  C_12
REMARK                            x       y       z     vdW  Elec       q    Type
REMARK                         _______ _______ _______ _____ _____    ______ ____
ROOT
ATOM      1  O   UNL     1     113.021 126.452 136.730  0.00  0.00    +0.000 OA
ATOM      2  O   UNL     1     110.875 124.811 135.692  0.00  0.00    +0.000 OA
ATOM      3  O   UNL     1     113.021 123.600 137.140  0.00  0.00    +0.000 OA
ATOM      4  O   UNL     1     110.838 126.235 135.465  0.00  0.00    +0.000 OA
ATOM      5  C   UNL     1     111.936 125.619 136.205  0.00  0.00    +0.000 A 
ATOM      6  C   UNL     1     112.647 125.686 136.618  0.00  0.00    +0.000 A 
ATOM      7  C   UNL     1     112.649 127.156 136.408  0.00  0.00    +0.000 A 
ATOM      8  C   UNL     1     113.009 125.014 136.930  0.00  0.00    +0.000 A 
ATOM      9  C   UNL     1     111.549 126.313 135.876  0.00  0.00    +0.000 A 
ATOM     10  C   UNL     1     111.587 124.879 136.104  0.00  0.00    +0.000 A 
ATOM     11  C   UNL     1     111.908 127.086 135.979  0.00  0.00    +0.000 A 
ATOM     12  C   UNL     1     112.659 124.274 136.828  0.00  0.00    +0.000 A 
ATOM     13  C   UNL     1     111.948 124.206 136.415  0.00  0.00    +0.000 A 
ENDROOT
BRANCH   7  17
ATOM     14  O   UNL     1     114.403 129.213 135.478  0.00  0.00    +0.000 OA
ATOM     15  O   UNL     1     113.011 129.534 137.954  0.00  0.00    +0.000 OA
ATOM     16  O   UNL     1     114.060 130.112 136.819  0.00  0.00    +0.000 OA
ATOM     17  C   UNL     1     113.001 127.896 136.511  0.00  0.00    +0.000 A 
ATOM     18  C   UNL     1     112.830 128.345 137.181  0.00  0.00    +0.000 A 
ATOM     19  C   UNL     1     113.526 128.185 135.944  0.00  0.00    +0.000 A 
ATOM     20  C   UNL     1     113.878 128.923 136.046  0.00  0.00    +0.000 A 
ATOM     21  C   UNL     1     113.183 129.084 137.284  0.00  0.00    +0.000 A 
ATOM     22  C   UNL     1     113.707 129.373 136.716  0.00  0.00    +0.000 A 
ENDBRANCH   7  17
BRANCH   8  23
ATOM     23  O   UNL     1     113.720 125.081 137.342  0.00  0.00    +0.000 OA
ATOM     24  C   UNL     1     114.377 124.643 137.105  0.00  0.00    +0.000 C 
ENDBRANCH   8  23
TORSDOF 2
ENDMDL
MODEL 10
REMARK VINA RESULT:      -8.0     11.404     12.755
REMARK  Name = 15558313
REMARK  2 active torsions:
REMARK  status: ('A' for Active; 'I' for Inactive)
REMARK    1  A    between atoms: O_2  and  C_13
REMARK    2  A    between atoms: C_11  and  C_12
REMARK                            x       y       z     vdW  Elec       q    Type
REMARK                         _______ _______ _______ _____ _____    ______ ____
ROOT
ATOM      1  O   UNL     1     110.605 127.343 136.182  0.00  0.00    +0.000 OA
ATOM      2  O   UNL     1     108.084 128.676 135.691  0.00  0.00    +0.000 OA
ATOM      3  O   UNL     1     110.540 130.073 135.262  0.00  0.00    +0.000 OA
ATOM      4  O   UNL     1     108.073 127.309 136.151  0.00  0.00    +0.000 OA
ATOM      5  C   UNL     1     109.330 128.021 135.932  0.00  0.00    +0.000 A 
ATOM      6  C   UNL     1     110.155 128.035 135.942  0.00  0.00    +0.000 A 
ATOM      7  C   UNL     1     110.191 126.628 136.416  0.00  0.00    +0.000 A 
ATOM      8  C   UNL     1     110.559 128.719 135.718  0.00  0.00    +0.000 A 
ATOM      9  C   UNL     1     108.898 127.314 136.163  0.00  0.00    +0.000 A 
ATOM     10  C   UNL     1     108.909 128.690 135.700  0.00  0.00    +0.000 A 
ATOM     11  C   UNL     1     109.332 126.613 136.406  0.00  0.00    +0.000 A 
ATOM     12  C   UNL     1     110.137 129.388 135.486  0.00  0.00    +0.000 A 
ATOM     13  C   UNL     1     109.312 129.374 135.476  0.00  0.00    +0.000 A 
ENDROOT
BRANCH   7  17
ATOM     14  O   UNL     1     111.366 125.037 138.479  0.00  0.00    +0.000 OA
ATOM     15  O   UNL     1     111.563 124.211 135.750  0.00  0.00    +0.000 OA
ATOM     16  O   UNL     1     111.889 123.956 137.348  0.00  0.00    +0.000 OA
ATOM     17  C   UNL     1     110.615 125.960 136.648  0.00  0.00    +0.000 A 
ATOM     18  C   UNL     1     110.877 125.419 136.083  0.00  0.00    +0.000 A 
ATOM     19  C   UNL     1     110.779 125.832 137.447  0.00  0.00    +0.000 A 
ATOM     20  C   UNL     1     111.203 125.165 137.680  0.00  0.00    +0.000 A 
ATOM     21  C   UNL     1     111.302 124.751 136.316  0.00  0.00    +0.000 A 
ATOM     22  C   UNL     1     111.465 124.624 137.114  0.00  0.00    +0.000 A 
ENDBRANCH   7  17
BRANCH   8  23
ATOM     23  O   UNL     1     111.383 128.733 135.728  0.00  0.00    +0.000 OA
ATOM     24  C   UNL     1     111.799 128.944 135.048  0.00  0.00    +0.000 C 
ENDBRANCH   8  23
TORSDOF 2
ENDMDL
