MODEL 1
REMARK VINA RESULT:      -9.6      0.000      0.000
REMARK  Name = 44258673
REMARK  3 active torsions:
REMARK  status: ('A' for Active; 'I' for Inactive)
REMARK    1  A    between atoms: C_13  and  C_16
REMARK    2  A    between atoms: C_15  and  C_17
REMARK    3  A    between atoms: C_24  and  C_26
REMARK                            x       y       z     vdW  Elec       q    Type
REMARK                         _______ _______ _______ _____ _____    ______ ____
ROOT
ATOM      1  O   UNL     1     112.747 126.379 136.710  0.00  0.00    +0.000 OA
ATOM      2  O   UNL     1     111.585 123.758 137.224  0.00  0.00    +0.000 OA
ATOM      3  O   UNL     1     114.943 125.334 136.250  0.00  0.00    +0.000 OA
ATOM      4  O   UNL     1     114.772 126.972 136.153  0.00  0.00    +0.000 OA
ATOM      5  C   UNL     1     112.151 125.080 136.969  0.00  0.00    +0.000 A 
ATOM      6  C   UNL     1     112.833 125.560 136.758  0.00  0.00    +0.000 A 
ATOM      7  C   UNL     1     112.234 124.227 137.021  0.00  0.00    +0.000 A 
ATOM      8  C   UNL     1     113.565 125.212 136.605  0.00  0.00    +0.000 A 
ATOM      9  C   UNL     1     112.996 123.864 136.862  0.00  0.00    +0.000 A 
ATOM     10  C   UNL     1     113.666 124.359 136.652  0.00  0.00    +0.000 A 
ATOM     11  C   UNL     1     114.211 125.682 136.403  0.00  0.00    +0.000 A 
ATOM     12  C   UNL     1     113.394 126.850 136.508  0.00  0.00    +0.000 A 
ATOM     13  C   UNL     1     114.126 126.502 136.355  0.00  0.00    +0.000 A 
ENDROOT
BRANCH   5  20
ATOM     14  O   UNL     1     110.930 125.653 136.495  0.00  0.00    +0.000 OA
ATOM     15  O   UNL     1     111.680 125.364 138.525  0.00  0.00    +0.000 OA
ATOM     16  O   UNL     1     110.224 126.079 138.828  0.00  0.00    +0.000 OA
ATOM     17  O   UNL     1     109.239 126.509 137.577  0.00  0.00    +0.000 OA
ATOM     18  C   UNL     1     111.188 125.579 137.899  0.00  0.00    +0.000 C 
ATOM     19  C   UNL     1     110.460 125.937 138.050  0.00  0.00    +0.000 C 
ATOM     20  C   UNL     1     111.423 125.437 137.121  0.00  0.00    +0.000 C 
ATOM     21  C   UNL     1     109.967 126.152 137.424  0.00  0.00    +0.000 C 
ATOM     22  C   UNL     1     110.202 126.010 136.646  0.00  0.00    +0.000 C 
BRANCH  22  24
ATOM     23  O   UNL     1     109.775 125.840 135.294  0.00  0.00    +0.000 OA
ATOM     24  C   UNL     1     109.710 126.225 136.021  0.00  0.00    +0.000 C 
ENDBRANCH  22  24
ENDBRANCH   5  20
BRANCH  12  26
ATOM     25  O   UNL     1     113.050 130.126 136.311  0.00  0.00    +0.000 OA
ATOM     26  C   UNL     1     113.308 127.669 136.459  0.00  0.00    +0.000 A 
ATOM     27  C   UNL     1     113.120 128.022 135.737  0.00  0.00    +0.000 A 
ATOM     28  C   UNL     1     113.410 128.135 137.132  0.00  0.00    +0.000 A 
ATOM     29  C   UNL     1     113.034 128.840 135.688  0.00  0.00    +0.000 A 
ATOM     30  C   UNL     1     113.324 128.955 137.082  0.00  0.00    +0.000 A 
ATOM     31  C   UNL     1     113.136 129.307 136.361  0.00  0.00    +0.000 A 
ENDBRANCH  12  26
TORSDOF 3
ENDMDL
MODEL 2
REMARK VINA RESULT:      -9.5     10.392     12.972
REMARK  Name = 44258673
REMARK  3 active torsions:
REMARK  status: ('A' for Active; 'I' for Inactive)
REMARK    1  A    between atoms: C_13  and  C_16
REMARK    2  A    between atoms: C_15  and  C_17
REMARK    3  A    between atoms: C_24  and  C_26
REMARK                            x       y       z     vdW  Elec       q    Type
REMARK                         _______ _______ _______ _____ _____    ______ ____
ROOT
ATOM      1  O   UNL     1     105.114 125.151 147.400  0.00  0.00    +0.000 OA
ATOM      2  O   UNL     1     107.861 125.809 146.690  0.00  0.00    +0.000 OA
ATOM      3  O   UNL     1     105.864 124.330 149.611  0.00  0.00    +0.000 OA
ATOM      4  O   UNL     1     104.263 124.284 149.213  0.00  0.00    +0.000 OA
ATOM      5  C   UNL     1     106.478 125.485 147.029  0.00  0.00    +0.000 A 
ATOM      6  C   UNL     1     105.914 125.174 147.599  0.00  0.00    +0.000 A 
ATOM      7  C   UNL     1     107.313 125.512 147.231  0.00  0.00    +0.000 A 
ATOM      8  C   UNL     1     106.164 124.900 148.336  0.00  0.00    +0.000 A 
ATOM      9  C   UNL     1     107.573 125.227 147.999  0.00  0.00    +0.000 A 
ATOM     10  C   UNL     1     106.996 124.919 148.555  0.00  0.00    +0.000 A 
ATOM     11  C   UNL     1     105.614 124.604 148.874  0.00  0.00    +0.000 A 
ATOM     12  C   UNL     1     104.564 124.854 147.938  0.00  0.00    +0.000 A 
ATOM     13  C   UNL     1     104.814 124.580 148.676  0.00  0.00    +0.000 A 
ENDROOT
BRANCH   5  20
ATOM     14  O   UNL     1     105.912 126.518 146.220  0.00  0.00    +0.000 OA
ATOM     15  O   UNL     1     106.574 124.503 145.707  0.00  0.00    +0.000 OA
ATOM     16  O   UNL     1     106.056 125.044 144.237  0.00  0.00    +0.000 OA
ATOM     17  O   UNL     1     105.442 126.568 144.090  0.00  0.00    +0.000 OA
ATOM     18  C   UNL     1     106.267 125.265 145.634  0.00  0.00    +0.000 C 
ATOM     19  C   UNL     1     106.008 125.536 144.899  0.00  0.00    +0.000 C 
ATOM     20  C   UNL     1     106.219 125.756 146.295  0.00  0.00    +0.000 C 
ATOM     21  C   UNL     1     105.701 126.298 144.825  0.00  0.00    +0.000 C 
ATOM     22  C   UNL     1     105.652 126.790 145.486  0.00  0.00    +0.000 C 
BRANCH  22  24
ATOM     23  O   UNL     1     105.383 128.075 146.049  0.00  0.00    +0.000 OA
ATOM     24  C   UNL     1     105.345 127.552 145.412  0.00  0.00    +0.000 C 
ENDBRANCH  22  24
ENDBRANCH   5  20
BRANCH  12  26
ATOM     25  O   UNL     1     101.362 124.765 147.141  0.00  0.00    +0.000 OA
ATOM     26  C   UNL     1     103.764 124.831 147.739  0.00  0.00    +0.000 A 
ATOM     27  C   UNL     1     103.267 125.454 147.955  0.00  0.00    +0.000 A 
ATOM     28  C   UNL     1     103.460 124.186 147.324  0.00  0.00    +0.000 A 
ATOM     29  C   UNL     1     102.467 125.432 147.755  0.00  0.00    +0.000 A 
ATOM     30  C   UNL     1     102.659 124.164 147.125  0.00  0.00    +0.000 A 
ATOM     31  C   UNL     1     102.163 124.786 147.340  0.00  0.00    +0.000 A 
ENDBRANCH  12  26
TORSDOF 3
ENDMDL
MODEL 3
REMARK VINA RESULT:      -9.5      1.356      2.970
REMARK  Name = 44258673
REMARK  3 active torsions:
REMARK  status: ('A' for Active; 'I' for Inactive)
REMARK    1  A    between atoms: C_13  and  C_16
REMARK    2  A    between atoms: C_15  and  C_17
REMARK    3  A    between atoms: C_24  and  C_26
REMARK                            x       y       z     vdW  Elec       q    Type
REMARK                         _______ _______ _______ _____ _____    ______ ____
ROOT
ATOM      1  O   UNL     1     112.473 127.342 136.085  0.00  0.00    +0.000 OA
ATOM      2  O   UNL     1     111.508 124.640 136.583  0.00  0.00    +0.000 OA
ATOM      3  O   UNL     1     110.534 127.782 134.612  0.00  0.00    +0.000 OA
ATOM      4  O   UNL     1     111.662 128.959 134.865  0.00  0.00    +0.000 OA
ATOM      5  C   UNL     1     112.007 125.991 136.344  0.00  0.00    +0.000 A 
ATOM      6  C   UNL     1     111.909 126.754 135.958  0.00  0.00    +0.000 A 
ATOM      7  C   UNL     1     111.422 125.375 136.216  0.00  0.00    +0.000 A 
ATOM      8  C   UNL     1     111.263 126.900 135.467  0.00  0.00    +0.000 A 
ATOM      9  C   UNL     1     110.749 125.527 135.705  0.00  0.00    +0.000 A 
ATOM     10  C   UNL     1     110.668 126.295 135.328  0.00  0.00    +0.000 A 
ATOM     11  C   UNL     1     111.180 127.635 135.103  0.00  0.00    +0.000 A 
ATOM     12  C   UNL     1     112.391 128.078 135.720  0.00  0.00    +0.000 A 
ATOM     13  C   UNL     1     111.744 128.225 135.229  0.00  0.00    +0.000 A 
ENDROOT
BRANCH   5  20
ATOM     14  O   UNL     1     113.372 125.602 136.509  0.00  0.00    +0.000 OA
ATOM     15  O   UNL     1     111.875 126.220 137.973  0.00  0.00    +0.000 OA
ATOM     16  O   UNL     1     113.175 125.945 138.952  0.00  0.00    +0.000 OA
ATOM     17  O   UNL     1     114.605 125.442 138.303  0.00  0.00    +0.000 OA
ATOM     18  C   UNL     1     112.590 125.968 137.648  0.00  0.00    +0.000 C 
ATOM     19  C   UNL     1     113.240 125.831 138.137  0.00  0.00    +0.000 C 
ATOM     20  C   UNL     1     112.656 125.854 136.833  0.00  0.00    +0.000 C 
ATOM     21  C   UNL     1     113.955 125.579 137.812  0.00  0.00    +0.000 C 
ATOM     22  C   UNL     1     114.022 125.465 136.998  0.00  0.00    +0.000 C 
BRANCH  22  24
ATOM     23  O   UNL     1     114.964 125.475 135.925  0.00  0.00    +0.000 OA
ATOM     24  C   UNL     1     114.737 125.213 136.673  0.00  0.00    +0.000 C 
ENDBRANCH  22  24
ENDBRANCH   5  20
BRANCH  12  26
ATOM     25  O   UNL     1     114.647 130.432 136.229  0.00  0.00    +0.000 OA
ATOM     26  C   UNL     1     112.955 128.666 135.847  0.00  0.00    +0.000 A 
ATOM     27  C   UNL     1     112.865 129.195 136.474  0.00  0.00    +0.000 A 
ATOM     28  C   UNL     1     113.609 128.726 135.347  0.00  0.00    +0.000 A 
ATOM     29  C   UNL     1     113.429 129.783 136.601  0.00  0.00    +0.000 A 
ATOM     30  C   UNL     1     114.172 129.315 135.475  0.00  0.00    +0.000 A 
ATOM     31  C   UNL     1     114.083 129.843 136.101  0.00  0.00    +0.000 A 
ENDBRANCH  12  26
TORSDOF 3
ENDMDL
MODEL 4
REMARK VINA RESULT:      -9.4      1.568      3.902
REMARK  Name = 44258673
REMARK  3 active torsions:
REMARK  status: ('A' for Active; 'I' for Inactive)
REMARK    1  A    between atoms: C_13  and  C_16
REMARK    2  A    between atoms: C_15  and  C_17
REMARK    3  A    between atoms: C_24  and  C_26
REMARK                            x       y       z     vdW  Elec       q    Type
REMARK                         _______ _______ _______ _____ _____    ______ ____
ROOT
ATOM      1  O   UNL     1     112.106 126.709 136.220  0.00  0.00    +0.000 OA
ATOM      2  O   UNL     1     110.361 128.771 135.133  0.00  0.00    +0.000 OA
ATOM      3  O   UNL     1     110.596 124.950 135.353  0.00  0.00    +0.000 OA
ATOM      4  O   UNL     1     111.962 124.531 136.179  0.00  0.00    +0.000 OA
ATOM      5  C   UNL     1     111.248 127.751 135.685  0.00  0.00    +0.000 A 
ATOM      6  C   UNL     1     111.423 126.918 135.807  0.00  0.00    +0.000 A 
ATOM      7  C   UNL     1     110.538 127.974 135.255  0.00  0.00    +0.000 A 
ATOM      8  C   UNL     1     110.920 126.331 135.518  0.00  0.00    +0.000 A 
ATOM      9  C   UNL     1     110.014 127.364 134.954  0.00  0.00    +0.000 A 
ATOM     10  C   UNL     1     110.206 126.537 135.086  0.00  0.00    +0.000 A 
ATOM     11  C   UNL     1     111.100 125.536 135.642  0.00  0.00    +0.000 A 
ATOM     12  C   UNL     1     112.286 125.912 136.344  0.00  0.00    +0.000 A 
ATOM     13  C   UNL     1     111.782 125.326 136.055  0.00  0.00    +0.000 A 
ENDROOT
BRANCH   5  20
ATOM     14  O   UNL     1     112.435 128.535 135.556  0.00  0.00    +0.000 OA
ATOM     15  O   UNL     1     110.909 128.497 137.116  0.00  0.00    +0.000 OA
ATOM     16  O   UNL     1     111.927 129.656 137.703  0.00  0.00    +0.000 OA
ATOM     17  O   UNL     1     113.283 130.067 136.858  0.00  0.00    +0.000 OA
ATOM     18  C   UNL     1     111.587 128.703 136.694  0.00  0.00    +0.000 C 
ATOM     19  C   UNL     1     112.097 129.282 136.987  0.00  0.00    +0.000 C 
ATOM     20  C   UNL     1     111.756 128.329 135.978  0.00  0.00    +0.000 C 
ATOM     21  C   UNL     1     112.774 129.488 136.565  0.00  0.00    +0.000 C 
ATOM     22  C   UNL     1     112.944 129.115 135.849  0.00  0.00    +0.000 C 
BRANCH  22  24
ATOM     23  O   UNL     1     113.655 129.191 134.612  0.00  0.00    +0.000 OA
ATOM     24  C   UNL     1     113.622 129.320 135.426  0.00  0.00    +0.000 C 
ENDBRANCH  22  24
ENDBRANCH   5  20
BRANCH  12  26
ATOM     25  O   UNL     1     115.016 125.077 138.000  0.00  0.00    +0.000 OA
ATOM     26  C   UNL     1     112.968 125.704 136.758  0.00  0.00    +0.000 A 
ATOM     27  C   UNL     1     112.953 125.658 137.582  0.00  0.00    +0.000 A 
ATOM     28  C   UNL     1     113.666 125.541 136.348  0.00  0.00    +0.000 A 
ATOM     29  C   UNL     1     113.636 125.449 137.995  0.00  0.00    +0.000 A 
ATOM     30  C   UNL     1     114.348 125.332 136.762  0.00  0.00    +0.000 A 
ATOM     31  C   UNL     1     114.333 125.286 137.585  0.00  0.00    +0.000 A 
ENDBRANCH  12  26
TORSDOF 3
ENDMDL
MODEL 5
REMARK VINA RESULT:      -9.3      1.227      3.366
REMARK  Name = 44258673
REMARK  3 active torsions:
REMARK  status: ('A' for Active; 'I' for Inactive)
REMARK    1  A    between atoms: C_13  and  C_16
REMARK    2  A    between atoms: C_15  and  C_17
REMARK    3  A    between atoms: C_24  and  C_26
REMARK                            x       y       z     vdW  Elec       q    Type
REMARK                         _______ _______ _______ _____ _____    ______ ____
ROOT
ATOM      1  O   UNL     1     112.018 125.964 136.638  0.00  0.00    +0.000 OA
ATOM      2  O   UNL     1     114.689 125.839 137.791  0.00  0.00    +0.000 OA
ATOM      3  O   UNL     1     112.072 123.528 136.205  0.00  0.00    +0.000 OA
ATOM      4  O   UNL     1     110.743 124.411 135.786  0.00  0.00    +0.000 OA
ATOM      5  C   UNL     1     113.349 125.920 137.216  0.00  0.00    +0.000 A 
ATOM      6  C   UNL     1     112.682 125.522 136.848  0.00  0.00    +0.000 A 
ATOM      7  C   UNL     1     114.044 125.465 137.437  0.00  0.00    +0.000 A 
ATOM      8  C   UNL     1     112.700 124.710 136.703  0.00  0.00    +0.000 A 
ATOM      9  C   UNL     1     114.063 124.619 137.286  0.00  0.00    +0.000 A 
ATOM     10  C   UNL     1     113.387 124.239 136.917  0.00  0.00    +0.000 A 
ATOM     11  C   UNL     1     112.054 124.340 136.350  0.00  0.00    +0.000 A 
ATOM     12  C   UNL     1     111.371 125.593 136.284  0.00  0.00    +0.000 A 
ATOM     13  C   UNL     1     111.389 124.781 136.140  0.00  0.00    +0.000 A 
ENDROOT
BRANCH   5  20
ATOM     14  O   UNL     1     113.493 127.263 136.748  0.00  0.00    +0.000 OA
ATOM     15  O   UNL     1     112.953 126.484 138.715  0.00  0.00    +0.000 OA
ATOM     16  O   UNL     1     112.898 128.109 138.997  0.00  0.00    +0.000 OA
ATOM     17  O   UNL     1     113.240 129.169 137.780  0.00  0.00    +0.000 OA
ATOM     18  C   UNL     1     113.124 127.014 138.106  0.00  0.00    +0.000 C 
ATOM     19  C   UNL     1     113.097 127.827 138.247  0.00  0.00    +0.000 C 
ATOM     20  C   UNL     1     113.322 126.732 137.357  0.00  0.00    +0.000 C 
ATOM     21  C   UNL     1     113.267 128.357 137.638  0.00  0.00    +0.000 C 
ATOM     22  C   UNL     1     113.466 128.075 136.889  0.00  0.00    +0.000 C 
BRANCH  22  24
ATOM     23  O   UNL     1     114.156 128.387 135.678  0.00  0.00    +0.000 OA
ATOM     24  C   UNL     1     113.636 128.605 136.280  0.00  0.00    +0.000 C 
ENDBRANCH  22  24
ENDBRANCH   5  20
BRANCH  12  26
ATOM     25  O   UNL     1     108.713 127.361 135.448  0.00  0.00    +0.000 OA
ATOM     26  C   UNL     1     110.707 126.035 136.074  0.00  0.00    +0.000 A 
ATOM     27  C   UNL     1     110.109 126.169 136.628  0.00  0.00    +0.000 A 
ATOM     28  C   UNL     1     110.639 126.343 135.312  0.00  0.00    +0.000 A 
ATOM     29  C   UNL     1     109.445 126.611 136.419  0.00  0.00    +0.000 A 
ATOM     30  C   UNL     1     109.974 126.786 135.104  0.00  0.00    +0.000 A 
ATOM     31  C   UNL     1     109.377 126.919 135.657  0.00  0.00    +0.000 A 
ENDBRANCH  12  26
TORSDOF 3
ENDMDL
MODEL 6
REMARK VINA RESULT:      -9.1      1.788      3.493
REMARK  Name = 44258673
REMARK  3 active torsions:
REMARK  status: ('A' for Active; 'I' for Inactive)
REMARK    1  A    between atoms: C_13  and  C_16
REMARK    2  A    between atoms: C_15  and  C_17
REMARK    3  A    between atoms: C_24  and  C_26
REMARK                            x       y       z     vdW  Elec       q    Type
REMARK                         _______ _______ _______ _____ _____    ______ ____
ROOT
ATOM      1  O   UNL     1     111.543 126.551 136.777  0.00  0.00    +0.000 OA
ATOM      2  O   UNL     1     109.825 127.469 134.613  0.00  0.00    +0.000 OA
ATOM      3  O   UNL     1     111.295 124.213 136.005  0.00  0.00    +0.000 OA
ATOM      4  O   UNL     1     112.223 124.551 137.327  0.00  0.00    +0.000 OA
ATOM      5  C   UNL     1     110.688 127.027 135.704  0.00  0.00    +0.000 A 
ATOM      6  C   UNL     1     111.080 126.382 136.116  0.00  0.00    +0.000 A 
ATOM      7  C   UNL     1     110.204 126.856 135.014  0.00  0.00    +0.000 A 
ATOM      8  C   UNL     1     110.997 125.602 135.859  0.00  0.00    +0.000 A 
ATOM      9  C   UNL     1     110.118 126.044 134.747  0.00  0.00    +0.000 A 
ATOM     10  C   UNL     1     110.517 125.413 135.171  0.00  0.00    +0.000 A 
ATOM     11  C   UNL     1     111.378 124.992 136.262  0.00  0.00    +0.000 A 
ATOM     12  C   UNL     1     111.925 125.940 137.181  0.00  0.00    +0.000 A 
ATOM     13  C   UNL     1     111.842 125.161 136.924  0.00  0.00    +0.000 A 
ENDROOT
BRANCH   5  20
ATOM     14  O   UNL     1     110.303 128.087 136.581  0.00  0.00    +0.000 OA
ATOM     15  O   UNL     1     111.815 128.011 135.008  0.00  0.00    +0.000 OA
ATOM     16  O   UNL     1     111.993 129.564 135.537  0.00  0.00    +0.000 OA
ATOM     17  O   UNL     1     111.044 130.132 136.761  0.00  0.00    +0.000 OA
ATOM     18  C   UNL     1     111.340 128.295 135.620  0.00  0.00    +0.000 C 
ATOM     19  C   UNL     1     111.429 129.071 135.885  0.00  0.00    +0.000 C 
ATOM     20  C   UNL     1     110.777 127.802 135.968  0.00  0.00    +0.000 C 
ATOM     21  C   UNL     1     110.955 129.355 136.497  0.00  0.00    +0.000 C 
ATOM     22  C   UNL     1     110.391 128.864 136.845  0.00  0.00    +0.000 C 
BRANCH  22  24
ATOM     23  O   UNL     1     109.268 128.707 137.714  0.00  0.00    +0.000 OA
ATOM     24  C   UNL     1     109.917 129.148 137.457  0.00  0.00    +0.000 C 
ENDBRANCH  22  24
ENDBRANCH   5  20
BRANCH  12  26
ATOM     25  O   UNL     1     113.776 126.620 139.827  0.00  0.00    +0.000 OA
ATOM     26  C   UNL     1     112.388 126.110 137.842  0.00  0.00    +0.000 A 
ATOM     27  C   UNL     1     112.041 126.147 138.590  0.00  0.00    +0.000 A 
ATOM     28  C   UNL     1     113.198 126.243 137.756  0.00  0.00    +0.000 A 
ATOM     29  C   UNL     1     112.504 126.317 139.251  0.00  0.00    +0.000 A 
ATOM     30  C   UNL     1     113.660 126.413 138.418  0.00  0.00    +0.000 A 
ATOM     31  C   UNL     1     113.314 126.450 139.165  0.00  0.00    +0.000 A 
ENDBRANCH  12  26
TORSDOF 3
ENDMDL
MODEL 7
REMARK VINA RESULT:      -9.1     10.696     13.171
REMARK  Name = 44258673
REMARK  3 active torsions:
REMARK  status: ('A' for Active; 'I' for Inactive)
REMARK    1  A    between atoms: C_13  and  C_16
REMARK    2  A    between atoms: C_15  and  C_17
REMARK    3  A    between atoms: C_24  and  C_26
REMARK                            x       y       z     vdW  Elec       q    Type
REMARK                         _______ _______ _______ _____ _____    ______ ____
ROOT
ATOM      1  O   UNL     1     104.182 125.745 147.276  0.00  0.00    +0.000 OA
ATOM      2  O   UNL     1     104.532 123.614 145.323  0.00  0.00    +0.000 OA
ATOM      3  O   UNL     1     102.158 124.628 148.159  0.00  0.00    +0.000 OA
ATOM      4  O   UNL     1     102.669 126.050 148.820  0.00  0.00    +0.000 OA
ATOM      5  C   UNL     1     104.372 124.691 146.296  0.00  0.00    +0.000 A 
ATOM      6  C   UNL     1     103.926 125.034 146.946  0.00  0.00    +0.000 A 
ATOM      7  C   UNL     1     104.110 123.950 145.948  0.00  0.00    +0.000 A 
ATOM      8  C   UNL     1     103.252 124.661 147.241  0.00  0.00    +0.000 A 
ATOM      9  C   UNL     1     103.408 123.562 146.254  0.00  0.00    +0.000 A 
ATOM     10  C   UNL     1     102.975 123.920 146.905  0.00  0.00    +0.000 A 
ATOM     11  C   UNL     1     102.833 125.000 147.865  0.00  0.00    +0.000 A 
ATOM     12  C   UNL     1     103.763 126.084 147.901  0.00  0.00    +0.000 A 
ATOM     13  C   UNL     1     103.088 125.712 148.196  0.00  0.00    +0.000 A 
ENDROOT
BRANCH   5  20
ATOM     14  O   UNL     1     104.973 125.679 145.455  0.00  0.00    +0.000 OA
ATOM     15  O   UNL     1     105.866 124.235 146.827  0.00  0.00    +0.000 OA
ATOM     16  O   UNL     1     107.213 124.994 146.252  0.00  0.00    +0.000 OA
ATOM     17  O   UNL     1     107.067 126.210 145.147  0.00  0.00    +0.000 OA
ATOM     18  C   UNL     1     105.792 124.842 146.274  0.00  0.00    +0.000 C 
ATOM     19  C   UNL     1     106.466 125.222 145.987  0.00  0.00    +0.000 C 
ATOM     20  C   UNL     1     105.045 125.071 146.008  0.00  0.00    +0.000 C 
ATOM     21  C   UNL     1     106.393 125.830 145.434  0.00  0.00    +0.000 C 
ATOM     22  C   UNL     1     105.646 126.059 145.168  0.00  0.00    +0.000 C 
BRANCH  22  24
ATOM     23  O   UNL     1     105.185 126.529 143.900  0.00  0.00    +0.000 OA
ATOM     24  C   UNL     1     105.573 126.667 144.615  0.00  0.00    +0.000 C 
ENDBRANCH  22  24
ENDBRANCH   5  20
BRANCH  12  26
ATOM     25  O   UNL     1     104.789 128.929 149.223  0.00  0.00    +0.000 OA
ATOM     26  C   UNL     1     104.019 126.796 148.231  0.00  0.00    +0.000 A 
ATOM     27  C   UNL     1     104.584 126.791 148.833  0.00  0.00    +0.000 A 
ATOM     28  C   UNL     1     103.710 127.511 147.960  0.00  0.00    +0.000 A 
ATOM     29  C   UNL     1     104.840 127.502 149.163  0.00  0.00    +0.000 A 
ATOM     30  C   UNL     1     103.967 128.222 148.291  0.00  0.00    +0.000 A 
ATOM     31  C   UNL     1     104.532 128.218 148.892  0.00  0.00    +0.000 A 
ENDBRANCH  12  26
TORSDOF 3
ENDMDL
MODEL 8
REMARK VINA RESULT:      -9.1      1.828      2.444
REMARK  Name = 44258673
REMARK  3 active torsions:
REMARK  status: ('A' for Active; 'I' for Inactive)
REMARK    1  A    between atoms: C_13  and  C_16
REMARK    2  A    between atoms: C_15  and  C_17
REMARK    3  A    between atoms: C_24  and  C_26
REMARK                            x       y       z     vdW  Elec       q    Type
REMARK                         _______ _______ _______ _____ _____    ______ ____
ROOT
ATOM      1  O   UNL     1     112.705 126.044 138.281  0.00  0.00    +0.000 OA
ATOM      2  O   UNL     1     111.095 124.494 136.415  0.00  0.00    +0.000 OA
ATOM      3  O   UNL     1     114.741 124.841 137.551  0.00  0.00    +0.000 OA
ATOM      4  O   UNL     1     114.845 126.007 138.713  0.00  0.00    +0.000 OA
ATOM      5  C   UNL     1     111.887 125.280 137.356  0.00  0.00    +0.000 A 
ATOM      6  C   UNL     1     112.654 125.461 137.700  0.00  0.00    +0.000 A 
ATOM      7  C   UNL     1     111.827 124.673 136.750  0.00  0.00    +0.000 A 
ATOM      8  C   UNL     1     113.333 125.060 137.457  0.00  0.00    +0.000 A 
ATOM      9  C   UNL     1     112.534 124.256 136.497  0.00  0.00    +0.000 A 
ATOM     10  C   UNL     1     113.292 124.450 136.852  0.00  0.00    +0.000 A 
ATOM     11  C   UNL     1     114.062 125.242 137.794  0.00  0.00    +0.000 A 
ATOM     12  C   UNL     1     113.436 126.226 138.619  0.00  0.00    +0.000 A 
ATOM     13  C   UNL     1     114.115 125.825 138.375  0.00  0.00    +0.000 A 
ENDROOT
BRANCH   5  20
ATOM     14  O   UNL     1     110.833 125.465 138.303  0.00  0.00    +0.000 OA
ATOM     15  O   UNL     1     111.303 126.536 136.461  0.00  0.00    +0.000 OA
ATOM     16  O   UNL     1     109.957 127.350 136.960  0.00  0.00    +0.000 OA
ATOM     17  O   UNL     1     109.195 126.907 138.354  0.00  0.00    +0.000 OA
ATOM     18  C   UNL     1     110.922 126.315 137.158  0.00  0.00    +0.000 C 
ATOM     19  C   UNL     1     110.249 126.721 137.408  0.00  0.00    +0.000 C 
ATOM     20  C   UNL     1     111.214 125.686 137.606  0.00  0.00    +0.000 C 
ATOM     21  C   UNL     1     109.868 126.500 138.105  0.00  0.00    +0.000 C 
ATOM     22  C   UNL     1     110.160 125.871 138.553  0.00  0.00    +0.000 C 
BRANCH  22  24
ATOM     23  O   UNL     1     110.206 125.289 139.857  0.00  0.00    +0.000 OA
ATOM     24  C   UNL     1     109.779 125.650 139.250  0.00  0.00    +0.000 C 
ENDBRANCH  22  24
ENDBRANCH   5  20
BRANCH  12  26
ATOM     25  O   UNL     1     113.641 128.562 140.941  0.00  0.00    +0.000 OA
ATOM     26  C   UNL     1     113.487 126.810 139.200  0.00  0.00    +0.000 A 
ATOM     27  C   UNL     1     113.523 127.605 138.983  0.00  0.00    +0.000 A 
ATOM     28  C   UNL     1     113.503 126.598 139.997  0.00  0.00    +0.000 A 
ATOM     29  C   UNL     1     113.574 128.189 139.564  0.00  0.00    +0.000 A 
ATOM     30  C   UNL     1     113.554 127.183 140.577  0.00  0.00    +0.000 A 
ATOM     31  C   UNL     1     113.590 127.977 140.361  0.00  0.00    +0.000 A 
ENDBRANCH  12  26
TORSDOF 3
ENDMDL
MODEL 9
REMARK VINA RESULT:      -9.0      2.045      5.227
REMARK  Name = 44258673
REMARK  3 active torsions:
REMARK  status: ('A' for Active; 'I' for Inactive)
REMARK    1  A    between atoms: C_13  and  C_16
REMARK    2  A    between atoms: C_15  and  C_17
REMARK    3  A    between atoms: C_24  and  C_26
REMARK                            x       y       z     vdW  Elec       q    Type
REMARK                         _______ _______ _______ _____ _____    ______ ____
ROOT
ATOM      1  O   UNL     1     110.440 128.011 135.926  0.00  0.00    +0.000 OA
ATOM      2  O   UNL     1     110.808 130.898 136.023  0.00  0.00    +0.000 OA
ATOM      3  O   UNL     1     107.987 128.312 135.779  0.00  0.00    +0.000 OA
ATOM      4  O   UNL     1     108.634 126.794 135.781  0.00  0.00    +0.000 OA
ATOM      5  C   UNL     1     110.642 129.449 135.975  0.00  0.00    +0.000 A 
ATOM      6  C   UNL     1     110.116 128.770 135.925  0.00  0.00    +0.000 A 
ATOM      7  C   UNL     1     110.311 130.241 135.975  0.00  0.00    +0.000 A 
ATOM      8  C   UNL     1     109.298 128.870 135.876  0.00  0.00    +0.000 A 
ATOM      9  C   UNL     1     109.459 130.346 135.924  0.00  0.00    +0.000 A 
ATOM     10  C   UNL     1     108.950 129.656 135.874  0.00  0.00    +0.000 A 
ATOM     11  C   UNL     1     108.805 128.212 135.828  0.00  0.00    +0.000 A 
ATOM     12  C   UNL     1     109.945 127.352 135.878  0.00  0.00    +0.000 A 
ATOM     13  C   UNL     1     109.127 127.452 135.829  0.00  0.00    +0.000 A 
ENDROOT
BRANCH   5  20
ATOM     14  O   UNL     1     111.812 129.187 136.754  0.00  0.00    +0.000 OA
ATOM     15  O   UNL     1     111.567 129.531 134.612  0.00  0.00    +0.000 OA
ATOM     16  O   UNL     1     113.199 129.311 134.708  0.00  0.00    +0.000 OA
ATOM     17  O   UNL     1     113.906 129.008 136.167  0.00  0.00    +0.000 OA
ATOM     18  C   UNL     1     111.920 129.380 135.342  0.00  0.00    +0.000 C 
ATOM     19  C   UNL     1     112.737 129.269 135.390  0.00  0.00    +0.000 C 
ATOM     20  C   UNL     1     111.457 129.338 136.024  0.00  0.00    +0.000 C 
ATOM     21  C   UNL     1     113.090 129.118 136.120  0.00  0.00    +0.000 C 
ATOM     22  C   UNL     1     112.628 129.077 136.802  0.00  0.00    +0.000 C 
BRANCH  22  24
ATOM     23  O   UNL     1     112.583 129.113 138.229  0.00  0.00    +0.000 OA
ATOM     24  C   UNL     1     112.981 128.926 137.532  0.00  0.00    +0.000 C 
ENDBRANCH  22  24
ENDBRANCH   5  20
BRANCH  12  26
ATOM     25  O   UNL     1     111.240 124.317 135.884  0.00  0.00    +0.000 OA
ATOM     26  C   UNL     1     110.268 126.593 135.879  0.00  0.00    +0.000 A 
ATOM     27  C   UNL     1     110.421 126.211 136.594  0.00  0.00    +0.000 A 
ATOM     28  C   UNL     1     110.440 126.217 135.165  0.00  0.00    +0.000 A 
ATOM     29  C   UNL     1     110.745 125.453 136.595  0.00  0.00    +0.000 A 
ATOM     30  C   UNL     1     110.763 125.458 135.167  0.00  0.00    +0.000 A 
ATOM     31  C   UNL     1     110.916 125.076 135.882  0.00  0.00    +0.000 A 
ENDBRANCH  12  26
TORSDOF 3
ENDMDL
MODEL 10
REMARK VINA RESULT:      -9.0      1.500      3.108
REMARK  Name = 44258673
REMARK  3 active torsions:
REMARK  status: ('A' for Active; 'I' for Inactive)
REMARK    1  A    between atoms: C_13  and  C_16
REMARK    2  A    between atoms: C_15  and  C_17
REMARK    3  A    between atoms: C_24  and  C_26
REMARK                            x       y       z     vdW  Elec       q    Type
REMARK                         _______ _______ _______ _____ _____    ______ ____
ROOT
ATOM      1  O   UNL     1     111.736 127.643 136.214  0.00  0.00    +0.000 OA
ATOM      2  O   UNL     1     114.185 126.257 136.964  0.00  0.00    +0.000 OA
ATOM      3  O   UNL     1     113.059 129.404 135.084  0.00  0.00    +0.000 OA
ATOM      4  O   UNL     1     111.411 129.490 135.097  0.00  0.00    +0.000 OA
ATOM      5  C   UNL     1     112.947 126.938 136.596  0.00  0.00    +0.000 A 
ATOM      6  C   UNL     1     112.560 127.600 136.207  0.00  0.00    +0.000 A 
ATOM      7  C   UNL     1     113.805 126.889 136.593  0.00  0.00    +0.000 A 
ATOM      8  C   UNL     1     113.001 128.187 135.830  0.00  0.00    +0.000 A 
ATOM      9  C   UNL     1     114.264 127.500 136.201  0.00  0.00    +0.000 A 
ATOM     10  C   UNL     1     113.860 128.154 135.817  0.00  0.00    +0.000 A 
ATOM     11  C   UNL     1     112.618 128.817 135.461  0.00  0.00    +0.000 A 
ATOM     12  C   UNL     1     111.353 128.273 135.843  0.00  0.00    +0.000 A 
ATOM     13  C   UNL     1     111.794 128.860 135.467  0.00  0.00    +0.000 A 
ENDROOT
BRANCH   5  20
ATOM     14  O   UNL     1     112.180 125.735 136.531  0.00  0.00    +0.000 OA
ATOM     15  O   UNL     1     112.686 127.017 138.223  0.00  0.00    +0.000 OA
ATOM     16  O   UNL     1     111.788 125.853 138.972  0.00  0.00    +0.000 OA
ATOM     17  O   UNL     1     111.151 124.611 138.093  0.00  0.00    +0.000 OA
ATOM     18  C   UNL     1     112.368 126.396 137.784  0.00  0.00    +0.000 C 
ATOM     19  C   UNL     1     111.919 125.814 138.158  0.00  0.00    +0.000 C 
ATOM     20  C   UNL     1     112.499 126.357 136.970  0.00  0.00    +0.000 C 
ATOM     21  C   UNL     1     111.600 125.193 137.719  0.00  0.00    +0.000 C 
ATOM     22  C   UNL     1     111.730 125.153 136.905  0.00  0.00    +0.000 C 
BRANCH  22  24
ATOM     23  O   UNL     1     111.104 124.674 135.714  0.00  0.00    +0.000 OA
ATOM     24  C   UNL     1     111.412 124.531 136.466  0.00  0.00    +0.000 C 
ENDBRANCH  22  24
ENDBRANCH   5  20
BRANCH  12  26
ATOM     25  O   UNL     1     108.058 128.445 135.872  0.00  0.00    +0.000 OA
ATOM     26  C   UNL     1     110.529 128.316 135.850  0.00  0.00    +0.000 A 
ATOM     27  C   UNL     1     110.142 128.699 136.470  0.00  0.00    +0.000 A 
ATOM     28  C   UNL     1     110.093 127.976 135.238  0.00  0.00    +0.000 A 
ATOM     29  C   UNL     1     109.318 128.741 136.477  0.00  0.00    +0.000 A 
ATOM     30  C   UNL     1     109.269 128.019 135.246  0.00  0.00    +0.000 A 
ATOM     31  C   UNL     1     108.882 128.401 135.865  0.00  0.00    +0.000 A 
ENDBRANCH  12  26
TORSDOF 3
ENDMDL
