MODEL 1
REMARK VINA RESULT:      -9.9      0.000      0.000
REMARK  Name = 10076238
REMARK  7 active torsions:
REMARK  status: ('A' for Active; 'I' for Inactive)
REMARK    1  A    between atoms: O_1  and  C_14
REMARK    2  A    between atoms: O_1  and  C_18
REMARK    3  A    between atoms: O_6  and  C_20
REMARK    4  A    between atoms: O_6  and  C_25
REMARK    5  A    between atoms: C_15  and  C_23
REMARK    6  A    between atoms: C_21  and  C_24
REMARK    7  A    between atoms: C_28  and  C_29
REMARK                            x       y       z     vdW  Elec       q    Type
REMARK                         _______ _______ _______ _____ _____    ______ ____
ROOT
ATOM      1  O   UNL     1     111.634 130.273 136.481  0.00  0.00    +0.000 OA
ATOM      2  O   UNL     1     110.177 132.034 137.429  0.00  0.00    +0.000 OA
ATOM      3  O   UNL     1     111.814 132.137 137.600  0.00  0.00    +0.000 OA
ATOM      4  C   UNL     1     110.330 130.807 136.711  0.00  0.00    +0.000 C 
ATOM      5  C   UNL     1     110.663 131.447 137.113  0.00  0.00    +0.000 C 
ATOM      6  C   UNL     1     111.481 131.498 137.198  0.00  0.00    +0.000 C 
ATOM      7  C   UNL     1     110.815 130.220 136.394  0.00  0.00    +0.000 C 
ATOM      8  C   UNL     1     111.967 130.911 136.882  0.00  0.00    +0.000 C 
ENDROOT
BRANCH   8  10
ATOM      9  O   UNL     1     113.274 130.934 136.303  0.00  0.00    +0.000 OA
ATOM     10  C   UNL     1     112.786 130.963 136.968  0.00  0.00    +0.000 C 
ENDBRANCH   8  10
BRANCH   4  11
ATOM     11  O   UNL     1     109.511 130.756 136.625  0.00  0.00    +0.000 OA
BRANCH  11  17
ATOM     12  O   UNL     1     109.503 131.558 135.393  0.00  0.00    +0.000 OA
ATOM     13  O   UNL     1     107.807 132.141 134.656  0.00  0.00    +0.000 OA
ATOM     14  O   UNL     1     107.739 130.980 136.447  0.00  0.00    +0.000 OA
ATOM     15  C   UNL     1     108.184 131.725 135.260  0.00  0.00    +0.000 C 
ATOM     16  C   UNL     1     108.318 131.275 135.939  0.00  0.00    +0.000 C 
ATOM     17  C   UNL     1     109.133 131.172 136.021  0.00  0.00    +0.000 C 
ATOM     18  C   UNL     1     108.917 131.900 134.923  0.00  0.00    +0.000 C 
BRANCH  15  20
ATOM     19  O   UNL     1     106.849 132.034 134.860  0.00  0.00    +0.000 OA
ATOM     20  C   UNL     1     107.371 131.687 135.395  0.00  0.00    +0.000 C 
ENDBRANCH  15  20
ENDBRANCH  11  17
ENDBRANCH   4  11
BRANCH   7  21
ATOM     21  O   UNL     1     110.483 129.582 135.993  0.00  0.00    +0.000 OA
BRANCH  21  22
ATOM     22  C   UNL     1     110.809 128.829 136.073  0.00  0.00    +0.000 A 
ATOM     23  C   UNL     1     110.689 128.398 136.768  0.00  0.00    +0.000 A 
ATOM     24  C   UNL     1     111.256 128.505 135.461  0.00  0.00    +0.000 A 
ATOM     25  C   UNL     1     111.462 127.322 136.234  0.00  0.00    +0.000 A 
ATOM     26  C   UNL     1     111.015 127.645 136.848  0.00  0.00    +0.000 A 
ATOM     27  C   UNL     1     111.583 127.751 135.541  0.00  0.00    +0.000 A 
BRANCH  25  31
ATOM     28  O   UNL     1     112.553 126.480 136.614  0.00  0.00    +0.000 OA
ATOM     29  O   UNL     1     111.242 124.486 135.957  0.00  0.00    +0.000 OA
ATOM     30  O   UNL     1     114.785 124.780 137.394  0.00  0.00    +0.000 OA
ATOM     31  C   UNL     1     111.789 126.569 136.315  0.00  0.00    +0.000 C 
ATOM     32  C   UNL     1     111.353 125.904 136.096  0.00  0.00    +0.000 C 
ATOM     33  C   UNL     1     111.679 125.150 136.176  0.00  0.00    +0.000 C 
ATOM     34  C   UNL     1     112.442 125.062 136.475  0.00  0.00    +0.000 A 
ATOM     35  C   UNL     1     112.880 125.726 136.695  0.00  0.00    +0.000 A 
ATOM     36  C   UNL     1     113.676 125.647 137.008  0.00  0.00    +0.000 A 
ATOM     37  C   UNL     1     112.772 124.271 136.555  0.00  0.00    +0.000 A 
ATOM     38  C   UNL     1     114.022 124.865 137.094  0.00  0.00    +0.000 A 
ATOM     39  C   UNL     1     113.567 124.173 136.866  0.00  0.00    +0.000 A 
ENDBRANCH  25  31
ENDBRANCH  21  22
ENDBRANCH   7  21
TORSDOF 7
ENDMDL
MODEL 2
REMARK VINA RESULT:      -9.5      0.529      1.095
REMARK  Name = 10076238
REMARK  7 active torsions:
REMARK  status: ('A' for Active; 'I' for Inactive)
REMARK    1  A    between atoms: O_1  and  C_14
REMARK    2  A    between atoms: O_1  and  C_18
REMARK    3  A    between atoms: O_6  and  C_20
REMARK    4  A    between atoms: O_6  and  C_25
REMARK    5  A    between atoms: C_15  and  C_23
REMARK    6  A    between atoms: C_21  and  C_24
REMARK    7  A    between atoms: C_28  and  C_29
REMARK                            x       y       z     vdW  Elec       q    Type
REMARK                         _______ _______ _______ _____ _____    ______ ____
ROOT
ATOM      1  O   UNL     1     111.733 130.519 136.535  0.00  0.00    +0.000 OA
ATOM      2  O   UNL     1     110.102 132.155 137.426  0.00  0.00    +0.000 OA
ATOM      3  O   UNL     1     111.720 132.415 137.616  0.00  0.00    +0.000 OA
ATOM      4  C   UNL     1     110.380 130.934 136.737  0.00  0.00    +0.000 C 
ATOM      5  C   UNL     1     110.646 131.610 137.129  0.00  0.00    +0.000 C 
ATOM      6  C   UNL     1     111.455 131.740 137.224  0.00  0.00    +0.000 C 
ATOM      7  C   UNL     1     110.923 130.388 136.440  0.00  0.00    +0.000 C 
ATOM      8  C   UNL     1     111.998 131.194 136.927  0.00  0.00    +0.000 C 
ENDROOT
BRANCH   8  10
ATOM      9  O   UNL     1     113.328 131.153 136.406  0.00  0.00    +0.000 OA
ATOM     10  C   UNL     1     112.807 131.325 137.022  0.00  0.00    +0.000 C 
ENDBRANCH   8  10
BRANCH   4  11
ATOM     11  O   UNL     1     109.571 130.804 136.642  0.00  0.00    +0.000 OA
BRANCH  11  17
ATOM     12  O   UNL     1     109.494 131.581 135.396  0.00  0.00    +0.000 OA
ATOM     13  O   UNL     1     107.755 132.082 134.701  0.00  0.00    +0.000 OA
ATOM     14  O   UNL     1     107.787 130.953 136.513  0.00  0.00    +0.000 OA
ATOM     15  C   UNL     1     108.167 131.693 135.301  0.00  0.00    +0.000 C 
ATOM     16  C   UNL     1     108.339 131.261 135.983  0.00  0.00    +0.000 C 
ATOM     17  C   UNL     1     109.159 131.193 136.042  0.00  0.00    +0.000 C 
ATOM     18  C   UNL     1     108.882 131.890 134.938  0.00  0.00    +0.000 C 
BRANCH  15  20
ATOM     19  O   UNL     1     106.808 131.889 134.909  0.00  0.00    +0.000 OA
ATOM     20  C   UNL     1     107.360 131.625 135.460  0.00  0.00    +0.000 C 
ENDBRANCH  15  20
ENDBRANCH  11  17
ENDBRANCH   4  11
BRANCH   7  21
ATOM     21  O   UNL     1     110.658 129.713 136.048  0.00  0.00    +0.000 OA
BRANCH  21  22
ATOM     22  C   UNL     1     111.058 128.998 136.142  0.00  0.00    +0.000 A 
ATOM     23  C   UNL     1     111.003 128.583 136.853  0.00  0.00    +0.000 A 
ATOM     24  C   UNL     1     111.514 128.697 135.524  0.00  0.00    +0.000 A 
ATOM     25  C   UNL     1     111.859 127.568 136.328  0.00  0.00    +0.000 A 
ATOM     26  C   UNL     1     111.403 127.868 136.947  0.00  0.00    +0.000 A 
ATOM     27  C   UNL     1     111.915 127.981 135.617  0.00  0.00    +0.000 A 
BRANCH  25  31
ATOM     28  O   UNL     1     111.839 126.142 136.433  0.00  0.00    +0.000 OA
ATOM     29  O   UNL     1     114.302 126.126 136.677  0.00  0.00    +0.000 OA
ATOM     30  O   UNL     1     111.779 123.238 136.646  0.00  0.00    +0.000 OA
ATOM     31  C   UNL     1     112.260 126.852 136.421  0.00  0.00    +0.000 C 
ATOM     32  C   UNL     1     113.080 126.846 136.503  0.00  0.00    +0.000 C 
ATOM     33  C   UNL     1     113.481 126.131 136.596  0.00  0.00    +0.000 C 
ATOM     34  C   UNL     1     113.061 125.422 136.608  0.00  0.00    +0.000 A 
ATOM     35  C   UNL     1     112.239 125.427 136.526  0.00  0.00    +0.000 A 
ATOM     36  C   UNL     1     111.791 124.695 136.537  0.00  0.00    +0.000 A 
ATOM     37  C   UNL     1     113.489 124.683 136.706  0.00  0.00    +0.000 A 
ATOM     38  C   UNL     1     112.202 123.947 136.634  0.00  0.00    +0.000 A 
ATOM     39  C   UNL     1     113.057 123.940 136.719  0.00  0.00    +0.000 A 
ENDBRANCH  25  31
ENDBRANCH  21  22
ENDBRANCH   7  21
TORSDOF 7
ENDMDL
MODEL 3
REMARK VINA RESULT:      -9.5      4.101      5.089
REMARK  Name = 10076238
REMARK  7 active torsions:
REMARK  status: ('A' for Active; 'I' for Inactive)
REMARK    1  A    between atoms: O_1  and  C_14
REMARK    2  A    between atoms: O_1  and  C_18
REMARK    3  A    between atoms: O_6  and  C_20
REMARK    4  A    between atoms: O_6  and  C_25
REMARK    5  A    between atoms: C_15  and  C_23
REMARK    6  A    between atoms: C_21  and  C_24
REMARK    7  A    between atoms: C_28  and  C_29
REMARK                            x       y       z     vdW  Elec       q    Type
REMARK                         _______ _______ _______ _____ _____    ______ ____
ROOT
ATOM      1  O   UNL     1     113.695 129.749 139.681  0.00  0.00    +0.000 OA
ATOM      2  O   UNL     1     114.110 131.043 141.749  0.00  0.00    +0.000 OA
ATOM      3  O   UNL     1     114.899 131.439 140.356  0.00  0.00    +0.000 OA
ATOM      4  C   UNL     1     113.438 129.982 141.067  0.00  0.00    +0.000 C 
ATOM      5  C   UNL     1     113.971 130.612 141.060  0.00  0.00    +0.000 C 
ATOM      6  C   UNL     1     114.366 130.810 140.363  0.00  0.00    +0.000 C 
ATOM      7  C   UNL     1     113.300 129.551 140.377  0.00  0.00    +0.000 C 
ATOM      8  C   UNL     1     114.228 130.378 139.673  0.00  0.00    +0.000 C 
ENDROOT
BRANCH   8  10
ATOM      9  O   UNL     1     114.194 130.792 138.306  0.00  0.00    +0.000 OA
ATOM     10  C   UNL     1     114.622 130.577 138.977  0.00  0.00    +0.000 C 
ENDBRANCH   8  10
BRANCH   4  11
ATOM     11  O   UNL     1     113.043 129.784 141.764  0.00  0.00    +0.000 OA
BRANCH  11  17
ATOM     12  O   UNL     1     111.997 130.795 141.548  0.00  0.00    +0.000 OA
ATOM     13  O   UNL     1     110.587 130.989 142.863  0.00  0.00    +0.000 OA
ATOM     14  O   UNL     1     112.069 129.501 143.245  0.00  0.00    +0.000 OA
ATOM     15  C   UNL     1     111.273 130.584 142.650  0.00  0.00    +0.000 C 
ATOM     16  C   UNL     1     111.910 130.059 142.658  0.00  0.00    +0.000 C 
ATOM     17  C   UNL     1     112.356 130.189 141.977  0.00  0.00    +0.000 C 
ATOM     18  C   UNL     1     111.328 131.040 141.963  0.00  0.00    +0.000 C 
BRANCH  15  20
ATOM     19  O   UNL     1     110.329 130.581 143.722  0.00  0.00    +0.000 OA
ATOM     20  C   UNL     1     111.009 130.277 143.369  0.00  0.00    +0.000 C 
ENDBRANCH  15  20
ENDBRANCH  11  17
ENDBRANCH   4  11
BRANCH   7  21
ATOM     21  O   UNL     1     112.767 128.922 140.384  0.00  0.00    +0.000 OA
BRANCH  21  22
ATOM     22  C   UNL     1     112.899 128.263 139.905  0.00  0.00    +0.000 A 
ATOM     23  C   UNL     1     112.518 128.201 139.175  0.00  0.00    +0.000 A 
ATOM     24  C   UNL     1     113.413 127.668 140.154  0.00  0.00    +0.000 A 
ATOM     25  C   UNL     1     113.165 126.947 138.946  0.00  0.00    +0.000 A 
ATOM     26  C   UNL     1     112.651 127.542 138.696  0.00  0.00    +0.000 A 
ATOM     27  C   UNL     1     113.545 127.009 139.675  0.00  0.00    +0.000 A 
BRANCH  25  31
ATOM     28  O   UNL     1     112.658 125.881 138.139  0.00  0.00    +0.000 OA
ATOM     29  O   UNL     1     114.972 125.129 137.683  0.00  0.00    +0.000 OA
ATOM     30  O   UNL     1     111.609 123.716 136.499  0.00  0.00    +0.000 OA
ATOM     31  C   UNL     1     113.297 126.289 138.467  0.00  0.00    +0.000 C 
ATOM     32  C   UNL     1     114.068 126.037 138.314  0.00  0.00    +0.000 C 
ATOM     33  C   UNL     1     114.200 125.379 137.835  0.00  0.00    +0.000 C 
ATOM     34  C   UNL     1     113.562 124.972 137.508  0.00  0.00    +0.000 A 
ATOM     35  C   UNL     1     112.791 125.223 137.660  0.00  0.00    +0.000 A 
ATOM     36  C   UNL     1     112.118 124.807 137.325  0.00  0.00    +0.000 A 
ATOM     37  C   UNL     1     113.713 124.288 137.010  0.00  0.00    +0.000 A 
ATOM     38  C   UNL     1     112.249 124.121 136.825  0.00  0.00    +0.000 A 
ATOM     39  C   UNL     1     113.052 123.859 136.666  0.00  0.00    +0.000 A 
ENDBRANCH  25  31
ENDBRANCH  21  22
ENDBRANCH   7  21
TORSDOF 7
ENDMDL
MODEL 4
REMARK VINA RESULT:      -9.4      1.713      2.221
REMARK  Name = 10076238
REMARK  7 active torsions:
REMARK  status: ('A' for Active; 'I' for Inactive)
REMARK    1  A    between atoms: O_1  and  C_14
REMARK    2  A    between atoms: O_1  and  C_18
REMARK    3  A    between atoms: O_6  and  C_20
REMARK    4  A    between atoms: O_6  and  C_25
REMARK    5  A    between atoms: C_15  and  C_23
REMARK    6  A    between atoms: C_21  and  C_24
REMARK    7  A    between atoms: C_28  and  C_29
REMARK                            x       y       z     vdW  Elec       q    Type
REMARK                         _______ _______ _______ _____ _____    ______ ____
ROOT
ATOM      1  O   UNL     1     110.484 130.304 138.879  0.00  0.00    +0.000 OA
ATOM      2  O   UNL     1     108.196 131.248 138.902  0.00  0.00    +0.000 OA
ATOM      3  O   UNL     1     109.176 131.427 140.217  0.00  0.00    +0.000 OA
ATOM      4  C   UNL     1     109.232 130.528 138.229  0.00  0.00    +0.000 C 
ATOM      5  C   UNL     1     108.959 130.933 138.895  0.00  0.00    +0.000 C 
ATOM      6  C   UNL     1     109.449 131.023 139.552  0.00  0.00    +0.000 C 
ATOM      7  C   UNL     1     109.995 130.214 138.221  0.00  0.00    +0.000 C 
ATOM      8  C   UNL     1     110.212 130.708 139.544  0.00  0.00    +0.000 C 
ENDROOT
BRANCH   8  10
ATOM      9  O   UNL     1     111.448 131.138 140.117  0.00  0.00    +0.000 OA
ATOM     10  C   UNL     1     110.701 130.798 140.202  0.00  0.00    +0.000 C 
ENDBRANCH   8  10
BRANCH   4  11
ATOM     11  O   UNL     1     108.742 130.439 137.572  0.00  0.00    +0.000 OA
BRANCH  11  17
ATOM     12  O   UNL     1     109.136 131.737 137.004  0.00  0.00    +0.000 OA
ATOM     13  O   UNL     1     108.314 132.336 135.355  0.00  0.00    +0.000 OA
ATOM     14  O   UNL     1     107.690 130.441 136.116  0.00  0.00    +0.000 OA
ATOM     15  C   UNL     1     108.354 131.738 135.922  0.00  0.00    +0.000 C 
ATOM     16  C   UNL     1     108.218 131.037 136.335  0.00  0.00    +0.000 C 
ATOM     17  C   UNL     1     108.701 131.036 137.003  0.00  0.00    +0.000 C 
ATOM     18  C   UNL     1     108.922 132.171 136.337  0.00  0.00    +0.000 C 
BRANCH  15  20
ATOM     19  O   UNL     1     107.655 131.998 134.704  0.00  0.00    +0.000 OA
ATOM     20  C   UNL     1     107.802 131.512 135.353  0.00  0.00    +0.000 C 
ENDBRANCH  15  20
ENDBRANCH  11  17
ENDBRANCH   4  11
BRANCH   7  21
ATOM     21  O   UNL     1     110.267 129.810 137.556  0.00  0.00    +0.000 OA
BRANCH  21  22
ATOM     22  C   UNL     1     110.826 129.208 137.640  0.00  0.00    +0.000 A 
ATOM     23  C   UNL     1     110.590 128.458 137.891  0.00  0.00    +0.000 A 
ATOM     24  C   UNL     1     111.620 129.355 137.471  0.00  0.00    +0.000 A 
ATOM     25  C   UNL     1     111.943 128.005 137.806  0.00  0.00    +0.000 A 
ATOM     26  C   UNL     1     111.149 127.856 137.975  0.00  0.00    +0.000 A 
ATOM     27  C   UNL     1     112.178 128.754 137.555  0.00  0.00    +0.000 A 
BRANCH  25  31
ATOM     28  O   UNL     1     112.715 126.946 137.236  0.00  0.00    +0.000 OA
ATOM     29  O   UNL     1     113.749 126.514 139.444  0.00  0.00    +0.000 OA
ATOM     30  O   UNL     1     114.281 124.791 136.059  0.00  0.00    +0.000 OA
ATOM     31  C   UNL     1     112.501 127.404 137.889  0.00  0.00    +0.000 C 
ATOM     32  C   UNL     1     112.846 127.259 138.624  0.00  0.00    +0.000 C 
ATOM     33  C   UNL     1     113.405 126.658 138.708  0.00  0.00    +0.000 C 
ATOM     34  C   UNL     1     113.618 126.201 138.056  0.00  0.00    +0.000 A 
ATOM     35  C   UNL     1     113.274 126.344 137.320  0.00  0.00    +0.000 A 
ATOM     36  C   UNL     1     113.488 125.875 136.633  0.00  0.00    +0.000 A 
ATOM     37  C   UNL     1     114.202 125.577 138.155  0.00  0.00    +0.000 A 
ATOM     38  C   UNL     1     114.069 125.247 136.713  0.00  0.00    +0.000 A 
ATOM     39  C   UNL     1     114.428 125.097 137.479  0.00  0.00    +0.000 A 
ENDBRANCH  25  31
ENDBRANCH  21  22
ENDBRANCH   7  21
TORSDOF 7
ENDMDL
MODEL 5
REMARK VINA RESULT:      -9.2      1.348      2.804
REMARK  Name = 10076238
REMARK  7 active torsions:
REMARK  status: ('A' for Active; 'I' for Inactive)
REMARK    1  A    between atoms: O_1  and  C_14
REMARK    2  A    between atoms: O_1  and  C_18
REMARK    3  A    between atoms: O_6  and  C_20
REMARK    4  A    between atoms: O_6  and  C_25
REMARK    5  A    between atoms: C_15  and  C_23
REMARK    6  A    between atoms: C_21  and  C_24
REMARK    7  A    between atoms: C_28  and  C_29
REMARK                            x       y       z     vdW  Elec       q    Type
REMARK                         _______ _______ _______ _____ _____    ______ ____
ROOT
ATOM      1  O   UNL     1     109.790 128.870 136.219  0.00  0.00    +0.000 OA
ATOM      2  O   UNL     1     108.510 130.956 135.850  0.00  0.00    +0.000 OA
ATOM      3  O   UNL     1     107.776 129.493 135.654  0.00  0.00    +0.000 OA
ATOM      4  C   UNL     1     109.731 130.297 136.194  0.00  0.00    +0.000 C 
ATOM      5  C   UNL     1     108.937 130.261 135.973  0.00  0.00    +0.000 C 
ATOM      6  C   UNL     1     108.570 129.529 135.875  0.00  0.00    +0.000 C 
ATOM      7  C   UNL     1     110.158 129.602 136.317  0.00  0.00    +0.000 C 
ATOM      8  C   UNL     1     108.996 128.833 135.998  0.00  0.00    +0.000 C 
ENDROOT
BRANCH   8  10
ATOM      9  O   UNL     1     108.532 127.598 136.546  0.00  0.00    +0.000 OA
ATOM     10  C   UNL     1     108.629 128.102 135.900  0.00  0.00    +0.000 C 
ENDBRANCH   8  10
BRANCH   4  11
ATOM     11  O   UNL     1     110.098 131.030 136.292  0.00  0.00    +0.000 OA
BRANCH  11  17
ATOM     12  O   UNL     1     109.635 131.171 137.680  0.00  0.00    +0.000 OA
ATOM     13  O   UNL     1     109.916 132.851 138.604  0.00  0.00    +0.000 OA
ATOM     14  O   UNL     1     110.616 132.722 136.591  0.00  0.00    +0.000 OA
ATOM     15  C   UNL     1     110.020 132.430 137.902  0.00  0.00    +0.000 C 
ATOM     16  C   UNL     1     110.232 132.230 137.130  0.00  0.00    +0.000 C 
ATOM     17  C   UNL     1     109.994 131.452 136.994  0.00  0.00    +0.000 C 
ATOM     18  C   UNL     1     109.650 131.774 138.242  0.00  0.00    +0.000 C 
BRANCH  15  20
ATOM     19  O   UNL     1     110.321 133.729 138.413  0.00  0.00    +0.000 OA
ATOM     20  C   UNL     1     110.339 133.183 137.796  0.00  0.00    +0.000 C 
ENDBRANCH  15  20
ENDBRANCH  11  17
ENDBRANCH   4  11
BRANCH   7  21
ATOM     21  O   UNL     1     110.951 129.639 136.537  0.00  0.00    +0.000 OA
BRANCH  21  22
ATOM     22  C   UNL     1     111.407 128.951 136.553  0.00  0.00    +0.000 A 
ATOM     23  C   UNL     1     111.724 128.650 135.853  0.00  0.00    +0.000 A 
ATOM     24  C   UNL     1     111.547 128.565 137.269  0.00  0.00    +0.000 A 
ATOM     25  C   UNL     1     112.319 127.576 136.585  0.00  0.00    +0.000 A 
ATOM     26  C   UNL     1     112.180 127.962 135.869  0.00  0.00    +0.000 A 
ATOM     27  C   UNL     1     112.002 127.877 137.285  0.00  0.00    +0.000 A 
BRANCH  25  31
ATOM     28  O   UNL     1     112.414 126.157 136.732  0.00  0.00    +0.000 OA
ATOM     29  O   UNL     1     114.862 126.288 136.388  0.00  0.00    +0.000 OA
ATOM     30  O   UNL     1     112.590 123.266 137.033  0.00  0.00    +0.000 OA
ATOM     31  C   UNL     1     112.774 126.889 136.601  0.00  0.00    +0.000 C 
ATOM     32  C   UNL     1     113.590 126.932 136.487  0.00  0.00    +0.000 C 
ATOM     33  C   UNL     1     114.046 126.244 136.503  0.00  0.00    +0.000 C 
ATOM     34  C   UNL     1     113.686 125.514 136.633  0.00  0.00    +0.000 A 
ATOM     35  C   UNL     1     112.870 125.470 136.748  0.00  0.00    +0.000 A 
ATOM     36  C   UNL     1     112.484 124.715 136.885  0.00  0.00    +0.000 A 
ATOM     37  C   UNL     1     114.172 124.804 136.648  0.00  0.00    +0.000 A 
ATOM     38  C   UNL     1     112.953 123.996 136.902  0.00  0.00    +0.000 A 
ATOM     39  C   UNL     1     113.803 124.041 136.783  0.00  0.00    +0.000 A 
ENDBRANCH  25  31
ENDBRANCH  21  22
ENDBRANCH   7  21
TORSDOF 7
ENDMDL
MODEL 6
REMARK VINA RESULT:      -9.2      7.714     10.402
REMARK  Name = 10076238
REMARK  7 active torsions:
REMARK  status: ('A' for Active; 'I' for Inactive)
REMARK    1  A    between atoms: O_1  and  C_14
REMARK    2  A    between atoms: O_1  and  C_18
REMARK    3  A    between atoms: O_6  and  C_20
REMARK    4  A    between atoms: O_6  and  C_25
REMARK    5  A    between atoms: C_15  and  C_23
REMARK    6  A    between atoms: C_21  and  C_24
REMARK    7  A    between atoms: C_28  and  C_29
REMARK                            x       y       z     vdW  Elec       q    Type
REMARK                         _______ _______ _______ _____ _____    ______ ____
ROOT
ATOM      1  O   UNL     1     106.646 127.925 141.691  0.00  0.00    +0.000 OA
ATOM      2  O   UNL     1     107.765 125.801 142.292  0.00  0.00    +0.000 OA
ATOM      3  O   UNL     1     108.652 127.180 142.116  0.00  0.00    +0.000 OA
ATOM      4  C   UNL     1     106.574 126.527 141.979  0.00  0.00    +0.000 C 
ATOM      5  C   UNL     1     107.392 126.509 142.092  0.00  0.00    +0.000 C 
ATOM      6  C   UNL     1     107.835 127.199 142.004  0.00  0.00    +0.000 C 
ATOM      7  C   UNL     1     106.201 127.235 141.779  0.00  0.00    +0.000 C 
ATOM      8  C   UNL     1     107.462 127.907 141.804  0.00  0.00    +0.000 C 
ENDROOT
BRANCH   8  10
ATOM      9  O   UNL     1     107.804 129.071 141.049  0.00  0.00    +0.000 OA
ATOM     10  C   UNL     1     107.906 128.596 141.716  0.00  0.00    +0.000 C 
ENDBRANCH   8  10
BRANCH   4  11
ATOM     11  O   UNL     1     106.131 125.837 142.067  0.00  0.00    +0.000 OA
BRANCH  11  17
ATOM     12  O   UNL     1     106.353 125.423 140.674  0.00  0.00    +0.000 OA
ATOM     13  O   UNL     1     105.690 123.700 140.084  0.00  0.00    +0.000 OA
ATOM     14  O   UNL     1     105.329 124.232 142.120  0.00  0.00    +0.000 OA
ATOM     15  C   UNL     1     105.757 124.229 140.713  0.00  0.00    +0.000 C 
ATOM     16  C   UNL     1     105.695 124.570 141.462  0.00  0.00    +0.000 C 
ATOM     17  C   UNL     1     106.064 125.308 141.437  0.00  0.00    +0.000 C 
ATOM     18  C   UNL     1     106.164 124.757 140.226  0.00  0.00    +0.000 C 
BRANCH  15  20
ATOM     19  O   UNL     1     105.226 122.924 140.476  0.00  0.00    +0.000 OA
ATOM     20  C   UNL     1     105.349 123.564 140.982  0.00  0.00    +0.000 C 
ENDBRANCH  15  20
ENDBRANCH  11  17
ENDBRANCH   4  11
BRANCH   7  21
ATOM     21  O   UNL     1     105.385 127.253 141.667  0.00  0.00    +0.000 OA
BRANCH  21  22
ATOM     22  C   UNL     1     104.947 127.902 141.927  0.00  0.00    +0.000 A 
ATOM     23  C   UNL     1     104.877 128.056 142.736  0.00  0.00    +0.000 A 
ATOM     24  C   UNL     1     104.578 128.398 141.381  0.00  0.00    +0.000 A 
ATOM     25  C   UNL     1     104.071 129.200 142.448  0.00  0.00    +0.000 A 
ATOM     26  C   UNL     1     104.439 128.705 142.996  0.00  0.00    +0.000 A 
ATOM     27  C   UNL     1     104.140 129.047 141.641  0.00  0.00    +0.000 A 
BRANCH  25  31
ATOM     28  O   UNL     1     103.030 130.156 142.237  0.00  0.00    +0.000 OA
ATOM     29  O   UNL     1     103.526 131.181 144.435  0.00  0.00    +0.000 OA
ATOM     30  O   UNL     1     100.904 132.096 141.789  0.00  0.00    +0.000 OA
ATOM     31  C   UNL     1     103.633 129.849 142.709  0.00  0.00    +0.000 C 
ATOM     32  C   UNL     1     103.798 130.191 143.441  0.00  0.00    +0.000 C 
ATOM     33  C   UNL     1     103.360 130.840 143.702  0.00  0.00    +0.000 C 
ATOM     34  C   UNL     1     102.757 131.147 143.230  0.00  0.00    +0.000 A 
ATOM     35  C   UNL     1     102.592 130.805 142.497  0.00  0.00    +0.000 A 
ATOM     36  C   UNL     1     101.967 131.116 141.997  0.00  0.00    +0.000 A 
ATOM     37  C   UNL     1     102.308 131.823 143.513  0.00  0.00    +0.000 A 
ATOM     38  C   UNL     1     101.507 131.791 142.263  0.00  0.00    +0.000 A 
ATOM     39  C   UNL     1     101.679 132.147 143.026  0.00  0.00    +0.000 A 
ENDBRANCH  25  31
ENDBRANCH  21  22
ENDBRANCH   7  21
TORSDOF 7
ENDMDL
MODEL 7
REMARK VINA RESULT:      -9.1      4.245      5.449
REMARK  Name = 10076238
REMARK  7 active torsions:
REMARK  status: ('A' for Active; 'I' for Inactive)
REMARK    1  A    between atoms: O_1  and  C_14
REMARK    2  A    between atoms: O_1  and  C_18
REMARK    3  A    between atoms: O_6  and  C_20
REMARK    4  A    between atoms: O_6  and  C_25
REMARK    5  A    between atoms: C_15  and  C_23
REMARK    6  A    between atoms: C_21  and  C_24
REMARK    7  A    between atoms: C_28  and  C_29
REMARK                            x       y       z     vdW  Elec       q    Type
REMARK                         _______ _______ _______ _____ _____    ______ ____
ROOT
ATOM      1  O   UNL     1     110.207 127.636 140.847  0.00  0.00    +0.000 OA
ATOM      2  O   UNL     1     109.849 128.633 143.084  0.00  0.00    +0.000 OA
ATOM      3  O   UNL     1     108.746 127.574 142.466  0.00  0.00    +0.000 OA
ATOM      4  C   UNL     1     110.641 128.498 141.901  0.00  0.00    +0.000 C 
ATOM      5  C   UNL     1     109.969 128.300 142.338  0.00  0.00    +0.000 C 
ATOM      6  C   UNL     1     109.417 127.771 142.029  0.00  0.00    +0.000 C 
ATOM      7  C   UNL     1     110.760 128.165 141.155  0.00  0.00    +0.000 C 
ATOM      8  C   UNL     1     109.536 127.438 141.284  0.00  0.00    +0.000 C 
ENDROOT
BRANCH   8  10
ATOM      9  O   UNL     1     108.604 127.078 140.263  0.00  0.00    +0.000 OA
ATOM     10  C   UNL     1     108.985 126.909 140.975  0.00  0.00    +0.000 C 
ENDBRANCH   8  10
BRANCH   4  11
ATOM     11  O   UNL     1     111.192 129.027 142.210  0.00  0.00    +0.000 OA
BRANCH  11  17
ATOM     12  O   UNL     1     110.470 130.201 141.697  0.00  0.00    +0.000 OA
ATOM     13  O   UNL     1     111.118 131.974 142.135  0.00  0.00    +0.000 OA
ATOM     14  O   UNL     1     112.219 130.320 142.916  0.00  0.00    +0.000 OA
ATOM     15  C   UNL     1     111.234 131.162 142.222  0.00  0.00    +0.000 C 
ATOM     16  C   UNL     1     111.549 130.433 142.448  0.00  0.00    +0.000 C 
ATOM     17  C   UNL     1     111.077 129.840 142.123  0.00  0.00    +0.000 C 
ATOM     18  C   UNL     1     110.566 131.018 141.758  0.00  0.00    +0.000 C 
BRANCH  15  20
ATOM     19  O   UNL     1     111.840 132.374 142.675  0.00  0.00    +0.000 OA
ATOM     20  C   UNL     1     111.832 131.550 142.637  0.00  0.00    +0.000 C 
ENDBRANCH  15  20
ENDBRANCH  11  17
ENDBRANCH   4  11
BRANCH   7  21
ATOM     21  O   UNL     1     111.431 128.362 140.719  0.00  0.00    +0.000 OA
BRANCH  21  22
ATOM     22  C   UNL     1     111.758 127.815 140.195  0.00  0.00    +0.000 A 
ATOM     23  C   UNL     1     111.660 127.914 139.381  0.00  0.00    +0.000 A 
ATOM     24  C   UNL     1     112.182 127.169 140.483  0.00  0.00    +0.000 A 
ATOM     25  C   UNL     1     112.410 126.721 139.146  0.00  0.00    +0.000 A 
ATOM     26  C   UNL     1     111.986 127.367 138.857  0.00  0.00    +0.000 A 
ATOM     27  C   UNL     1     112.508 126.622 139.959  0.00  0.00    +0.000 A 
BRANCH  25  31
ATOM     28  O   UNL     1     112.244 125.672 138.189  0.00  0.00    +0.000 OA
ATOM     29  O   UNL     1     114.700 125.535 137.915  0.00  0.00    +0.000 OA
ATOM     30  O   UNL     1     111.886 123.538 136.241  0.00  0.00    +0.000 OA
ATOM     31  C   UNL     1     112.736 126.174 138.622  0.00  0.00    +0.000 C 
ATOM     32  C   UNL     1     113.555 126.127 138.530  0.00  0.00    +0.000 C 
ATOM     33  C   UNL     1     113.881 125.580 138.006  0.00  0.00    +0.000 C 
ATOM     34  C   UNL     1     113.389 125.080 137.574  0.00  0.00    +0.000 A 
ATOM     35  C   UNL     1     112.570 125.125 137.665  0.00  0.00    +0.000 A 
ATOM     36  C   UNL     1     112.047 124.609 137.220  0.00  0.00    +0.000 A 
ATOM     37  C   UNL     1     113.741 124.513 137.030  0.00  0.00    +0.000 A 
ATOM     38  C   UNL     1     112.381 124.037 136.673  0.00  0.00    +0.000 A 
ATOM     39  C   UNL     1     113.233 123.989 136.577  0.00  0.00    +0.000 A 
ENDBRANCH  25  31
ENDBRANCH  21  22
ENDBRANCH   7  21
TORSDOF 7
ENDMDL
MODEL 8
REMARK VINA RESULT:      -9.1      1.421      2.083
REMARK  Name = 10076238
REMARK  7 active torsions:
REMARK  status: ('A' for Active; 'I' for Inactive)
REMARK    1  A    between atoms: O_1  and  C_14
REMARK    2  A    between atoms: O_1  and  C_18
REMARK    3  A    between atoms: O_6  and  C_20
REMARK    4  A    between atoms: O_6  and  C_25
REMARK    5  A    between atoms: C_15  and  C_23
REMARK    6  A    between atoms: C_21  and  C_24
REMARK    7  A    between atoms: C_28  and  C_29
REMARK                            x       y       z     vdW  Elec       q    Type
REMARK                         _______ _______ _______ _____ _____    ______ ____
ROOT
ATOM      1  O   UNL     1     112.773 130.190 137.516  0.00  0.00    +0.000 OA
ATOM      2  O   UNL     1     111.788 132.260 136.583  0.00  0.00    +0.000 OA
ATOM      3  O   UNL     1     113.408 132.179 136.882  0.00  0.00    +0.000 OA
ATOM      4  C   UNL     1     111.634 130.919 137.055  0.00  0.00    +0.000 C 
ATOM      5  C   UNL     1     112.116 131.570 136.894  0.00  0.00    +0.000 C 
ATOM      6  C   UNL     1     112.926 131.529 137.043  0.00  0.00    +0.000 C 
ATOM      7  C   UNL     1     111.962 130.229 137.366  0.00  0.00    +0.000 C 
ATOM      8  C   UNL     1     113.255 130.839 137.354  0.00  0.00    +0.000 C 
ENDROOT
BRANCH   8  10
ATOM      9  O   UNL     1     114.337 130.650 138.268  0.00  0.00    +0.000 OA
ATOM     10  C   UNL     1     114.064 130.799 137.504  0.00  0.00    +0.000 C 
ENDBRANCH   8  10
BRANCH   4  11
ATOM     11  O   UNL     1     110.824 130.960 136.906  0.00  0.00    +0.000 OA
BRANCH  11  17
ATOM     12  O   UNL     1     110.541 131.613 138.192  0.00  0.00    +0.000 OA
ATOM     13  O   UNL     1     108.718 132.117 138.616  0.00  0.00    +0.000 OA
ATOM     14  O   UNL     1     109.050 131.173 136.730  0.00  0.00    +0.000 OA
ATOM     15  C   UNL     1     109.222 131.772 138.061  0.00  0.00    +0.000 C 
ATOM     16  C   UNL     1     109.504 131.403 137.379  0.00  0.00    +0.000 C 
ATOM     17  C   UNL     1     110.319 131.306 137.460  0.00  0.00    +0.000 C 
ATOM     18  C   UNL     1     109.864 131.902 138.564  0.00  0.00    +0.000 C 
BRANCH  15  20
ATOM     19  O   UNL     1     107.829 132.055 138.197  0.00  0.00    +0.000 OA
ATOM     20  C   UNL     1     108.456 131.755 137.754  0.00  0.00    +0.000 C 
ENDBRANCH  15  20
ENDBRANCH  11  17
ENDBRANCH   4  11
BRANCH   7  21
ATOM     21  O   UNL     1     111.480 129.580 137.528  0.00  0.00    +0.000 OA
BRANCH  21  22
ATOM     22  C   UNL     1     111.765 128.815 137.408  0.00  0.00    +0.000 A 
ATOM     23  C   UNL     1     112.012 128.361 138.052  0.00  0.00    +0.000 A 
ATOM     24  C   UNL     1     111.804 128.503 136.646  0.00  0.00    +0.000 A 
ATOM     25  C   UNL     1     112.335 127.285 137.170  0.00  0.00    +0.000 A 
ATOM     26  C   UNL     1     112.297 127.596 137.933  0.00  0.00    +0.000 A 
ATOM     27  C   UNL     1     112.089 127.738 136.526  0.00  0.00    +0.000 A 
BRANCH  25  31
ATOM     28  O   UNL     1     112.128 125.871 137.181  0.00  0.00    +0.000 OA
ATOM     29  O   UNL     1     114.461 125.523 136.430  0.00  0.00    +0.000 OA
ATOM     30  O   UNL     1     111.686 122.993 137.210  0.00  0.00    +0.000 OA
ATOM     31  C   UNL     1     112.620 126.520 137.050  0.00  0.00    +0.000 C 
ATOM     32  C   UNL     1     113.398 126.404 136.800  0.00  0.00    +0.000 C 
ATOM     33  C   UNL     1     113.683 125.639 136.681  0.00  0.00    +0.000 C 
ATOM     34  C   UNL     1     113.191 124.991 136.811  0.00  0.00    +0.000 A 
ATOM     35  C   UNL     1     112.413 125.106 137.062  0.00  0.00    +0.000 A 
ATOM     36  C   UNL     1     111.891 124.439 137.201  0.00  0.00    +0.000 A 
ATOM     37  C   UNL     1     113.499 124.198 136.683  0.00  0.00    +0.000 A 
ATOM     38  C   UNL     1     112.181 123.640 137.079  0.00  0.00    +0.000 A 
ATOM     39  C   UNL     1     112.991 123.518 136.818  0.00  0.00    +0.000 A 
ENDBRANCH  25  31
ENDBRANCH  21  22
ENDBRANCH   7  21
TORSDOF 7
ENDMDL
MODEL 9
REMARK VINA RESULT:      -9.1      6.097      7.388
REMARK  Name = 10076238
REMARK  7 active torsions:
REMARK  status: ('A' for Active; 'I' for Inactive)
REMARK    1  A    between atoms: O_1  and  C_14
REMARK    2  A    between atoms: O_1  and  C_18
REMARK    3  A    between atoms: O_6  and  C_20
REMARK    4  A    between atoms: O_6  and  C_25
REMARK    5  A    between atoms: C_15  and  C_23
REMARK    6  A    between atoms: C_21  and  C_24
REMARK    7  A    between atoms: C_28  and  C_29
REMARK                            x       y       z     vdW  Elec       q    Type
REMARK                         _______ _______ _______ _____ _____    ______ ____
ROOT
ATOM      1  O   UNL     1     107.116 126.176 141.747  0.00  0.00    +0.000 OA
ATOM      2  O   UNL     1     105.350 124.485 142.134  0.00  0.00    +0.000 OA
ATOM      3  O   UNL     1     105.606 125.679 143.242  0.00  0.00    +0.000 OA
ATOM      4  C   UNL     1     106.400 125.015 141.321  0.00  0.00    +0.000 C 
ATOM      5  C   UNL     1     105.939 125.048 142.005  0.00  0.00    +0.000 C 
ATOM      6  C   UNL     1     106.067 125.646 142.559  0.00  0.00    +0.000 C 
ATOM      7  C   UNL     1     106.988 125.579 141.192  0.00  0.00    +0.000 C 
ATOM      8  C   UNL     1     106.656 126.209 142.430  0.00  0.00    +0.000 C 
ENDROOT
BRANCH   8  10
ATOM      9  O   UNL     1     107.451 126.784 143.469  0.00  0.00    +0.000 OA
ATOM     10  C   UNL     1     106.783 126.806 142.984  0.00  0.00    +0.000 C 
ENDBRANCH   8  10
BRANCH   4  11
ATOM     11  O   UNL     1     106.271 124.418 140.766  0.00  0.00    +0.000 OA
BRANCH  11  17
ATOM     12  O   UNL     1     105.272 125.201 140.025  0.00  0.00    +0.000 OA
ATOM     13  O   UNL     1     104.234 124.335 138.636  0.00  0.00    +0.000 OA
ATOM     14  O   UNL     1     105.667 123.134 139.667  0.00  0.00    +0.000 OA
ATOM     15  C   UNL     1     104.822 124.246 139.208  0.00  0.00    +0.000 C 
ATOM     16  C   UNL     1     105.406 123.916 139.689  0.00  0.00    +0.000 C 
ATOM     17  C   UNL     1     105.684 124.507 140.193  0.00  0.00    +0.000 C 
ATOM     18  C   UNL     1     104.738 125.040 139.416  0.00  0.00    +0.000 C 
BRANCH  15  20
ATOM     19  O   UNL     1     104.183 123.447 138.211  0.00  0.00    +0.000 OA
ATOM     20  C   UNL     1     104.719 123.518 138.833  0.00  0.00    +0.000 C 
ENDBRANCH  15  20
ENDBRANCH  11  17
ENDBRANCH   4  11
BRANCH   7  21
ATOM     21  O   UNL     1     107.449 125.545 140.508  0.00  0.00    +0.000 OA
BRANCH  21  22
ATOM     22  C   UNL     1     108.242 125.769 140.534  0.00  0.00    +0.000 A 
ATOM     23  C   UNL     1     108.465 126.526 140.289  0.00  0.00    +0.000 A 
ATOM     24  C   UNL     1     108.813 125.239 140.805  0.00  0.00    +0.000 A 
ATOM     25  C   UNL     1     109.829 126.218 140.586  0.00  0.00    +0.000 A 
ATOM     26  C   UNL     1     109.259 126.750 140.315  0.00  0.00    +0.000 A 
ATOM     27  C   UNL     1     109.606 125.463 140.831  0.00  0.00    +0.000 A 
BRANCH  25  31
ATOM     28  O   UNL     1     111.123 126.264 139.980  0.00  0.00    +0.000 OA
ATOM     29  O   UNL     1     112.002 127.475 141.952  0.00  0.00    +0.000 OA
ATOM     30  O   UNL     1     113.752 126.346 138.731  0.00  0.00    +0.000 OA
ATOM     31  C   UNL     1     110.622 126.443 140.612  0.00  0.00    +0.000 C 
ATOM     32  C   UNL     1     110.916 126.847 141.268  0.00  0.00    +0.000 C 
ATOM     33  C   UNL     1     111.710 127.071 141.294  0.00  0.00    +0.000 C 
ATOM     34  C   UNL     1     112.209 126.892 140.663  0.00  0.00    +0.000 A 
ATOM     35  C   UNL     1     111.916 126.488 140.006  0.00  0.00    +0.000 A 
ATOM     36  C   UNL     1     112.427 126.296 139.343  0.00  0.00    +0.000 A 
ATOM     37  C   UNL     1     113.034 127.131 140.702  0.00  0.00    +0.000 A 
ATOM     38  C   UNL     1     113.254 126.527 139.363  0.00  0.00    +0.000 A 
ATOM     39  C   UNL     1     113.560 126.947 140.048  0.00  0.00    +0.000 A 
ENDBRANCH  25  31
ENDBRANCH  21  22
ENDBRANCH   7  21
TORSDOF 7
ENDMDL
MODEL 10
REMARK VINA RESULT:      -9.1      6.999      9.016
REMARK  Name = 10076238
REMARK  7 active torsions:
REMARK  status: ('A' for Active; 'I' for Inactive)
REMARK    1  A    between atoms: O_1  and  C_14
REMARK    2  A    between atoms: O_1  and  C_18
REMARK    3  A    between atoms: O_6  and  C_20
REMARK    4  A    between atoms: O_6  and  C_25
REMARK    5  A    between atoms: C_15  and  C_23
REMARK    6  A    between atoms: C_21  and  C_24
REMARK    7  A    between atoms: C_28  and  C_29
REMARK                            x       y       z     vdW  Elec       q    Type
REMARK                         _______ _______ _______ _____ _____    ______ ____
ROOT
ATOM      1  O   UNL     1     112.873 131.300 142.154  0.00  0.00    +0.000 OA
ATOM      2  O   UNL     1     111.962 129.479 140.747  0.00  0.00    +0.000 OA
ATOM      3  O   UNL     1     113.590 129.737 140.810  0.00  0.00    +0.000 OA
ATOM      4  C   UNL     1     111.755 130.564 141.654  0.00  0.00    +0.000 C 
ATOM      5  C   UNL     1     112.266 130.086 141.216  0.00  0.00    +0.000 C 
ATOM      6  C   UNL     1     113.080 130.216 141.248  0.00  0.00    +0.000 C 
ATOM      7  C   UNL     1     112.058 131.171 142.123  0.00  0.00    +0.000 C 
ATOM      8  C   UNL     1     113.383 130.823 141.717  0.00  0.00    +0.000 C 
ENDROOT
BRANCH   8  10
ATOM      9  O   UNL     1     114.505 131.693 141.558  0.00  0.00    +0.000 OA
ATOM     10  C   UNL     1     114.197 130.952 141.748  0.00  0.00    +0.000 C 
ENDBRANCH   8  10
BRANCH   4  11
ATOM     11  O   UNL     1     110.941 130.434 141.623  0.00  0.00    +0.000 OA
BRANCH  11  17
ATOM     12  O   UNL     1     110.781 131.245 140.406  0.00  0.00    +0.000 OA
ATOM     13  O   UNL     1     109.030 131.382 139.586  0.00  0.00    +0.000 OA
ATOM     14  O   UNL     1     109.184 130.188 141.349  0.00  0.00    +0.000 OA
ATOM     15  C   UNL     1     109.474 131.062 140.203  0.00  0.00    +0.000 C 
ATOM     16  C   UNL     1     109.689 130.642 140.880  0.00  0.00    +0.000 C 
ATOM     17  C   UNL     1     110.496 130.755 141.005  0.00  0.00    +0.000 C 
ATOM     18  C   UNL     1     110.150 131.435 139.910  0.00  0.00    +0.000 C 
BRANCH  15  20
ATOM     19  O   UNL     1     108.119 131.048 139.753  0.00  0.00    +0.000 OA
ATOM     20  C   UNL     1     108.695 130.806 140.291  0.00  0.00    +0.000 C 
ENDBRANCH  15  20
ENDBRANCH  11  17
ENDBRANCH   4  11
BRANCH   7  21
ATOM     21  O   UNL     1     111.548 131.649 142.561  0.00  0.00    +0.000 OA
BRANCH  21  22
ATOM     22  C   UNL     1     111.707 131.803 143.355  0.00  0.00    +0.000 A 
ATOM     23  C   UNL     1     112.020 132.533 143.580  0.00  0.00    +0.000 A 
ATOM     24  C   UNL     1     111.554 131.228 143.926  0.00  0.00    +0.000 A 
ATOM     25  C   UNL     1     112.025 132.111 144.945  0.00  0.00    +0.000 A 
ATOM     26  C   UNL     1     112.179 132.687 144.374  0.00  0.00    +0.000 A 
ATOM     27  C   UNL     1     111.713 131.382 144.721  0.00  0.00    +0.000 A 
BRANCH  25  31
ATOM     28  O   UNL     1     111.627 132.660 146.203  0.00  0.00    +0.000 OA
ATOM     29  O   UNL     1     113.777 131.940 147.197  0.00  0.00    +0.000 OA
ATOM     30  O   UNL     1     110.798 133.783 148.759  0.00  0.00    +0.000 OA
ATOM     31  C   UNL     1     112.184 132.265 145.739  0.00  0.00    +0.000 C 
ATOM     32  C   UNL     1     112.901 132.026 146.071  0.00  0.00    +0.000 C 
ATOM     33  C   UNL     1     113.060 132.180 146.866  0.00  0.00    +0.000 C 
ATOM     34  C   UNL     1     112.503 132.574 147.329  0.00  0.00    +0.000 A 
ATOM     35  C   UNL     1     111.786 132.814 146.998  0.00  0.00    +0.000 A 
ATOM     36  C   UNL     1     111.198 133.225 147.470  0.00  0.00    +0.000 A 
ATOM     37  C   UNL     1     112.680 132.729 148.156  0.00  0.00    +0.000 A 
ATOM     38  C   UNL     1     111.357 133.388 148.298  0.00  0.00    +0.000 A 
ATOM     39  C   UNL     1     112.104 133.139 148.643  0.00  0.00    +0.000 A 
ENDBRANCH  25  31
ENDBRANCH  21  22
ENDBRANCH   7  21
TORSDOF 7
ENDMDL
