MODEL 1
REMARK VINA RESULT:      -8.8      0.000      0.000
REMARK  Name = 44259751
REMARK  6 active torsions:
REMARK  status: ('A' for Active; 'I' for Inactive)
REMARK    1  A    between atoms: O_3  and  C_16
REMARK    2  A    between atoms: O_3  and  C_19
REMARK    3  A    between atoms: O_7  and  C_20
REMARK    4  A    between atoms: O_9  and  C_27
REMARK    5  A    between atoms: C_13  and  C_17
REMARK    6  A    between atoms: C_26  and  C_28
REMARK                            x       y       z     vdW  Elec       q    Type
REMARK                         _______ _______ _______ _____ _____    ______ ____
ROOT
ATOM      1  O   UNL     1     113.469 126.452 138.448  0.00  0.00    +0.000 OA
ATOM      2  O   UNL     1     110.886 126.070 139.686  0.00  0.00    +0.000 OA
ATOM      3  O   UNL     1     111.323 125.228 138.598  0.00  0.00    +0.000 OA
ATOM      4  C   UNL     1     112.498 127.562 140.126  0.00  0.00    +0.000 A 
ATOM      5  C   UNL     1     111.753 127.138 140.179  0.00  0.00    +0.000 A 
ATOM      6  C   UNL     1     113.079 127.328 139.539  0.00  0.00    +0.000 A 
ATOM      7  C   UNL     1     112.908 126.672 139.010  0.00  0.00    +0.000 A 
ATOM      8  C   UNL     1     112.193 126.264 139.060  0.00  0.00    +0.000 A 
ATOM      9  C   UNL     1     111.599 126.484 139.642  0.00  0.00    +0.000 A 
ATOM     10  C   UNL     1     112.039 125.636 138.548  0.00  0.00    +0.000 A 
ATOM     11  C   UNL     1     113.316 125.824 137.935  0.00  0.00    +0.000 A 
ATOM     12  C   UNL     1     112.600 125.416 137.985  0.00  0.00    +0.000 A 
ENDROOT
BRANCH  11  14
ATOM     13  O   UNL     1     115.562 124.944 135.683  0.00  0.00    +0.000 OA
ATOM     14  C   UNL     1     113.877 125.604 137.372  0.00  0.00    +0.000 A 
ATOM     15  C   UNL     1     114.406 124.992 137.534  0.00  0.00    +0.000 A 
ATOM     16  C   UNL     1     113.911 125.996 136.647  0.00  0.00    +0.000 A 
ATOM     17  C   UNL     1     114.967 124.771 136.972  0.00  0.00    +0.000 A 
ATOM     18  C   UNL     1     114.472 125.776 136.084  0.00  0.00    +0.000 A 
ATOM     19  C   UNL     1     115.001 125.163 136.246  0.00  0.00    +0.000 A 
ENDBRANCH  11  14
BRANCH   5  20
ATOM     20  O   UNL     1     111.190 127.355 140.741  0.00  0.00    +0.000 OA
ATOM     21  C   UNL     1     111.049 126.871 141.394  0.00  0.00    +0.000 C 
ENDBRANCH   5  20
BRANCH  12  22
ATOM     22  O   UNL     1     112.446 124.788 137.473  0.00  0.00    +0.000 OA
ATOM     23  C   UNL     1     111.669 124.545 137.339  0.00  0.00    +0.000 C 
ENDBRANCH  12  22
BRANCH   4  24
ATOM     24  O   UNL     1     112.655 128.191 140.637  0.00  0.00    +0.000 OA
BRANCH  24  33
ATOM     25  O   UNL     1     112.627 129.294 139.730  0.00  0.00    +0.000 OA
ATOM     26  O   UNL     1     114.005 130.967 139.473  0.00  0.00    +0.000 OA
ATOM     27  O   UNL     1     114.736 130.148 140.705  0.00  0.00    +0.000 OA
ATOM     28  O   UNL     1     114.061 128.760 141.287  0.00  0.00    +0.000 OA
ATOM     29  C   UNL     1     113.668 130.273 139.765  0.00  0.00    +0.000 C 
ATOM     30  C   UNL     1     112.965 129.988 139.440  0.00  0.00    +0.000 C 
ATOM     31  C   UNL     1     114.033 129.864 140.380  0.00  0.00    +0.000 C 
ATOM     32  C   UNL     1     113.696 129.170 140.671  0.00  0.00    +0.000 C 
ATOM     33  C   UNL     1     112.993 128.885 140.346  0.00  0.00    +0.000 C 
BRANCH  30  34
ATOM     34  C   UNL     1     112.600 130.398 138.823  0.00  0.00    +0.000 C 
ATOM     35  C   UNL     1     111.788 130.543 138.848  0.00  0.00    +0.000 C 
ENDBRANCH  30  34
ENDBRANCH  24  33
ENDBRANCH   4  24
TORSDOF 6
ENDMDL
MODEL 2
REMARK VINA RESULT:      -8.6      2.500      3.312
REMARK  Name = 44259751
REMARK  6 active torsions:
REMARK  status: ('A' for Active; 'I' for Inactive)
REMARK    1  A    between atoms: O_3  and  C_16
REMARK    2  A    between atoms: O_3  and  C_19
REMARK    3  A    between atoms: O_7  and  C_20
REMARK    4  A    between atoms: O_9  and  C_27
REMARK    5  A    between atoms: C_13  and  C_17
REMARK    6  A    between atoms: C_26  and  C_28
REMARK                            x       y       z     vdW  Elec       q    Type
REMARK                         _______ _______ _______ _____ _____    ______ ____
ROOT
ATOM      1  O   UNL     1     112.605 127.106 136.606  0.00  0.00    +0.000 OA
ATOM      2  O   UNL     1     110.046 127.186 135.269  0.00  0.00    +0.000 OA
ATOM      3  O   UNL     1     110.743 125.939 135.468  0.00  0.00    +0.000 OA
ATOM      4  C   UNL     1     111.278 128.842 136.141  0.00  0.00    +0.000 A 
ATOM      5  C   UNL     1     110.631 128.437 135.746  0.00  0.00    +0.000 A 
ATOM      6  C   UNL     1     111.947 128.389 136.432  0.00  0.00    +0.000 A 
ATOM      7  C   UNL     1     111.961 127.536 136.325  0.00  0.00    +0.000 A 
ATOM      8  C   UNL     1     111.340 127.147 135.945  0.00  0.00    +0.000 A 
ATOM      9  C   UNL     1     110.662 127.583 135.647  0.00  0.00    +0.000 A 
ATOM     10  C   UNL     1     111.364 126.328 135.848  0.00  0.00    +0.000 A 
ATOM     11  C   UNL     1     112.631 126.287 136.509  0.00  0.00    +0.000 A 
ATOM     12  C   UNL     1     112.010 125.898 136.129  0.00  0.00    +0.000 A 
ENDROOT
BRANCH  11  14
ATOM     13  O   UNL     1     115.211 124.567 137.635  0.00  0.00    +0.000 OA
ATOM     14  C   UNL     1     113.276 125.857 136.791  0.00  0.00    +0.000 A 
ATOM     15  C   UNL     1     113.295 125.610 137.578  0.00  0.00    +0.000 A 
ATOM     16  C   UNL     1     113.902 125.675 136.286  0.00  0.00    +0.000 A 
ATOM     17  C   UNL     1     113.940 125.180 137.859  0.00  0.00    +0.000 A 
ATOM     18  C   UNL     1     114.547 125.244 136.568  0.00  0.00    +0.000 A 
ATOM     19  C   UNL     1     114.566 124.997 137.354  0.00  0.00    +0.000 A 
ENDBRANCH  11  14
BRANCH   5  20
ATOM     20  O   UNL     1     109.985 128.864 135.463  0.00  0.00    +0.000 OA
ATOM     21  C   UNL     1     109.902 129.000 134.653  0.00  0.00    +0.000 C 
ENDBRANCH   5  20
BRANCH  12  22
ATOM     22  O   UNL     1     112.034 125.079 136.032  0.00  0.00    +0.000 OA
ATOM     23  C   UNL     1     111.332 124.647 135.996  0.00  0.00    +0.000 C 
ENDBRANCH  12  22
BRANCH   4  24
ATOM     24  O   UNL     1     111.256 129.660 136.240  0.00  0.00    +0.000 OA
BRANCH  24  33
ATOM     25  O   UNL     1     110.941 129.755 137.630  0.00  0.00    +0.000 OA
ATOM     26  O   UNL     1     111.814 130.978 139.213  0.00  0.00    +0.000 OA
ATOM     27  O   UNL     1     112.723 131.448 137.919  0.00  0.00    +0.000 OA
ATOM     28  O   UNL     1     112.444 130.789 136.432  0.00  0.00    +0.000 OA
ATOM     29  C   UNL     1     111.675 130.649 138.470  0.00  0.00    +0.000 C 
ATOM     30  C   UNL     1     111.081 130.085 138.373  0.00  0.00    +0.000 C 
ATOM     31  C   UNL     1     112.129 130.884 137.823  0.00  0.00    +0.000 C 
ATOM     32  C   UNL     1     111.990 130.554 137.080  0.00  0.00    +0.000 C 
ATOM     33  C   UNL     1     111.396 129.990 136.984  0.00  0.00    +0.000 C 
BRANCH  30  34
ATOM     34  C   UNL     1     110.626 129.850 139.021  0.00  0.00    +0.000 C 
ATOM     35  C   UNL     1     109.802 129.855 138.970  0.00  0.00    +0.000 C 
ENDBRANCH  30  34
ENDBRANCH  24  33
ENDBRANCH   4  24
TORSDOF 6
ENDMDL
MODEL 3
REMARK VINA RESULT:      -8.6      2.705      3.567
REMARK  Name = 44259751
REMARK  6 active torsions:
REMARK  status: ('A' for Active; 'I' for Inactive)
REMARK    1  A    between atoms: O_3  and  C_16
REMARK    2  A    between atoms: O_3  and  C_19
REMARK    3  A    between atoms: O_7  and  C_20
REMARK    4  A    between atoms: O_9  and  C_27
REMARK    5  A    between atoms: C_13  and  C_17
REMARK    6  A    between atoms: C_26  and  C_28
REMARK                            x       y       z     vdW  Elec       q    Type
REMARK                         _______ _______ _______ _____ _____    ______ ____
ROOT
ATOM      1  O   UNL     1     111.676 127.144 136.709  0.00  0.00    +0.000 OA
ATOM      2  O   UNL     1     110.237 128.761 134.796  0.00  0.00    +0.000 OA
ATOM      3  O   UNL     1     110.376 127.337 134.612  0.00  0.00    +0.000 OA
ATOM      4  C   UNL     1     111.280 129.342 136.691  0.00  0.00    +0.000 A 
ATOM      5  C   UNL     1     110.828 129.410 135.963  0.00  0.00    +0.000 A 
ATOM      6  C   UNL     1     111.566 128.573 136.943  0.00  0.00    +0.000 A 
ATOM      7  C   UNL     1     111.398 127.879 136.463  0.00  0.00    +0.000 A 
ATOM      8  C   UNL     1     110.965 127.944 135.764  0.00  0.00    +0.000 A 
ATOM      9  C   UNL     1     110.669 128.706 135.496  0.00  0.00    +0.000 A 
ATOM     10  C   UNL     1     110.809 127.272 135.311  0.00  0.00    +0.000 A 
ATOM     11  C   UNL     1     111.521 126.471 136.257  0.00  0.00    +0.000 A 
ATOM     12  C   UNL     1     111.087 126.535 135.558  0.00  0.00    +0.000 A 
ENDROOT
BRANCH  11  14
ATOM     13  O   UNL     1     112.632 123.525 137.242  0.00  0.00    +0.000 OA
ATOM     14  C   UNL     1     111.799 125.735 136.503  0.00  0.00    +0.000 A 
ATOM     15  C   UNL     1     112.541 125.470 136.257  0.00  0.00    +0.000 A 
ATOM     16  C   UNL     1     111.335 125.262 136.996  0.00  0.00    +0.000 A 
ATOM     17  C   UNL     1     112.819 124.733 136.503  0.00  0.00    +0.000 A 
ATOM     18  C   UNL     1     111.613 124.525 137.242  0.00  0.00    +0.000 A 
ATOM     19  C   UNL     1     112.355 124.261 136.996  0.00  0.00    +0.000 A 
ENDBRANCH  11  14
BRANCH   5  20
ATOM     20  O   UNL     1     110.549 130.145 135.715  0.00  0.00    +0.000 OA
ATOM     21  C   UNL     1     109.742 130.316 135.756  0.00  0.00    +0.000 C 
ENDBRANCH   5  20
BRANCH  12  22
ATOM     22  O   UNL     1     110.932 125.863 135.105  0.00  0.00    +0.000 OA
ATOM     23  C   UNL     1     110.270 125.842 134.612  0.00  0.00    +0.000 C 
ENDBRANCH  12  22
BRANCH   4  24
ATOM     24  O   UNL     1     111.437 130.013 137.146  0.00  0.00    +0.000 OA
BRANCH  24  33
ATOM     25  O   UNL     1     112.839 130.128 136.900  0.00  0.00    +0.000 OA
ATOM     26  O   UNL     1     114.494 130.579 138.250  0.00  0.00    +0.000 OA
ATOM     27  O   UNL     1     113.218 130.630 139.294  0.00  0.00    +0.000 OA
ATOM     28  O   UNL     1     111.689 130.347 138.742  0.00  0.00    +0.000 OA
ATOM     29  C   UNL     1     113.730 130.437 137.975  0.00  0.00    +0.000 C 
ATOM     30  C   UNL     1     113.604 130.270 137.177  0.00  0.00    +0.000 C 
ATOM     31  C   UNL     1     113.092 130.463 138.496  0.00  0.00    +0.000 C 
ATOM     32  C   UNL     1     112.328 130.322 138.220  0.00  0.00    +0.000 C 
ATOM     33  C   UNL     1     112.202 130.154 137.422  0.00  0.00    +0.000 C 
BRANCH  30  34
ATOM     34  C   UNL     1     114.242 130.244 136.654  0.00  0.00    +0.000 C 
ATOM     35  C   UNL     1     114.249 130.729 135.987  0.00  0.00    +0.000 C 
ENDBRANCH  30  34
ENDBRANCH  24  33
ENDBRANCH   4  24
TORSDOF 6
ENDMDL
MODEL 4
REMARK VINA RESULT:      -8.6      8.721     11.714
REMARK  Name = 44259751
REMARK  6 active torsions:
REMARK  status: ('A' for Active; 'I' for Inactive)
REMARK    1  A    between atoms: O_3  and  C_16
REMARK    2  A    between atoms: O_3  and  C_19
REMARK    3  A    between atoms: O_7  and  C_20
REMARK    4  A    between atoms: O_9  and  C_27
REMARK    5  A    between atoms: C_13  and  C_17
REMARK    6  A    between atoms: C_26  and  C_28
REMARK                            x       y       z     vdW  Elec       q    Type
REMARK                         _______ _______ _______ _____ _____    ______ ____
ROOT
ATOM      1  O   UNL     1     104.146 124.534 146.296  0.00  0.00    +0.000 OA
ATOM      2  O   UNL     1     106.212 125.320 148.156  0.00  0.00    +0.000 OA
ATOM      3  O   UNL     1     104.985 124.718 148.617  0.00  0.00    +0.000 OA
ATOM      4  C   UNL     1     106.136 125.478 145.923  0.00  0.00    +0.000 A 
ATOM      5  C   UNL     1     106.428 125.543 146.729  0.00  0.00    +0.000 A 
ATOM      6  C   UNL     1     105.362 125.136 145.778  0.00  0.00    +0.000 A 
ATOM      7  C   UNL     1     104.888 124.861 146.441  0.00  0.00    +0.000 A 
ATOM      8  C   UNL     1     105.168 124.923 147.215  0.00  0.00    +0.000 A 
ATOM      9  C   UNL     1     105.941 125.263 147.380  0.00  0.00    +0.000 A 
ATOM     10  C   UNL     1     104.705 124.656 147.844  0.00  0.00    +0.000 A 
ATOM     11  C   UNL     1     103.683 124.267 146.924  0.00  0.00    +0.000 A 
ATOM     12  C   UNL     1     103.962 124.328 147.699  0.00  0.00    +0.000 A 
ENDROOT
BRANCH  11  14
ATOM     13  O   UNL     1     100.711 122.954 146.345  0.00  0.00    +0.000 OA
ATOM     14  C   UNL     1     102.940 123.939 146.779  0.00  0.00    +0.000 A 
ATOM     15  C   UNL     1     102.266 124.415 146.806  0.00  0.00    +0.000 A 
ATOM     16  C   UNL     1     102.870 123.135 146.608  0.00  0.00    +0.000 A 
ATOM     17  C   UNL     1     101.523 124.087 146.661  0.00  0.00    +0.000 A 
ATOM     18  C   UNL     1     102.127 122.807 146.463  0.00  0.00    +0.000 A 
ATOM     19  C   UNL     1     101.454 123.283 146.490  0.00  0.00    +0.000 A 
ENDBRANCH  11  14
BRANCH   5  20
ATOM     20  O   UNL     1     107.170 125.870 146.877  0.00  0.00    +0.000 OA
ATOM     21  C   UNL     1     107.754 125.419 147.247  0.00  0.00    +0.000 C 
ENDBRANCH   5  20
BRANCH  12  22
ATOM     22  O   UNL     1     103.499 124.062 148.327  0.00  0.00    +0.000 OA
ATOM     23  C   UNL     1     103.663 124.313 149.096  0.00  0.00    +0.000 C 
ENDBRANCH  12  22
BRANCH   4  24
ATOM     24  O   UNL     1     106.597 125.744 145.292  0.00  0.00    +0.000 OA
BRANCH  24  33
ATOM     25  O   UNL     1     105.916 126.951 144.943  0.00  0.00    +0.000 OA
ATOM     26  O   UNL     1     105.278 127.721 143.003  0.00  0.00    +0.000 OA
ATOM     27  O   UNL     1     105.980 126.296 142.557  0.00  0.00    +0.000 OA
ATOM     28  O   UNL     1     106.639 125.307 143.702  0.00  0.00    +0.000 OA
ATOM     29  C   UNL     1     105.608 127.226 143.575  0.00  0.00    +0.000 C 
ATOM     30  C   UNL     1     105.587 127.445 144.370  0.00  0.00    +0.000 C 
ATOM     31  C   UNL     1     105.959 126.514 143.352  0.00  0.00    +0.000 C 
ATOM     32  C   UNL     1     106.288 126.020 143.924  0.00  0.00    +0.000 C 
ATOM     33  C   UNL     1     106.267 126.239 144.719  0.00  0.00    +0.000 C 
BRANCH  30  34
ATOM     34  C   UNL     1     105.236 128.158 144.593  0.00  0.00    +0.000 C 
ATOM     35  C   UNL     1     105.653 128.694 145.061  0.00  0.00    +0.000 C 
ENDBRANCH  30  34
ENDBRANCH  24  33
ENDBRANCH   4  24
TORSDOF 6
ENDMDL
MODEL 5
REMARK VINA RESULT:      -8.5      8.368     11.009
REMARK  Name = 44259751
REMARK  6 active torsions:
REMARK  status: ('A' for Active; 'I' for Inactive)
REMARK    1  A    between atoms: O_3  and  C_16
REMARK    2  A    between atoms: O_3  and  C_19
REMARK    3  A    between atoms: O_7  and  C_20
REMARK    4  A    between atoms: O_9  and  C_27
REMARK    5  A    between atoms: C_13  and  C_17
REMARK    6  A    between atoms: C_26  and  C_28
REMARK                            x       y       z     vdW  Elec       q    Type
REMARK                         _______ _______ _______ _____ _____    ______ ____
ROOT
ATOM      1  O   UNL     1     105.507 126.411 144.359  0.00  0.00    +0.000 OA
ATOM      2  O   UNL     1     107.260 126.641 146.644  0.00  0.00    +0.000 OA
ATOM      3  O   UNL     1     107.278 127.625 145.588  0.00  0.00    +0.000 OA
ATOM      4  C   UNL     1     105.730 125.084 146.142  0.00  0.00    +0.000 A 
ATOM      5  C   UNL     1     106.346 125.505 146.569  0.00  0.00    +0.000 A 
ATOM      6  C   UNL     1     105.447 125.393 145.392  0.00  0.00    +0.000 A 
ATOM      7  C   UNL     1     105.783 126.120 145.078  0.00  0.00    +0.000 A 
ATOM      8  C   UNL     1     106.373 126.524 145.489  0.00  0.00    +0.000 A 
ATOM      9  C   UNL     1     106.669 126.231 146.240  0.00  0.00    +0.000 A 
ATOM     10  C   UNL     1     106.688 127.221 145.178  0.00  0.00    +0.000 A 
ATOM     11  C   UNL     1     105.821 127.108 144.048  0.00  0.00    +0.000 A 
ATOM     12  C   UNL     1     106.412 127.513 144.458  0.00  0.00    +0.000 A 
ENDROOT
BRANCH  11  14
ATOM     13  O   UNL     1     104.718 128.277 141.166  0.00  0.00    +0.000 OA
ATOM     14  C   UNL     1     105.545 127.400 143.327  0.00  0.00    +0.000 A 
ATOM     15  C   UNL     1     105.793 127.054 142.620  0.00  0.00    +0.000 A 
ATOM     16  C   UNL     1     105.022 128.037 143.313  0.00  0.00    +0.000 A 
ATOM     17  C   UNL     1     105.517 127.347 141.899  0.00  0.00    +0.000 A 
ATOM     18  C   UNL     1     104.746 128.329 142.593  0.00  0.00    +0.000 A 
ATOM     19  C   UNL     1     104.994 127.984 141.886  0.00  0.00    +0.000 A 
ENDBRANCH  11  14
BRANCH   5  20
ATOM     20  O   UNL     1     106.623 125.215 147.290  0.00  0.00    +0.000 OA
ATOM     21  C   UNL     1     107.424 125.039 147.383  0.00  0.00    +0.000 C 
ENDBRANCH   5  20
BRANCH  12  22
ATOM     22  O   UNL     1     106.727 128.210 144.147  0.00  0.00    +0.000 OA
ATOM     23  C   UNL     1     107.413 128.533 144.472  0.00  0.00    +0.000 C 
ENDBRANCH  12  22
BRANCH   4  24
ATOM     24  O   UNL     1     105.414 124.387 146.450  0.00  0.00    +0.000 OA
BRANCH  24  33
ATOM     25  O   UNL     1     104.170 124.854 146.976  0.00  0.00    +0.000 OA
ATOM     26  O   UNL     1     102.146 124.062 146.776  0.00  0.00    +0.000 OA
ATOM     27  O   UNL     1     103.000 122.965 145.886  0.00  0.00    +0.000 OA
ATOM     28  O   UNL     1     104.634 123.128 145.723  0.00  0.00    +0.000 OA
ATOM     29  C   UNL     1     102.963 124.142 146.694  0.00  0.00    +0.000 C 
ATOM     30  C   UNL     1     103.353 124.772 147.057  0.00  0.00    +0.000 C 
ATOM     31  C   UNL     1     103.390 123.595 146.249  0.00  0.00    +0.000 C 
ATOM     32  C   UNL     1     104.206 123.676 146.168  0.00  0.00    +0.000 C 
ATOM     33  C   UNL     1     104.596 124.305 146.531  0.00  0.00    +0.000 C 
BRANCH  30  34
ATOM     34  C   UNL     1     102.926 125.321 147.503  0.00  0.00    +0.000 C 
ATOM     35  C   UNL     1     103.165 125.504 148.271  0.00  0.00    +0.000 C 
ENDBRANCH  30  34
ENDBRANCH  24  33
ENDBRANCH   4  24
TORSDOF 6
ENDMDL
MODEL 6
REMARK VINA RESULT:      -8.5      1.669      5.487
REMARK  Name = 44259751
REMARK  6 active torsions:
REMARK  status: ('A' for Active; 'I' for Inactive)
REMARK    1  A    between atoms: O_3  and  C_16
REMARK    2  A    between atoms: O_3  and  C_19
REMARK    3  A    between atoms: O_7  and  C_20
REMARK    4  A    between atoms: O_9  and  C_27
REMARK    5  A    between atoms: C_13  and  C_17
REMARK    6  A    between atoms: C_26  and  C_28
REMARK                            x       y       z     vdW  Elec       q    Type
REMARK                         _______ _______ _______ _____ _____    ______ ____
ROOT
ATOM      1  O   UNL     1     112.178 127.727 139.042  0.00  0.00    +0.000 OA
ATOM      2  O   UNL     1     113.479 129.280 136.983  0.00  0.00    +0.000 OA
ATOM      3  O   UNL     1     113.382 129.771 138.336  0.00  0.00    +0.000 OA
ATOM      4  C   UNL     1     112.497 127.270 136.879  0.00  0.00    +0.000 A 
ATOM      5  C   UNL     1     112.915 127.979 136.633  0.00  0.00    +0.000 A 
ATOM      6  C   UNL     1     112.248 127.186 137.696  0.00  0.00    +0.000 A 
ATOM      7  C   UNL     1     112.420 127.813 138.259  0.00  0.00    +0.000 A 
ATOM      8  C   UNL     1     112.821 128.494 138.024  0.00  0.00    +0.000 A 
ATOM      9  C   UNL     1     113.078 128.596 137.210  0.00  0.00    +0.000 A 
ATOM     10  C   UNL     1     112.981 129.089 138.572  0.00  0.00    +0.000 A 
ATOM     11  C   UNL     1     112.337 128.322 139.591  0.00  0.00    +0.000 A 
ATOM     12  C   UNL     1     112.739 129.004 139.356  0.00  0.00    +0.000 A 
ENDROOT
BRANCH  11  14
ATOM     13  O   UNL     1     111.372 127.978 142.728  0.00  0.00    +0.000 OA
ATOM     14  C   UNL     1     112.096 128.236 140.376  0.00  0.00    +0.000 A 
ATOM     15  C   UNL     1     111.365 128.532 140.617  0.00  0.00    +0.000 A 
ATOM     16  C   UNL     1     112.585 127.854 140.919  0.00  0.00    +0.000 A 
ATOM     17  C   UNL     1     111.123 128.446 141.401  0.00  0.00    +0.000 A 
ATOM     18  C   UNL     1     112.344 127.768 141.703  0.00  0.00    +0.000 A 
ATOM     19  C   UNL     1     111.613 128.064 141.944  0.00  0.00    +0.000 A 
ENDBRANCH  11  14
BRANCH   5  20
ATOM     20  O   UNL     1     113.157 128.068 135.850  0.00  0.00    +0.000 OA
ATOM     21  C   UNL     1     112.780 128.615 135.360  0.00  0.00    +0.000 C 
ENDBRANCH   5  20
BRANCH  12  22
ATOM     22  O   UNL     1     112.899 129.599 139.905  0.00  0.00    +0.000 OA
ATOM     23  C   UNL     1     113.494 130.150 139.754  0.00  0.00    +0.000 C 
ENDBRANCH  12  22
BRANCH   4  24
ATOM     24  O   UNL     1     112.336 126.673 136.333  0.00  0.00    +0.000 OA
BRANCH  24  33
ATOM     25  O   UNL     1     113.284 125.700 136.775  0.00  0.00    +0.000 OA
ATOM     26  O   UNL     1     113.100 123.541 137.037  0.00  0.00    +0.000 OA
ATOM     27  O   UNL     1     111.585 123.921 136.504  0.00  0.00    +0.000 OA
ATOM     28  O   UNL     1     111.203 125.487 136.152  0.00  0.00    +0.000 OA
ATOM     29  C   UNL     1     112.908 124.324 136.861  0.00  0.00    +0.000 C 
ATOM     30  C   UNL     1     113.474 124.917 136.951  0.00  0.00    +0.000 C 
ATOM     31  C   UNL     1     112.151 124.514 136.595  0.00  0.00    +0.000 C 
ATOM     32  C   UNL     1     111.960 125.296 136.419  0.00  0.00    +0.000 C 
ATOM     33  C   UNL     1     112.527 125.889 136.509  0.00  0.00    +0.000 C 
BRANCH  30  34
ATOM     34  C   UNL     1     114.232 124.727 137.218  0.00  0.00    +0.000 C 
ATOM     35  C   UNL     1     114.894 124.989 136.801  0.00  0.00    +0.000 C 
ENDBRANCH  30  34
ENDBRANCH  24  33
ENDBRANCH   4  24
TORSDOF 6
ENDMDL
MODEL 7
REMARK VINA RESULT:      -8.5      2.086      4.615
REMARK  Name = 44259751
REMARK  6 active torsions:
REMARK  status: ('A' for Active; 'I' for Inactive)
REMARK    1  A    between atoms: O_3  and  C_16
REMARK    2  A    between atoms: O_3  and  C_19
REMARK    3  A    between atoms: O_7  and  C_20
REMARK    4  A    between atoms: O_9  and  C_27
REMARK    5  A    between atoms: C_13  and  C_17
REMARK    6  A    between atoms: C_26  and  C_28
REMARK                            x       y       z     vdW  Elec       q    Type
REMARK                         _______ _______ _______ _____ _____    ______ ____
ROOT
ATOM      1  O   UNL     1     112.325 128.854 137.448  0.00  0.00    +0.000 OA
ATOM      2  O   UNL     1     114.094 126.945 136.193  0.00  0.00    +0.000 OA
ATOM      3  O   UNL     1     113.884 128.254 135.623  0.00  0.00    +0.000 OA
ATOM      4  C   UNL     1     112.865 126.774 138.058  0.00  0.00    +0.000 A 
ATOM      5  C   UNL     1     113.407 126.565 137.424  0.00  0.00    +0.000 A 
ATOM      6  C   UNL     1     112.499 127.551 138.065  0.00  0.00    +0.000 A 
ATOM      7  C   UNL     1     112.679 128.110 137.437  0.00  0.00    +0.000 A 
ATOM      8  C   UNL     1     113.199 127.910 136.828  0.00  0.00    +0.000 A 
ATOM      9  C   UNL     1     113.575 127.137 136.805  0.00  0.00    +0.000 A 
ATOM     10  C   UNL     1     113.364 128.455 136.231  0.00  0.00    +0.000 A 
ATOM     11  C   UNL     1     112.490 129.399 136.851  0.00  0.00    +0.000 A 
ATOM     12  C   UNL     1     113.010 129.199 136.242  0.00  0.00    +0.000 A 
ENDROOT
BRANCH  11  14
ATOM     13  O   UNL     1     111.073 132.379 136.896  0.00  0.00    +0.000 OA
ATOM     14  C   UNL     1     112.135 130.144 136.863  0.00  0.00    +0.000 A 
ATOM     15  C   UNL     1     111.388 130.250 136.530  0.00  0.00    +0.000 A 
ATOM     16  C   UNL     1     112.529 130.783 137.206  0.00  0.00    +0.000 A 
ATOM     17  C   UNL     1     111.033 130.995 136.542  0.00  0.00    +0.000 A 
ATOM     18  C   UNL     1     112.174 131.528 137.217  0.00  0.00    +0.000 A 
ATOM     19  C   UNL     1     111.426 131.634 136.885  0.00  0.00    +0.000 A 
ENDBRANCH  11  14
BRANCH   5  20
ATOM     20  O   UNL     1     113.763 125.821 137.411  0.00  0.00    +0.000 OA
ATOM     21  C   UNL     1     113.516 125.256 136.862  0.00  0.00    +0.000 C 
ENDBRANCH   5  20
BRANCH  12  22
ATOM     22  O   UNL     1     113.175 129.744 135.645  0.00  0.00    +0.000 OA
ATOM     23  C   UNL     1     113.535 129.493 134.946  0.00  0.00    +0.000 C 
ENDBRANCH  12  22
BRANCH   4  24
ATOM     24  O   UNL     1     112.698 126.231 138.657  0.00  0.00    +0.000 OA
BRANCH  24  33
ATOM     25  O   UNL     1     113.372 126.850 139.755  0.00  0.00    +0.000 OA
ATOM     26  O   UNL     1     112.731 127.194 141.813  0.00  0.00    +0.000 OA
ATOM     27  O   UNL     1     111.401 126.438 141.195  0.00  0.00    +0.000 OA
ATOM     28  O   UNL     1     111.385 125.956 139.617  0.00  0.00    +0.000 OA
ATOM     29  C   UNL     1     112.722 126.953 141.024  0.00  0.00    +0.000 C 
ATOM     30  C   UNL     1     113.379 127.091 140.544  0.00  0.00    +0.000 C 
ATOM     31  C   UNL     1     112.058 126.575 140.715  0.00  0.00    +0.000 C 
ATOM     32  C   UNL     1     112.050 126.335 139.927  0.00  0.00    +0.000 C 
ATOM     33  C   UNL     1     112.706 126.472 139.446  0.00  0.00    +0.000 C 
BRANCH  30  34
ATOM     34  C   UNL     1     114.045 127.469 140.853  0.00  0.00    +0.000 C 
ATOM     35  C   UNL     1     114.784 127.104 140.811  0.00  0.00    +0.000 C 
ENDBRANCH  30  34
ENDBRANCH  24  33
ENDBRANCH   4  24
TORSDOF 6
ENDMDL
MODEL 8
REMARK VINA RESULT:      -8.4      7.415     10.542
REMARK  Name = 44259751
REMARK  6 active torsions:
REMARK  status: ('A' for Active; 'I' for Inactive)
REMARK    1  A    between atoms: O_3  and  C_16
REMARK    2  A    between atoms: O_3  and  C_19
REMARK    3  A    between atoms: O_7  and  C_20
REMARK    4  A    between atoms: O_9  and  C_27
REMARK    5  A    between atoms: C_13  and  C_17
REMARK    6  A    between atoms: C_26  and  C_28
REMARK                            x       y       z     vdW  Elec       q    Type
REMARK                         _______ _______ _______ _____ _____    ______ ____
ROOT
ATOM      1  O   UNL     1     104.828 125.511 145.489  0.00  0.00    +0.000 OA
ATOM      2  O   UNL     1     107.381 126.530 146.377  0.00  0.00    +0.000 OA
ATOM      3  O   UNL     1     106.755 125.411 147.038  0.00  0.00    +0.000 OA
ATOM      4  C   UNL     1     106.055 127.203 144.701  0.00  0.00    +0.000 A 
ATOM      5  C   UNL     1     106.725 127.168 145.239  0.00  0.00    +0.000 A 
ATOM      6  C   UNL     1     105.413 126.640 144.788  0.00  0.00    +0.000 A 
ATOM      7  C   UNL     1     105.447 126.048 145.411  0.00  0.00    +0.000 A 
ATOM      8  C   UNL     1     106.090 126.015 145.927  0.00  0.00    +0.000 A 
ATOM      9  C   UNL     1     106.743 126.570 145.856  0.00  0.00    +0.000 A 
ATOM     10  C   UNL     1     106.112 125.444 146.522  0.00  0.00    +0.000 A 
ATOM     11  C   UNL     1     104.849 124.939 146.083  0.00  0.00    +0.000 A 
ATOM     12  C   UNL     1     105.492 124.905 146.600  0.00  0.00    +0.000 A 
ENDROOT
BRANCH  11  14
ATOM     13  O   UNL     1     102.368 122.786 146.398  0.00  0.00    +0.000 OA
ATOM     14  C   UNL     1     104.229 124.401 146.162  0.00  0.00    +0.000 A 
ATOM     15  C   UNL     1     104.254 123.681 145.759  0.00  0.00    +0.000 A 
ATOM     16  C   UNL     1     103.584 124.582 146.644  0.00  0.00    +0.000 A 
ATOM     17  C   UNL     1     103.633 123.143 145.837  0.00  0.00    +0.000 A 
ATOM     18  C   UNL     1     102.964 124.043 146.722  0.00  0.00    +0.000 A 
ATOM     19  C   UNL     1     102.988 123.324 146.319  0.00  0.00    +0.000 A 
ENDBRANCH  11  14
BRANCH   5  20
ATOM     20  O   UNL     1     107.346 127.705 145.163  0.00  0.00    +0.000 OA
ATOM     21  C   UNL     1     107.429 128.321 145.707  0.00  0.00    +0.000 C 
ENDBRANCH   5  20
BRANCH  12  22
ATOM     22  O   UNL     1     105.515 124.334 147.195  0.00  0.00    +0.000 OA
ATOM     23  C   UNL     1     105.918 124.486 147.898  0.00  0.00    +0.000 C 
ENDBRANCH  12  22
BRANCH   4  24
ATOM     24  O   UNL     1     106.030 127.773 144.106  0.00  0.00    +0.000 OA
BRANCH  24  33
ATOM     25  O   UNL     1     106.244 126.946 142.960  0.00  0.00    +0.000 OA
ATOM     26  O   UNL     1     105.245 126.904 141.020  0.00  0.00    +0.000 OA
ATOM     27  O   UNL     1     104.424 128.125 141.768  0.00  0.00    +0.000 OA
ATOM     28  O   UNL     1     104.817 128.559 143.311  0.00  0.00    +0.000 OA
ATOM     29  C   UNL     1     105.441 127.122 141.792  0.00  0.00    +0.000 C 
ATOM     30  C   UNL     1     106.048 126.729 142.189  0.00  0.00    +0.000 C 
ATOM     31  C   UNL     1     105.031 127.732 142.166  0.00  0.00    +0.000 C 
ATOM     32  C   UNL     1     105.227 127.949 142.936  0.00  0.00    +0.000 C 
ATOM     33  C   UNL     1     105.834 127.556 143.334  0.00  0.00    +0.000 C 
BRANCH  30  34
ATOM     34  C   UNL     1     106.459 126.118 141.815  0.00  0.00    +0.000 C 
ATOM     35  C   UNL     1     107.276 126.170 141.718  0.00  0.00    +0.000 C 
ENDBRANCH  30  34
ENDBRANCH  24  33
ENDBRANCH   4  24
TORSDOF 6
ENDMDL
MODEL 9
REMARK VINA RESULT:      -8.4      2.173      5.115
REMARK  Name = 44259751
REMARK  6 active torsions:
REMARK  status: ('A' for Active; 'I' for Inactive)
REMARK    1  A    between atoms: O_3  and  C_16
REMARK    2  A    between atoms: O_3  and  C_19
REMARK    3  A    between atoms: O_7  and  C_20
REMARK    4  A    between atoms: O_9  and  C_27
REMARK    5  A    between atoms: C_13  and  C_17
REMARK    6  A    between atoms: C_26  and  C_28
REMARK                            x       y       z     vdW  Elec       q    Type
REMARK                         _______ _______ _______ _____ _____    ______ ____
ROOT
ATOM      1  O   UNL     1     111.530 128.341 137.166  0.00  0.00    +0.000 OA
ATOM      2  O   UNL     1     113.469 128.730 139.272  0.00  0.00    +0.000 OA
ATOM      3  O   UNL     1     112.981 129.843 138.494  0.00  0.00    +0.000 OA
ATOM      4  C   UNL     1     112.479 126.858 138.541  0.00  0.00    +0.000 A 
ATOM      5  C   UNL     1     112.983 127.379 139.002  0.00  0.00    +0.000 A 
ATOM      6  C   UNL     1     111.987 127.186 137.918  0.00  0.00    +0.000 A 
ATOM      7  C   UNL     1     112.004 128.032 137.764  0.00  0.00    +0.000 A 
ATOM      8  C   UNL     1     112.488 128.532 138.207  0.00  0.00    +0.000 A 
ATOM      9  C   UNL     1     112.988 128.222 138.835  0.00  0.00    +0.000 A 
ATOM     10  C   UNL     1     112.497 129.342 138.051  0.00  0.00    +0.000 A 
ATOM     11  C   UNL     1     111.538 129.151 137.009  0.00  0.00    +0.000 A 
ATOM     12  C   UNL     1     112.022 129.652 137.452  0.00  0.00    +0.000 A 
ENDROOT
BRANCH  11  14
ATOM     13  O   UNL     1     109.639 130.391 134.612  0.00  0.00    +0.000 OA
ATOM     14  C   UNL     1     111.063 129.461 136.410  0.00  0.00    +0.000 A 
ATOM     15  C   UNL     1     110.321 129.772 136.591  0.00  0.00    +0.000 A 
ATOM     16  C   UNL     1     111.330 129.460 135.629  0.00  0.00    +0.000 A 
ATOM     17  C   UNL     1     109.846 130.082 135.992  0.00  0.00    +0.000 A 
ATOM     18  C   UNL     1     110.855 129.770 135.030  0.00  0.00    +0.000 A 
ATOM     19  C   UNL     1     110.113 130.081 135.211  0.00  0.00    +0.000 A 
ENDBRANCH  11  14
BRANCH   5  20
ATOM     20  O   UNL     1     113.459 127.072 139.602  0.00  0.00    +0.000 OA
ATOM     21  C   UNL     1     113.261 127.201 140.393  0.00  0.00    +0.000 C 
ENDBRANCH   5  20
BRANCH  12  22
ATOM     22  O   UNL     1     112.031 130.462 137.296  0.00  0.00    +0.000 OA
ATOM     23  C   UNL     1     112.705 130.908 137.465  0.00  0.00    +0.000 C 
ENDBRANCH  12  22
BRANCH   4  24
ATOM     24  O   UNL     1     112.468 126.048 138.695  0.00  0.00    +0.000 OA
BRANCH  24  33
ATOM     25  O   UNL     1     113.288 125.535 137.643  0.00  0.00    +0.000 OA
ATOM     26  O   UNL     1     112.956 123.895 136.241  0.00  0.00    +0.000 OA
ATOM     27  O   UNL     1     111.559 123.844 137.118  0.00  0.00    +0.000 OA
ATOM     28  O   UNL     1     111.315 124.921 138.345  0.00  0.00    +0.000 OA
ATOM     29  C   UNL     1     112.833 124.433 136.855  0.00  0.00    +0.000 C 
ATOM     30  C   UNL     1     113.410 124.997 137.030  0.00  0.00    +0.000 C 
ATOM     31  C   UNL     1     112.135 124.408 137.293  0.00  0.00    +0.000 C 
ATOM     32  C   UNL     1     112.013 124.946 137.906  0.00  0.00    +0.000 C 
ATOM     33  C   UNL     1     112.590 125.509 138.081  0.00  0.00    +0.000 C 
BRANCH  30  34
ATOM     34  C   UNL     1     114.109 125.022 136.591  0.00  0.00    +0.000 C 
ATOM     35  C   UNL     1     114.838 124.984 136.975  0.00  0.00    +0.000 C 
ENDBRANCH  30  34
ENDBRANCH  24  33
ENDBRANCH   4  24
TORSDOF 6
ENDMDL
MODEL 10
REMARK VINA RESULT:      -8.3      1.718      2.560
REMARK  Name = 44259751
REMARK  6 active torsions:
REMARK  status: ('A' for Active; 'I' for Inactive)
REMARK    1  A    between atoms: O_3  and  C_16
REMARK    2  A    between atoms: O_3  and  C_19
REMARK    3  A    between atoms: O_7  and  C_20
REMARK    4  A    between atoms: O_9  and  C_27
REMARK    5  A    between atoms: C_13  and  C_17
REMARK    6  A    between atoms: C_26  and  C_28
REMARK                            x       y       z     vdW  Elec       q    Type
REMARK                         _______ _______ _______ _____ _____    ______ ____
ROOT
ATOM      1  O   UNL     1     113.338 127.572 137.438  0.00  0.00    +0.000 OA
ATOM      2  O   UNL     1     110.950 128.865 136.452  0.00  0.00    +0.000 OA
ATOM      3  O   UNL     1     111.261 127.502 136.096  0.00  0.00    +0.000 OA
ATOM      4  C   UNL     1     112.570 129.639 137.792  0.00  0.00    +0.000 A 
ATOM      5  C   UNL     1     111.848 129.616 137.326  0.00  0.00    +0.000 A 
ATOM      6  C   UNL     1     113.074 128.945 137.829  0.00  0.00    +0.000 A 
ATOM      7  C   UNL     1     112.851 128.235 137.399  0.00  0.00    +0.000 A 
ATOM      8  C   UNL     1     112.158 128.212 136.952  0.00  0.00    +0.000 A 
ATOM      9  C   UNL     1     111.641 128.897 136.902  0.00  0.00    +0.000 A 
ATOM     10  C   UNL     1     111.954 127.525 136.543  0.00  0.00    +0.000 A 
ATOM     11  C   UNL     1     113.135 126.884 137.030  0.00  0.00    +0.000 A 
ATOM     12  C   UNL     1     112.442 126.861 136.582  0.00  0.00    +0.000 A 
ENDROOT
BRANCH  11  14
ATOM     13  O   UNL     1     115.086 124.228 137.188  0.00  0.00    +0.000 OA
ATOM     14  C   UNL     1     113.623 126.220 137.070  0.00  0.00    +0.000 A 
ATOM     15  C   UNL     1     114.185 126.087 136.481  0.00  0.00    +0.000 A 
ATOM     16  C   UNL     1     113.548 125.690 137.697  0.00  0.00    +0.000 A 
ATOM     17  C   UNL     1     114.673 125.422 136.520  0.00  0.00    +0.000 A 
ATOM     18  C   UNL     1     114.037 125.026 137.736  0.00  0.00    +0.000 A 
ATOM     19  C   UNL     1     114.599 124.892 137.148  0.00  0.00    +0.000 A 
ENDBRANCH  11  14
BRANCH   5  20
ATOM     20  O   UNL     1     111.358 130.278 137.285  0.00  0.00    +0.000 OA
ATOM     21  C   UNL     1     111.323 130.723 136.590  0.00  0.00    +0.000 C 
ENDBRANCH   5  20
BRANCH  12  22
ATOM     22  O   UNL     1     112.237 126.174 136.174  0.00  0.00    +0.000 OA
ATOM     23  C   UNL     1     111.460 126.059 135.922  0.00  0.00    +0.000 C 
ENDBRANCH  12  22
BRANCH   4  24
ATOM     24  O   UNL     1     112.777 130.325 138.201  0.00  0.00    +0.000 OA
BRANCH  24  33
ATOM     25  O   UNL     1     112.557 129.900 139.548  0.00  0.00    +0.000 OA
ATOM     26  O   UNL     1     113.783 130.134 141.338  0.00  0.00    +0.000 OA
ATOM     27  O   UNL     1     114.726 130.887 140.214  0.00  0.00    +0.000 OA
ATOM     28  O   UNL     1     114.223 130.983 138.645  0.00  0.00    +0.000 OA
ATOM     29  C   UNL     1     113.532 130.182 140.554  0.00  0.00    +0.000 C 
ATOM     30  C   UNL     1     112.809 129.853 140.332  0.00  0.00    +0.000 C 
ATOM     31  C   UNL     1     114.003 130.558 139.992  0.00  0.00    +0.000 C 
ATOM     32  C   UNL     1     113.752 130.606 139.208  0.00  0.00    +0.000 C 
ATOM     33  C   UNL     1     113.029 130.277 138.986  0.00  0.00    +0.000 C 
BRANCH  30  34
ATOM     34  C   UNL     1     112.336 129.476 140.894  0.00  0.00    +0.000 C 
ATOM     35  C   UNL     1     111.548 129.700 140.988  0.00  0.00    +0.000 C 
ENDBRANCH  30  34
ENDBRANCH  24  33
ENDBRANCH   4  24
TORSDOF 6
ENDMDL
