MODEL 1
REMARK VINA RESULT:      -7.6      0.000      0.000
REMARK  Name = 5320351
REMARK  6 active torsions:
REMARK  status: ('A' for Active; 'I' for Inactive)
REMARK    1  A    between atoms: O_2  and  C_12
REMARK    2  A    between atoms: O_3  and  C_17
REMARK    3  A    between atoms: O_4  and  C_18
REMARK    4  A    between atoms: O_7  and  C_21
REMARK    5  A    between atoms: O_8  and  C_22
REMARK    6  A    between atoms: C_11  and  C_14
REMARK                            x       y       z     vdW  Elec       q    Type
REMARK                         _______ _______ _______ _____ _____    ______ ____
ROOT
ATOM      1  O   UNL     1     113.808 127.602 136.393  0.00  0.00    +0.000 OA
ATOM      2  O   UNL     1     111.374 126.071 136.109  0.00  0.00    +0.000 OA
ATOM      3  O   UNL     1     111.456 127.433 135.639  0.00  0.00    +0.000 OA
ATOM      4  C   UNL     1     112.604 126.844 136.253  0.00  0.00    +0.000 A 
ATOM      5  C   UNL     1     113.388 126.901 136.504  0.00  0.00    +0.000 A 
ATOM      6  C   UNL     1     113.443 128.248 136.030  0.00  0.00    +0.000 A 
ATOM      7  C   UNL     1     112.659 128.191 135.779  0.00  0.00    +0.000 A 
ATOM      8  C   UNL     1     112.240 127.489 135.891  0.00  0.00    +0.000 A 
ATOM      9  C   UNL     1     112.157 126.118 136.363  0.00  0.00    +0.000 A 
ATOM     10  C   UNL     1     113.779 126.236 136.883  0.00  0.00    +0.000 A 
ATOM     11  C   UNL     1     112.531 125.443 136.740  0.00  0.00    +0.000 A 
ATOM     12  C   UNL     1     113.347 125.502 137.002  0.00  0.00    +0.000 A 
ENDROOT
BRANCH   6  13
ATOM     13  C   UNL     1     113.862 128.949 135.919  0.00  0.00    +0.000 A 
ATOM     14  C   UNL     1     113.876 129.521 136.513  0.00  0.00    +0.000 A 
ATOM     15  C   UNL     1     114.269 129.079 135.212  0.00  0.00    +0.000 A 
ATOM     16  C   UNL     1     114.296 130.222 136.401  0.00  0.00    +0.000 A 
ATOM     17  C   UNL     1     114.702 130.352 135.695  0.00  0.00    +0.000 A 
ATOM     18  C   UNL     1     114.689 129.780 135.101  0.00  0.00    +0.000 A 
BRANCH  16  19
ATOM     19  O   UNL     1     114.310 130.794 136.995  0.00  0.00    +0.000 OA
ATOM     20  C   UNL     1     114.068 130.601 137.760  0.00  0.00    +0.000 C 
ENDBRANCH  16  19
BRANCH  17  21
ATOM     21  O   UNL     1     115.123 131.053 135.583  0.00  0.00    +0.000 OA
ATOM     22  C   UNL     1     115.520 131.187 134.873  0.00  0.00    +0.000 C 
ENDBRANCH  17  21
ENDBRANCH   6  13
BRANCH   7  23
ATOM     23  O   UNL     1     112.295 128.836 135.417  0.00  0.00    +0.000 OA
ATOM     24  C   UNL     1     111.472 128.866 135.358  0.00  0.00    +0.000 C 
ENDBRANCH   7  23
BRANCH  11  25
ATOM     25  O   UNL     1     112.110 124.743 136.851  0.00  0.00    +0.000 OA
ATOM     26  C   UNL     1     111.584 124.673 137.482  0.00  0.00    +0.000 C 
ENDBRANCH  11  25
BRANCH  12  27
ATOM     27  O   UNL     1     113.715 124.859 137.365  0.00  0.00    +0.000 OA
ATOM     28  C   UNL     1     114.538 124.834 137.428  0.00  0.00    +0.000 C 
ENDBRANCH  12  27
TORSDOF 6
ENDMDL
MODEL 2
REMARK VINA RESULT:      -7.4      0.866      1.400
REMARK  Name = 5320351
REMARK  6 active torsions:
REMARK  status: ('A' for Active; 'I' for Inactive)
REMARK    1  A    between atoms: O_2  and  C_12
REMARK    2  A    between atoms: O_3  and  C_17
REMARK    3  A    between atoms: O_4  and  C_18
REMARK    4  A    between atoms: O_7  and  C_21
REMARK    5  A    between atoms: O_8  and  C_22
REMARK    6  A    between atoms: C_11  and  C_14
REMARK                            x       y       z     vdW  Elec       q    Type
REMARK                         _______ _______ _______ _____ _____    ______ ____
ROOT
ATOM      1  O   UNL     1     113.410 127.103 136.601  0.00  0.00    +0.000 OA
ATOM      2  O   UNL     1     111.452 125.083 135.940  0.00  0.00    +0.000 OA
ATOM      3  O   UNL     1     111.209 126.476 135.658  0.00  0.00    +0.000 OA
ATOM      4  C   UNL     1     112.442 126.103 136.275  0.00  0.00    +0.000 A 
ATOM      5  C   UNL     1     113.176 126.312 136.589  0.00  0.00    +0.000 A 
ATOM      6  C   UNL     1     112.909 127.685 136.298  0.00  0.00    +0.000 A 
ATOM      7  C   UNL     1     112.176 127.476 135.984  0.00  0.00    +0.000 A 
ATOM      8  C   UNL     1     111.943 126.685 135.972  0.00  0.00    +0.000 A 
ATOM      9  C   UNL     1     112.187 125.282 136.257  0.00  0.00    +0.000 A 
ATOM     10  C   UNL     1     113.705 125.714 136.908  0.00  0.00    +0.000 A 
ATOM     11  C   UNL     1     112.704 124.671 136.570  0.00  0.00    +0.000 A 
ATOM     12  C   UNL     1     113.467 124.889 136.898  0.00  0.00    +0.000 A 
ENDROOT
BRANCH   6  13
ATOM     13  C   UNL     1     113.144 128.476 136.310  0.00  0.00    +0.000 A 
ATOM     14  C   UNL     1     113.628 128.773 135.712  0.00  0.00    +0.000 A 
ATOM     15  C   UNL     1     112.893 128.971 136.922  0.00  0.00    +0.000 A 
ATOM     16  C   UNL     1     113.862 129.564 135.725  0.00  0.00    +0.000 A 
ATOM     17  C   UNL     1     113.612 130.058 136.336  0.00  0.00    +0.000 A 
ATOM     18  C   UNL     1     113.127 129.762 136.934  0.00  0.00    +0.000 A 
BRANCH  16  19
ATOM     19  O   UNL     1     114.346 129.861 135.127  0.00  0.00    +0.000 OA
ATOM     20  C   UNL     1     114.787 129.344 134.659  0.00  0.00    +0.000 C 
ENDBRANCH  16  19
BRANCH  17  21
ATOM     21  O   UNL     1     113.845 130.849 136.349  0.00  0.00    +0.000 OA
ATOM     22  C   UNL     1     113.523 131.366 136.905  0.00  0.00    +0.000 C 
ENDBRANCH  17  21
ENDBRANCH   6  13
BRANCH   7  23
ATOM     23  O   UNL     1     111.677 128.059 135.681  0.00  0.00    +0.000 OA
ATOM     24  C   UNL     1     111.087 127.856 135.141  0.00  0.00    +0.000 C 
ENDBRANCH   7  23
BRANCH  11  25
ATOM     25  O   UNL     1     112.467 123.881 136.557  0.00  0.00    +0.000 OA
ATOM     26  C   UNL     1     111.937 123.600 137.123  0.00  0.00    +0.000 C 
ENDBRANCH  11  25
BRANCH  12  27
ATOM     27  O   UNL     1     113.970 124.309 137.202  0.00  0.00    +0.000 OA
ATOM     28  C   UNL     1     114.752 124.495 137.387  0.00  0.00    +0.000 C 
ENDBRANCH  12  27
TORSDOF 6
ENDMDL
MODEL 3
REMARK VINA RESULT:      -7.3     12.726     14.883
REMARK  Name = 5320351
REMARK  6 active torsions:
REMARK  status: ('A' for Active; 'I' for Inactive)
REMARK    1  A    between atoms: O_2  and  C_12
REMARK    2  A    between atoms: O_3  and  C_17
REMARK    3  A    between atoms: O_4  and  C_18
REMARK    4  A    between atoms: O_7  and  C_21
REMARK    5  A    between atoms: O_8  and  C_22
REMARK    6  A    between atoms: C_11  and  C_14
REMARK                            x       y       z     vdW  Elec       q    Type
REMARK                         _______ _______ _______ _____ _____    ______ ____
ROOT
ATOM      1  O   UNL     1     104.522 124.179 147.026  0.00  0.00    +0.000 OA
ATOM      2  O   UNL     1     101.737 124.834 147.433  0.00  0.00    +0.000 OA
ATOM      3  O   UNL     1     102.764 125.392 148.278  0.00  0.00    +0.000 OA
ATOM      4  C   UNL     1     103.144 124.502 147.227  0.00  0.00    +0.000 A 
ATOM      5  C   UNL     1     103.730 124.098 146.809  0.00  0.00    +0.000 A 
ATOM      6  C   UNL     1     104.728 124.665 147.660  0.00  0.00    +0.000 A 
ATOM      7  C   UNL     1     104.142 125.070 148.078  0.00  0.00    +0.000 A 
ATOM      8  C   UNL     1     103.350 124.988 147.860  0.00  0.00    +0.000 A 
ATOM      9  C   UNL     1     102.316 124.426 147.010  0.00  0.00    +0.000 A 
ATOM     10  C   UNL     1     103.527 123.589 146.147  0.00  0.00    +0.000 A 
ATOM     11  C   UNL     1     102.095 123.921 146.351  0.00  0.00    +0.000 A 
ATOM     12  C   UNL     1     102.705 123.500 145.916  0.00  0.00    +0.000 A 
ENDROOT
BRANCH   6  13
ATOM     13  C   UNL     1     105.519 124.746 147.877  0.00  0.00    +0.000 A 
ATOM     14  C   UNL     1     106.015 125.250 147.451  0.00  0.00    +0.000 A 
ATOM     15  C   UNL     1     105.816 124.323 148.520  0.00  0.00    +0.000 A 
ATOM     16  C   UNL     1     106.807 125.331 147.668  0.00  0.00    +0.000 A 
ATOM     17  C   UNL     1     107.103 124.908 148.311  0.00  0.00    +0.000 A 
ATOM     18  C   UNL     1     106.608 124.404 148.737  0.00  0.00    +0.000 A 
BRANCH  16  19
ATOM     19  O   UNL     1     107.302 125.834 147.242  0.00  0.00    +0.000 OA
ATOM     20  C   UNL     1     106.982 126.460 146.810  0.00  0.00    +0.000 C 
ENDBRANCH  16  19
BRANCH  17  21
ATOM     21  O   UNL     1     107.895 124.988 148.528  0.00  0.00    +0.000 OA
ATOM     22  C   UNL     1     108.200 124.540 149.149  0.00  0.00    +0.000 C 
ENDBRANCH  17  21
ENDBRANCH   6  13
BRANCH   7  23
ATOM     23  O   UNL     1     104.348 125.555 148.711  0.00  0.00    +0.000 OA
ATOM     24  C   UNL     1     103.804 126.101 149.007  0.00  0.00    +0.000 C 
ENDBRANCH   7  23
BRANCH  11  25
ATOM     25  O   UNL     1     101.302 123.842 146.136  0.00  0.00    +0.000 OA
ATOM     26  C   UNL     1     100.821 123.299 146.529  0.00  0.00    +0.000 C 
ENDBRANCH  11  25
BRANCH  12  27
ATOM     27  O   UNL     1     102.502 123.013 145.281  0.00  0.00    +0.000 OA
ATOM     28  C   UNL     1     103.087 122.739 144.768  0.00  0.00    +0.000 C 
ENDBRANCH  12  27
TORSDOF 6
ENDMDL
MODEL 4
REMARK VINA RESULT:      -7.3     10.494     11.771
REMARK  Name = 5320351
REMARK  6 active torsions:
REMARK  status: ('A' for Active; 'I' for Inactive)
REMARK    1  A    between atoms: O_2  and  C_12
REMARK    2  A    between atoms: O_3  and  C_17
REMARK    3  A    between atoms: O_4  and  C_18
REMARK    4  A    between atoms: O_7  and  C_21
REMARK    5  A    between atoms: O_8  and  C_22
REMARK    6  A    between atoms: C_11  and  C_14
REMARK                            x       y       z     vdW  Elec       q    Type
REMARK                         _______ _______ _______ _____ _____    ______ ____
ROOT
ATOM      1  O   UNL     1     103.556 130.157 142.279  0.00  0.00    +0.000 OA
ATOM      2  O   UNL     1     104.273 127.674 140.986  0.00  0.00    +0.000 OA
ATOM      3  O   UNL     1     103.380 128.613 140.353  0.00  0.00    +0.000 OA
ATOM      4  C   UNL     1     103.911 128.928 141.641  0.00  0.00    +0.000 A 
ATOM      5  C   UNL     1     103.970 129.443 142.283  0.00  0.00    +0.000 A 
ATOM      6  C   UNL     1     103.083 130.355 141.633  0.00  0.00    +0.000 A 
ATOM      7  C   UNL     1     103.024 129.841 140.991  0.00  0.00    +0.000 A 
ATOM      8  C   UNL     1     103.438 129.127 140.995  0.00  0.00    +0.000 A 
ATOM      9  C   UNL     1     104.338 128.182 141.633  0.00  0.00    +0.000 A 
ATOM     10  C   UNL     1     104.460 129.247 142.962  0.00  0.00    +0.000 A 
ATOM     11  C   UNL     1     104.832 127.970 142.303  0.00  0.00    +0.000 A 
ATOM     12  C   UNL     1     104.893 128.505 142.971  0.00  0.00    +0.000 A 
ENDROOT
BRANCH   6  13
ATOM     13  C   UNL     1     102.669 131.069 141.630  0.00  0.00    +0.000 A 
ATOM     14  C   UNL     1     103.021 131.750 141.324  0.00  0.00    +0.000 A 
ATOM     15  C   UNL     1     101.901 131.102 141.932  0.00  0.00    +0.000 A 
ATOM     16  C   UNL     1     102.606 132.463 141.322  0.00  0.00    +0.000 A 
ATOM     17  C   UNL     1     101.840 132.496 141.624  0.00  0.00    +0.000 A 
ATOM     18  C   UNL     1     101.487 131.815 141.929  0.00  0.00    +0.000 A 
BRANCH  16  19
ATOM     19  O   UNL     1     102.959 133.143 141.016  0.00  0.00    +0.000 OA
ATOM     20  C   UNL     1     103.754 133.134 140.798  0.00  0.00    +0.000 C 
ENDBRANCH  16  19
BRANCH  17  21
ATOM     21  O   UNL     1     101.425 133.209 141.621  0.00  0.00    +0.000 OA
ATOM     22  C   UNL     1     100.711 133.273 142.029  0.00  0.00    +0.000 C 
ENDBRANCH  17  21
ENDBRANCH   6  13
BRANCH   7  23
ATOM     23  O   UNL     1     102.551 130.040 140.345  0.00  0.00    +0.000 OA
ATOM     24  C   UNL     1     102.257 129.448 139.852  0.00  0.00    +0.000 C 
ENDBRANCH   7  23
BRANCH  11  25
ATOM     25  O   UNL     1     105.245 127.256 142.304  0.00  0.00    +0.000 OA
ATOM     26  C   UNL     1     105.977 127.202 141.928  0.00  0.00    +0.000 C 
ENDBRANCH  11  25
BRANCH  12  27
ATOM     27  O   UNL     1     105.365 128.310 143.619  0.00  0.00    +0.000 OA
ATOM     28  C   UNL     1     105.269 128.707 144.336  0.00  0.00    +0.000 C 
ENDBRANCH  12  27
TORSDOF 6
ENDMDL
MODEL 5
REMARK VINA RESULT:      -7.3     11.724     13.730
REMARK  Name = 5320351
REMARK  6 active torsions:
REMARK  status: ('A' for Active; 'I' for Inactive)
REMARK    1  A    between atoms: O_2  and  C_12
REMARK    2  A    between atoms: O_3  and  C_17
REMARK    3  A    between atoms: O_4  and  C_18
REMARK    4  A    between atoms: O_7  and  C_21
REMARK    5  A    between atoms: O_8  and  C_22
REMARK    6  A    between atoms: C_11  and  C_14
REMARK                            x       y       z     vdW  Elec       q    Type
REMARK                         _______ _______ _______ _____ _____    ______ ____
ROOT
ATOM      1  O   UNL     1     104.599 124.992 146.873  0.00  0.00    +0.000 OA
ATOM      2  O   UNL     1     103.369 122.907 145.295  0.00  0.00    +0.000 OA
ATOM      3  O   UNL     1     104.577 123.560 144.854  0.00  0.00    +0.000 OA
ATOM      4  C   UNL     1     103.990 123.960 146.093  0.00  0.00    +0.000 A 
ATOM      5  C   UNL     1     103.998 124.438 146.766  0.00  0.00    +0.000 A 
ATOM      6  C   UNL     1     105.194 125.068 146.305  0.00  0.00    +0.000 A 
ATOM      7  C   UNL     1     105.187 124.591 145.632  0.00  0.00    +0.000 A 
ATOM      8  C   UNL     1     104.585 124.037 145.527  0.00  0.00    +0.000 A 
ATOM      9  C   UNL     1     103.368 123.380 145.971  0.00  0.00    +0.000 A 
ATOM     10  C   UNL     1     103.384 124.367 147.363  0.00  0.00    +0.000 A 
ATOM     11  C   UNL     1     102.747 123.295 146.557  0.00  0.00    +0.000 A 
ATOM     12  C   UNL     1     102.754 123.792 147.258  0.00  0.00    +0.000 A 
ENDROOT
BRANCH   6  13
ATOM     13  C   UNL     1     105.796 125.622 146.412  0.00  0.00    +0.000 A 
ATOM     14  C   UNL     1     106.477 125.417 146.830  0.00  0.00    +0.000 A 
ATOM     15  C   UNL     1     105.716 126.383 146.101  0.00  0.00    +0.000 A 
ATOM     16  C   UNL     1     107.078 125.972 146.937  0.00  0.00    +0.000 A 
ATOM     17  C   UNL     1     106.999 126.732 146.626  0.00  0.00    +0.000 A 
ATOM     18  C   UNL     1     106.318 126.937 146.208  0.00  0.00    +0.000 A 
BRANCH  16  19
ATOM     19  O   UNL     1     107.759 125.767 147.355  0.00  0.00    +0.000 OA
ATOM     20  C   UNL     1     107.759 125.103 147.844  0.00  0.00    +0.000 C 
ENDBRANCH  16  19
BRANCH  17  21
ATOM     21  O   UNL     1     107.600 127.287 146.732  0.00  0.00    +0.000 OA
ATOM     22  C   UNL     1     107.547 128.027 146.373  0.00  0.00    +0.000 C 
ENDBRANCH  17  21
ENDBRANCH   6  13
BRANCH   7  23
ATOM     23  O   UNL     1     105.781 124.668 145.066  0.00  0.00    +0.000 OA
ATOM     24  C   UNL     1     105.653 124.405 144.295  0.00  0.00    +0.000 C 
ENDBRANCH   7  23
BRANCH  11  25
ATOM     25  O   UNL     1     102.146 122.740 146.448  0.00  0.00    +0.000 OA
ATOM     26  C   UNL     1     101.520 122.905 145.937  0.00  0.00    +0.000 C 
ENDBRANCH  11  25
BRANCH  12  27
ATOM     27  O   UNL     1     102.161 123.718 147.827  0.00  0.00    +0.000 OA
ATOM     28  C   UNL     1     102.283 124.004 148.591  0.00  0.00    +0.000 C 
ENDBRANCH  12  27
TORSDOF 6
ENDMDL
MODEL 6
REMARK VINA RESULT:      -7.3      1.285      4.811
REMARK  Name = 5320351
REMARK  6 active torsions:
REMARK  status: ('A' for Active; 'I' for Inactive)
REMARK    1  A    between atoms: O_2  and  C_12
REMARK    2  A    between atoms: O_3  and  C_17
REMARK    3  A    between atoms: O_4  and  C_18
REMARK    4  A    between atoms: O_7  and  C_21
REMARK    5  A    between atoms: O_8  and  C_22
REMARK    6  A    between atoms: C_11  and  C_14
REMARK                            x       y       z     vdW  Elec       q    Type
REMARK                         _______ _______ _______ _____ _____    ______ ____
ROOT
ATOM      1  O   UNL     1     113.170 127.356 136.231  0.00  0.00    +0.000 OA
ATOM      2  O   UNL     1     113.266 129.728 137.878  0.00  0.00    +0.000 OA
ATOM      3  O   UNL     1     112.599 128.533 138.332  0.00  0.00    +0.000 OA
ATOM      4  C   UNL     1     113.218 128.530 137.045  0.00  0.00    +0.000 A 
ATOM      5  C   UNL     1     113.408 128.138 136.345  0.00  0.00    +0.000 A 
ATOM      6  C   UNL     1     112.740 126.967 136.819  0.00  0.00    +0.000 A 
ATOM      7  C   UNL     1     112.550 127.359 137.519  0.00  0.00    +0.000 A 
ATOM      8  C   UNL     1     112.789 128.141 137.632  0.00  0.00    +0.000 A 
ATOM      9  C   UNL     1     113.461 129.344 137.175  0.00  0.00    +0.000 A 
ATOM     10  C   UNL     1     113.855 128.533 135.725  0.00  0.00    +0.000 A 
ATOM     11  C   UNL     1     113.908 129.755 136.567  0.00  0.00    +0.000 A 
ATOM     12  C   UNL     1     114.106 129.346 135.837  0.00  0.00    +0.000 A 
ENDROOT
BRANCH   6  13
ATOM     13  C   UNL     1     112.502 126.185 136.705  0.00  0.00    +0.000 A 
ATOM     14  C   UNL     1     111.822 126.020 136.268  0.00  0.00    +0.000 A 
ATOM     15  C   UNL     1     112.945 125.568 137.029  0.00  0.00    +0.000 A 
ATOM     16  C   UNL     1     111.584 125.238 136.155  0.00  0.00    +0.000 A 
ATOM     17  C   UNL     1     112.026 124.622 136.478  0.00  0.00    +0.000 A 
ATOM     18  C   UNL     1     112.706 124.787 136.915  0.00  0.00    +0.000 A 
BRANCH  16  19
ATOM     19  O   UNL     1     110.904 125.073 135.719  0.00  0.00    +0.000 OA
ATOM     20  C   UNL     1     110.534 125.672 135.289  0.00  0.00    +0.000 C 
ENDBRANCH  16  19
BRANCH  17  21
ATOM     21  O   UNL     1     111.788 123.839 136.365  0.00  0.00    +0.000 OA
ATOM     22  C   UNL     1     112.117 123.238 136.823  0.00  0.00    +0.000 C 
ENDBRANCH  17  21
ENDBRANCH   6  13
BRANCH   7  23
ATOM     23  O   UNL     1     112.121 126.970 138.106  0.00  0.00    +0.000 OA
ATOM     24  C   UNL     1     111.674 127.404 138.646  0.00  0.00    +0.000 C 
ENDBRANCH   7  23
BRANCH  11  25
ATOM     25  O   UNL     1     114.145 130.536 136.682  0.00  0.00    +0.000 OA
ATOM     26  C   UNL     1     113.599 131.149 136.604  0.00  0.00    +0.000 C 
ENDBRANCH  11  25
BRANCH  12  27
ATOM     27  O   UNL     1     114.535 129.733 135.247  0.00  0.00    +0.000 OA
ATOM     28  C   UNL     1     114.850 129.304 134.617  0.00  0.00    +0.000 C 
ENDBRANCH  12  27
TORSDOF 6
ENDMDL
MODEL 7
REMARK VINA RESULT:      -7.1      8.473     10.453
REMARK  Name = 5320351
REMARK  6 active torsions:
REMARK  status: ('A' for Active; 'I' for Inactive)
REMARK    1  A    between atoms: O_2  and  C_12
REMARK    2  A    between atoms: O_3  and  C_17
REMARK    3  A    between atoms: O_4  and  C_18
REMARK    4  A    between atoms: O_7  and  C_21
REMARK    5  A    between atoms: O_8  and  C_22
REMARK    6  A    between atoms: C_11  and  C_14
REMARK                            x       y       z     vdW  Elec       q    Type
REMARK                         _______ _______ _______ _____ _____    ______ ____
ROOT
ATOM      1  O   UNL     1     111.466 131.729 145.190  0.00  0.00    +0.000 OA
ATOM      2  O   UNL     1     112.173 132.306 142.449  0.00  0.00    +0.000 OA
ATOM      3  O   UNL     1     111.994 133.366 143.411  0.00  0.00    +0.000 OA
ATOM      4  C   UNL     1     111.816 132.013 143.834  0.00  0.00    +0.000 A 
ATOM      5  C   UNL     1     111.640 131.468 144.427  0.00  0.00    +0.000 A 
ATOM      6  C   UNL     1     111.468 132.537 145.360  0.00  0.00    +0.000 A 
ATOM      7  C   UNL     1     111.644 133.082 144.767  0.00  0.00    +0.000 A 
ATOM      8  C   UNL     1     111.818 132.820 144.004  0.00  0.00    +0.000 A 
ATOM      9  C   UNL     1     111.998 131.753 143.035  0.00  0.00    +0.000 A 
ATOM     10  C   UNL     1     111.635 130.624 144.263  0.00  0.00    +0.000 A 
ATOM     11  C   UNL     1     111.998 130.914 142.853  0.00  0.00    +0.000 A 
ATOM     12  C   UNL     1     111.815 130.346 143.470  0.00  0.00    +0.000 A 
ENDROOT
BRANCH   6  13
ATOM     13  C   UNL     1     111.295 132.797 146.123  0.00  0.00    +0.000 A 
ATOM     14  C   UNL     1     110.523 133.013 146.320  0.00  0.00    +0.000 A 
ATOM     15  C   UNL     1     111.894 132.842 146.690  0.00  0.00    +0.000 A 
ATOM     16  C   UNL     1     110.351 133.274 147.084  0.00  0.00    +0.000 A 
ATOM     17  C   UNL     1     110.948 133.319 147.650  0.00  0.00    +0.000 A 
ATOM     18  C   UNL     1     111.720 133.103 147.453  0.00  0.00    +0.000 A 
BRANCH  16  19
ATOM     19  O   UNL     1     109.579 133.490 147.281  0.00  0.00    +0.000 OA
ATOM     20  C   UNL     1     108.947 133.236 146.815  0.00  0.00    +0.000 C 
ENDBRANCH  16  19
BRANCH  17  21
ATOM     21  O   UNL     1     110.776 133.580 148.413  0.00  0.00    +0.000 OA
ATOM     22  C   UNL     1     111.357 133.561 148.997  0.00  0.00    +0.000 C 
ENDBRANCH  17  21
ENDBRANCH   6  13
BRANCH   7  23
ATOM     23  O   UNL     1     111.646 133.889 144.937  0.00  0.00    +0.000 OA
ATOM     24  C   UNL     1     111.970 134.423 144.398  0.00  0.00    +0.000 C 
ENDBRANCH   7  23
BRANCH  11  25
ATOM     25  O   UNL     1     112.172 130.655 142.089  0.00  0.00    +0.000 OA
ATOM     26  C   UNL     1     112.957 130.574 141.850  0.00  0.00    +0.000 C 
ENDBRANCH  11  25
BRANCH  12  27
ATOM     27  O   UNL     1     111.812 129.537 143.304  0.00  0.00    +0.000 OA
ATOM     28  C   UNL     1     111.554 128.999 143.874  0.00  0.00    +0.000 C 
ENDBRANCH  12  27
TORSDOF 6
ENDMDL
MODEL 8
REMARK VINA RESULT:      -7.0      1.533      4.167
REMARK  Name = 5320351
REMARK  6 active torsions:
REMARK  status: ('A' for Active; 'I' for Inactive)
REMARK    1  A    between atoms: O_2  and  C_12
REMARK    2  A    between atoms: O_3  and  C_17
REMARK    3  A    between atoms: O_4  and  C_18
REMARK    4  A    between atoms: O_7  and  C_21
REMARK    5  A    between atoms: O_8  and  C_22
REMARK    6  A    between atoms: C_11  and  C_14
REMARK                            x       y       z     vdW  Elec       q    Type
REMARK                         _______ _______ _______ _____ _____    ______ ____
ROOT
ATOM      1  O   UNL     1     111.643 127.214 136.325  0.00  0.00    +0.000 OA
ATOM      2  O   UNL     1     111.330 129.595 134.719  0.00  0.00    +0.000 OA
ATOM      3  O   UNL     1     112.635 129.143 135.134  0.00  0.00    +0.000 OA
ATOM      4  C   UNL     1     111.487 128.392 135.531  0.00  0.00    +0.000 A 
ATOM      5  C   UNL     1     111.156 127.749 135.928  0.00  0.00    +0.000 A 
ATOM      6  C   UNL     1     112.461 127.323 136.325  0.00  0.00    +0.000 A 
ATOM      7  C   UNL     1     112.792 127.966 135.928  0.00  0.00    +0.000 A 
ATOM      8  C   UNL     1     112.304 128.500 135.531  0.00  0.00    +0.000 A 
ATOM      9  C   UNL     1     110.990 128.955 135.113  0.00  0.00    +0.000 A 
ATOM     10  C   UNL     1     110.306 127.625 135.935  0.00  0.00    +0.000 A 
ATOM     11  C   UNL     1     110.138 128.848 135.110  0.00  0.00    +0.000 A 
ATOM     12  C   UNL     1     109.793 128.178 135.523  0.00  0.00    +0.000 A 
ENDROOT
BRANCH   6  13
ATOM     13  C   UNL     1     112.948 126.788 136.723  0.00  0.00    +0.000 A 
ATOM     14  C   UNL     1     113.058 126.857 137.537  0.00  0.00    +0.000 A 
ATOM     15  C   UNL     1     113.323 126.184 136.305  0.00  0.00    +0.000 A 
ATOM     16  C   UNL     1     113.545 126.322 137.934  0.00  0.00    +0.000 A 
ATOM     17  C   UNL     1     113.921 125.718 137.516  0.00  0.00    +0.000 A 
ATOM     18  C   UNL     1     113.810 125.649 136.702  0.00  0.00    +0.000 A 
BRANCH  16  19
ATOM     19  O   UNL     1     113.656 126.391 138.748  0.00  0.00    +0.000 OA
ATOM     20  C   UNL     1     113.141 126.852 139.198  0.00  0.00    +0.000 C 
ENDBRANCH  16  19
BRANCH  17  21
ATOM     21  O   UNL     1     114.408 125.183 137.913  0.00  0.00    +0.000 OA
ATOM     22  C   UNL     1     114.786 124.581 137.495  0.00  0.00    +0.000 C 
ENDBRANCH  17  21
ENDBRANCH   6  13
BRANCH   7  23
ATOM     23  O   UNL     1     113.609 128.074 135.928  0.00  0.00    +0.000 OA
ATOM     24  C   UNL     1     113.926 128.822 135.783  0.00  0.00    +0.000 C 
ENDBRANCH   7  23
BRANCH  11  25
ATOM     25  O   UNL     1     109.653 129.383 134.711  0.00  0.00    +0.000 OA
ATOM     26  C   UNL     1     109.458 130.104 135.064  0.00  0.00    +0.000 C 
ENDBRANCH  11  25
BRANCH  12  27
ATOM     27  O   UNL     1     108.976 128.066 135.525  0.00  0.00    +0.000 OA
ATOM     28  C   UNL     1     108.656 127.357 135.800  0.00  0.00    +0.000 C 
ENDBRANCH  12  27
TORSDOF 6
ENDMDL
MODEL 9
REMARK VINA RESULT:      -6.9     11.473     14.102
REMARK  Name = 5320351
REMARK  6 active torsions:
REMARK  status: ('A' for Active; 'I' for Inactive)
REMARK    1  A    between atoms: O_2  and  C_12
REMARK    2  A    between atoms: O_3  and  C_17
REMARK    3  A    between atoms: O_4  and  C_18
REMARK    4  A    between atoms: O_7  and  C_21
REMARK    5  A    between atoms: O_8  and  C_22
REMARK    6  A    between atoms: C_11  and  C_14
REMARK                            x       y       z     vdW  Elec       q    Type
REMARK                         _______ _______ _______ _____ _____    ______ ____
ROOT
ATOM      1  O   UNL     1     104.769 125.697 145.962  0.00  0.00    +0.000 OA
ATOM      2  O   UNL     1     107.444 126.549 146.645  0.00  0.00    +0.000 OA
ATOM      3  O   UNL     1     106.842 125.404 147.282  0.00  0.00    +0.000 OA
ATOM      4  C   UNL     1     106.092 126.119 146.299  0.00  0.00    +0.000 A 
ATOM      5  C   UNL     1     105.401 126.217 145.859  0.00  0.00    +0.000 A 
ATOM      6  C   UNL     1     104.828 125.078 146.506  0.00  0.00    +0.000 A 
ATOM      7  C   UNL     1     105.519 124.981 146.946  0.00  0.00    +0.000 A 
ATOM      8  C   UNL     1     106.151 125.502 146.842  0.00  0.00    +0.000 A 
ATOM      9  C   UNL     1     106.757 126.655 146.200  0.00  0.00    +0.000 A 
ATOM     10  C   UNL     1     105.327 126.857 145.290  0.00  0.00    +0.000 A 
ATOM     11  C   UNL     1     106.701 127.300 145.636  0.00  0.00    +0.000 A 
ATOM     12  C   UNL     1     105.981 127.402 145.178  0.00  0.00    +0.000 A 
ENDROOT
BRANCH   6  13
ATOM     13  C   UNL     1     104.196 124.559 146.609  0.00  0.00    +0.000 A 
ATOM     14  C   UNL     1     104.109 123.910 146.107  0.00  0.00    +0.000 A 
ATOM     15  C   UNL     1     103.651 124.688 147.215  0.00  0.00    +0.000 A 
ATOM     16  C   UNL     1     103.476 123.390 146.211  0.00  0.00    +0.000 A 
ATOM     17  C   UNL     1     102.931 123.519 146.816  0.00  0.00    +0.000 A 
ATOM     18  C   UNL     1     103.019 124.168 147.318  0.00  0.00    +0.000 A 
BRANCH  16  19
ATOM     19  O   UNL     1     103.389 122.741 145.709  0.00  0.00    +0.000 OA
ATOM     20  C   UNL     1     103.755 122.739 144.969  0.00  0.00    +0.000 C 
ENDBRANCH  16  19
BRANCH  17  21
ATOM     21  O   UNL     1     102.299 123.000 146.920  0.00  0.00    +0.000 OA
ATOM     22  C   UNL     1     101.803 123.079 147.574  0.00  0.00    +0.000 C 
ENDBRANCH  17  21
ENDBRANCH   6  13
BRANCH   7  23
ATOM     23  O   UNL     1     105.578 124.363 147.489  0.00  0.00    +0.000 OA
ATOM     24  C   UNL     1     106.110 124.416 148.117  0.00  0.00    +0.000 C 
ENDBRANCH   7  23
BRANCH  11  25
ATOM     25  O   UNL     1     107.334 127.819 145.535  0.00  0.00    +0.000 OA
ATOM     26  C   UNL     1     107.432 128.456 146.050  0.00  0.00    +0.000 C 
ENDBRANCH  11  25
BRANCH  12  27
ATOM     27  O   UNL     1     105.918 128.019 144.634  0.00  0.00    +0.000 OA
ATOM     28  C   UNL     1     105.355 127.984 144.032  0.00  0.00    +0.000 C 
ENDBRANCH  12  27
TORSDOF 6
ENDMDL
MODEL 10
REMARK VINA RESULT:      -6.9      2.012      4.819
REMARK  Name = 5320351
REMARK  6 active torsions:
REMARK  status: ('A' for Active; 'I' for Inactive)
REMARK    1  A    between atoms: O_2  and  C_12
REMARK    2  A    between atoms: O_3  and  C_17
REMARK    3  A    between atoms: O_4  and  C_18
REMARK    4  A    between atoms: O_7  and  C_21
REMARK    5  A    between atoms: O_8  and  C_22
REMARK    6  A    between atoms: C_11  and  C_14
REMARK                            x       y       z     vdW  Elec       q    Type
REMARK                         _______ _______ _______ _____ _____    ______ ____
ROOT
ATOM      1  O   UNL     1     111.970 127.058 136.775  0.00  0.00    +0.000 OA
ATOM      2  O   UNL     1     110.702 128.928 134.975  0.00  0.00    +0.000 OA
ATOM      3  O   UNL     1     110.669 127.509 134.719  0.00  0.00    +0.000 OA
ATOM      4  C   UNL     1     111.343 127.984 135.885  0.00  0.00    +0.000 A 
ATOM      5  C   UNL     1     111.777 127.833 136.571  0.00  0.00    +0.000 A 
ATOM      6  C   UNL     1     111.730 126.432 136.293  0.00  0.00    +0.000 A 
ATOM      7  C   UNL     1     111.296 126.583 135.608  0.00  0.00    +0.000 A 
ATOM      8  C   UNL     1     111.103 127.359 135.404  0.00  0.00    +0.000 A 
ATOM      9  C   UNL     1     111.136 128.788 135.662  0.00  0.00    +0.000 A 
ATOM     10  C   UNL     1     112.033 128.476 137.081  0.00  0.00    +0.000 A 
ATOM     11  C   UNL     1     111.383 129.443 136.159  0.00  0.00    +0.000 A 
ATOM     12  C   UNL     1     111.835 129.286 136.873  0.00  0.00    +0.000 A 
ENDROOT
BRANCH   6  13
ATOM     13  C   UNL     1     111.923 125.657 136.498  0.00  0.00    +0.000 A 
ATOM     14  C   UNL     1     112.672 125.358 136.321  0.00  0.00    +0.000 A 
ATOM     15  C   UNL     1     111.367 125.180 136.879  0.00  0.00    +0.000 A 
ATOM     16  C   UNL     1     112.864 124.582 136.526  0.00  0.00    +0.000 A 
ATOM     17  C   UNL     1     112.309 124.106 136.907  0.00  0.00    +0.000 A 
ATOM     18  C   UNL     1     111.561 124.405 137.084  0.00  0.00    +0.000 A 
BRANCH  16  19
ATOM     19  O   UNL     1     113.612 124.283 136.350  0.00  0.00    +0.000 OA
ATOM     20  C   UNL     1     114.263 124.789 136.321  0.00  0.00    +0.000 C 
ENDBRANCH  16  19
BRANCH  17  21
ATOM     21  O   UNL     1     112.502 123.330 137.113  0.00  0.00    +0.000 OA
ATOM     22  C   UNL     1     111.917 122.819 137.388  0.00  0.00    +0.000 C 
ENDBRANCH  17  21
ENDBRANCH   6  13
BRANCH   7  23
ATOM     23  O   UNL     1     111.056 125.958 135.127  0.00  0.00    +0.000 OA
ATOM     24  C   UNL     1     110.417 126.054 134.614  0.00  0.00    +0.000 C 
ENDBRANCH   7  23
BRANCH  11  25
ATOM     25  O   UNL     1     111.188 130.217 135.953  0.00  0.00    +0.000 OA
ATOM     26  C   UNL     1     110.439 130.515 136.128  0.00  0.00    +0.000 C 
ENDBRANCH  11  25
BRANCH  12  27
ATOM     27  O   UNL     1     112.077 129.909 137.357  0.00  0.00    +0.000 OA
ATOM     28  C   UNL     1     112.642 129.781 137.944  0.00  0.00    +0.000 C 
ENDBRANCH  12  27
TORSDOF 6
ENDMDL
