MODEL 1
REMARK VINA RESULT:      -7.8      0.000      0.000
REMARK  Name = 42608055
REMARK  5 active torsions:
REMARK  status: ('A' for Active; 'I' for Inactive)
REMARK    1  A    between atoms: O_2  and  C_14
REMARK    2  A    between atoms: O_3  and  C_15
REMARK    3  A    between atoms: O_6  and  C_21
REMARK    4  A    between atoms: O_7  and  C_20
REMARK    5  A    between atoms: C_8  and  C_10
REMARK                            x       y       z     vdW  Elec       q    Type
REMARK                         _______ _______ _______ _____ _____    ______ ____
ROOT
ATOM      1  O   UNL     1     105.081 124.363 147.452  0.00  0.00    +0.000 OA
ATOM      2  O   UNL     1     105.918 126.072 145.869  0.00  0.00    +0.000 OA
ATOM      3  O   UNL     1     107.197 126.103 146.534  0.00  0.00    +0.000 OA
ATOM      4  C   UNL     1     104.591 124.642 146.850  0.00  0.00    +0.000 C 
ATOM      5  C   UNL     1     104.870 125.212 146.322  0.00  0.00    +0.000 C 
ATOM      6  C   UNL     1     105.639 125.502 146.397  0.00  0.00    +0.000 C 
ATOM      7  C   UNL     1     106.128 125.223 146.999  0.00  0.00    +0.000 A 
ATOM      8  C   UNL     1     105.849 124.653 147.527  0.00  0.00    +0.000 A 
ATOM      9  C   UNL     1     106.927 125.533 147.066  0.00  0.00    +0.000 A 
ATOM     10  C   UNL     1     106.350 124.354 148.159  0.00  0.00    +0.000 A 
ATOM     11  C   UNL     1     107.151 124.653 148.242  0.00  0.00    +0.000 A 
ATOM     12  C   UNL     1     107.442 125.246 147.692  0.00  0.00    +0.000 A 
ENDROOT
BRANCH   4  13
ATOM     13  C   UNL     1     103.823 124.352 146.775  0.00  0.00    +0.000 A 
ATOM     14  C   UNL     1     103.205 124.706 147.192  0.00  0.00    +0.000 A 
ATOM     15  C   UNL     1     103.671 123.708 146.282  0.00  0.00    +0.000 A 
ATOM     16  C   UNL     1     102.437 124.416 147.117  0.00  0.00    +0.000 A 
ATOM     17  C   UNL     1     102.902 123.417 146.207  0.00  0.00    +0.000 A 
ATOM     18  C   UNL     1     102.285 123.772 146.625  0.00  0.00    +0.000 A 
BRANCH  14  19
ATOM     19  O   UNL     1     103.356 125.350 147.685  0.00  0.00    +0.000 OA
ATOM     20  C   UNL     1     102.749 125.673 148.141  0.00  0.00    +0.000 C 
ENDBRANCH  14  19
BRANCH  15  21
ATOM     21  O   UNL     1     104.288 123.353 145.865  0.00  0.00    +0.000 OA
ATOM     22  C   UNL     1     104.130 122.743 145.334  0.00  0.00    +0.000 C 
ENDBRANCH  15  21
BRANCH  18  23
ATOM     23  O   UNL     1     101.516 123.481 146.550  0.00  0.00    +0.000 OA
ATOM     24  C   UNL     1     101.051 123.708 145.907  0.00  0.00    +0.000 C 
ENDBRANCH  18  23
ENDBRANCH   4  13
BRANCH  11  25
ATOM     25  O   UNL     1     107.638 124.372 148.845  0.00  0.00    +0.000 OA
ATOM     26  C   UNL     1     107.556 124.664 149.612  0.00  0.00    +0.000 C 
ENDBRANCH  11  25
TORSDOF 5
ENDMDL
MODEL 2
REMARK VINA RESULT:      -7.2     12.539     13.766
REMARK  Name = 42608055
REMARK  5 active torsions:
REMARK  status: ('A' for Active; 'I' for Inactive)
REMARK    1  A    between atoms: O_2  and  C_14
REMARK    2  A    between atoms: O_3  and  C_15
REMARK    3  A    between atoms: O_6  and  C_21
REMARK    4  A    between atoms: O_7  and  C_20
REMARK    5  A    between atoms: C_8  and  C_10
REMARK                            x       y       z     vdW  Elec       q    Type
REMARK                         _______ _______ _______ _____ _____    ______ ____
ROOT
ATOM      1  O   UNL     1     113.181 127.185 136.173  0.00  0.00    +0.000 OA
ATOM      2  O   UNL     1     112.817 128.312 138.346  0.00  0.00    +0.000 OA
ATOM      3  O   UNL     1     113.286 129.565 137.808  0.00  0.00    +0.000 OA
ATOM      4  C   UNL     1     112.886 126.758 136.814  0.00  0.00    +0.000 C 
ATOM      5  C   UNL     1     112.764 127.133 137.538  0.00  0.00    +0.000 C 
ATOM      6  C   UNL     1     112.938 127.936 137.622  0.00  0.00    +0.000 C 
ATOM      7  C   UNL     1     113.233 128.362 136.980  0.00  0.00    +0.000 A 
ATOM      8  C   UNL     1     113.355 127.987 136.255  0.00  0.00    +0.000 A 
ATOM      9  C   UNL     1     113.410 129.198 137.079  0.00  0.00    +0.000 A 
ATOM     10  C   UNL     1     113.662 128.420 135.580  0.00  0.00    +0.000 A 
ATOM     11  C   UNL     1     113.844 129.256 135.660  0.00  0.00    +0.000 A 
ATOM     12  C   UNL     1     113.718 129.647 136.415  0.00  0.00    +0.000 A 
ENDROOT
BRANCH   4  13
ATOM     13  C   UNL     1     112.712 125.956 136.731  0.00  0.00    +0.000 A 
ATOM     14  C   UNL     1     111.966 125.720 136.469  0.00  0.00    +0.000 A 
ATOM     15  C   UNL     1     113.285 125.390 136.911  0.00  0.00    +0.000 A 
ATOM     16  C   UNL     1     111.793 124.918 136.387  0.00  0.00    +0.000 A 
ATOM     17  C   UNL     1     113.111 124.587 136.828  0.00  0.00    +0.000 A 
ATOM     18  C   UNL     1     112.365 124.351 136.566  0.00  0.00    +0.000 A 
BRANCH  14  19
ATOM     19  O   UNL     1     111.394 126.286 136.290  0.00  0.00    +0.000 OA
ATOM     20  C   UNL     1     110.663 126.053 135.988  0.00  0.00    +0.000 C 
ENDBRANCH  14  19
BRANCH  15  21
ATOM     21  O   UNL     1     114.030 125.625 137.173  0.00  0.00    +0.000 OA
ATOM     22  C   UNL     1     114.612 125.060 137.323  0.00  0.00    +0.000 C 
ENDBRANCH  15  21
BRANCH  18  23
ATOM     23  O   UNL     1     112.191 123.548 136.484  0.00  0.00    +0.000 OA
ATOM     24  C   UNL     1     111.966 123.106 137.142  0.00  0.00    +0.000 C 
ENDBRANCH  18  23
ENDBRANCH   4  13
BRANCH  11  25
ATOM     25  O   UNL     1     114.139 129.680 135.017  0.00  0.00    +0.000 OA
ATOM     26  C   UNL     1     114.946 129.659 134.844  0.00  0.00    +0.000 C 
ENDBRANCH  11  25
TORSDOF 5
ENDMDL
MODEL 3
REMARK VINA RESULT:      -7.2      1.160      2.595
REMARK  Name = 42608055
REMARK  5 active torsions:
REMARK  status: ('A' for Active; 'I' for Inactive)
REMARK    1  A    between atoms: O_2  and  C_14
REMARK    2  A    between atoms: O_3  and  C_15
REMARK    3  A    between atoms: O_6  and  C_21
REMARK    4  A    between atoms: O_7  and  C_20
REMARK    5  A    between atoms: C_8  and  C_10
REMARK                            x       y       z     vdW  Elec       q    Type
REMARK                         _______ _______ _______ _____ _____    ______ ____
ROOT
ATOM      1  O   UNL     1     104.238 125.188 146.062  0.00  0.00    +0.000 OA
ATOM      2  O   UNL     1     105.954 124.224 147.562  0.00  0.00    +0.000 OA
ATOM      3  O   UNL     1     106.972 125.072 146.991  0.00  0.00    +0.000 OA
ATOM      4  C   UNL     1     104.029 124.602 146.604  0.00  0.00    +0.000 C 
ATOM      5  C   UNL     1     104.601 124.281 147.104  0.00  0.00    +0.000 C 
ATOM      6  C   UNL     1     105.382 124.546 147.062  0.00  0.00    +0.000 C 
ATOM      7  C   UNL     1     105.590 125.132 146.520  0.00  0.00    +0.000 A 
ATOM      8  C   UNL     1     105.018 125.453 146.020  0.00  0.00    +0.000 A 
ATOM      9  C   UNL     1     106.407 125.399 146.487  0.00  0.00    +0.000 A 
ATOM     10  C   UNL     1     105.222 126.065 145.452  0.00  0.00    +0.000 A 
ATOM     11  C   UNL     1     106.033 126.344 145.403  0.00  0.00    +0.000 A 
ATOM     12  C   UNL     1     106.629 126.009 145.925  0.00  0.00    +0.000 A 
ENDROOT
BRANCH   4  13
ATOM     13  C   UNL     1     103.250 124.337 146.646  0.00  0.00    +0.000 A 
ATOM     14  C   UNL     1     102.998 123.716 146.164  0.00  0.00    +0.000 A 
ATOM     15  C   UNL     1     102.721 124.693 147.169  0.00  0.00    +0.000 A 
ATOM     16  C   UNL     1     102.218 123.452 146.206  0.00  0.00    +0.000 A 
ATOM     17  C   UNL     1     101.940 124.428 147.211  0.00  0.00    +0.000 A 
ATOM     18  C   UNL     1     101.689 123.807 146.730  0.00  0.00    +0.000 A 
BRANCH  14  19
ATOM     19  O   UNL     1     103.527 123.360 145.640  0.00  0.00    +0.000 OA
ATOM     20  C   UNL     1     103.276 122.740 145.158  0.00  0.00    +0.000 C 
ENDBRANCH  14  19
BRANCH  15  21
ATOM     21  O   UNL     1     102.972 125.314 147.651  0.00  0.00    +0.000 OA
ATOM     22  C   UNL     1     102.438 125.683 148.159  0.00  0.00    +0.000 C 
ENDBRANCH  15  21
BRANCH  18  23
ATOM     23  O   UNL     1     100.908 123.543 146.772  0.00  0.00    +0.000 OA
ATOM     24  C   UNL     1     100.712 122.920 147.276  0.00  0.00    +0.000 C 
ENDBRANCH  18  23
ENDBRANCH   4  13
BRANCH  11  25
ATOM     25  O   UNL     1     106.239 126.931 144.861  0.00  0.00    +0.000 OA
ATOM     26  C   UNL     1     106.420 126.727 144.082  0.00  0.00    +0.000 C 
ENDBRANCH  11  25
TORSDOF 5
ENDMDL
MODEL 4
REMARK VINA RESULT:      -7.0     12.318     13.419
REMARK  Name = 42608055
REMARK  5 active torsions:
REMARK  status: ('A' for Active; 'I' for Inactive)
REMARK    1  A    between atoms: O_2  and  C_14
REMARK    2  A    between atoms: O_3  and  C_15
REMARK    3  A    between atoms: O_6  and  C_21
REMARK    4  A    between atoms: O_7  and  C_20
REMARK    5  A    between atoms: C_8  and  C_10
REMARK                            x       y       z     vdW  Elec       q    Type
REMARK                         _______ _______ _______ _____ _____    ______ ____
ROOT
ATOM      1  O   UNL     1     112.746 127.305 137.422  0.00  0.00    +0.000 OA
ATOM      2  O   UNL     1     114.025 128.443 135.634  0.00  0.00    +0.000 OA
ATOM      3  O   UNL     1     113.956 129.697 136.343  0.00  0.00    +0.000 OA
ATOM      4  C   UNL     1     113.001 126.879 136.762  0.00  0.00    +0.000 C 
ATOM      5  C   UNL     1     113.427 127.258 136.166  0.00  0.00    +0.000 C 
ATOM      6  C   UNL     1     113.599 128.063 136.230  0.00  0.00    +0.000 C 
ATOM      7  C   UNL     1     113.344 128.488 136.890  0.00  0.00    +0.000 A 
ATOM      8  C   UNL     1     112.917 128.108 137.485  0.00  0.00    +0.000 A 
ATOM      9  C   UNL     1     113.529 129.326 136.944  0.00  0.00    +0.000 A 
ATOM     10  C   UNL     1     112.646 128.541 138.177  0.00  0.00    +0.000 A 
ATOM     11  C   UNL     1     112.822 129.378 138.249  0.00  0.00    +0.000 A 
ATOM     12  C   UNL     1     113.267 129.774 137.628  0.00  0.00    +0.000 A 
ENDROOT
BRANCH   4  13
ATOM     13  C   UNL     1     112.829 126.075 136.698  0.00  0.00    +0.000 A 
ATOM     14  C   UNL     1     113.353 125.515 137.003  0.00  0.00    +0.000 A 
ATOM     15  C   UNL     1     112.134 125.830 136.329  0.00  0.00    +0.000 A 
ATOM     16  C   UNL     1     113.182 124.711 136.939  0.00  0.00    +0.000 A 
ATOM     17  C   UNL     1     111.962 125.025 136.265  0.00  0.00    +0.000 A 
ATOM     18  C   UNL     1     112.486 124.466 136.570  0.00  0.00    +0.000 A 
BRANCH  14  19
ATOM     19  O   UNL     1     114.049 125.760 137.373  0.00  0.00    +0.000 OA
ATOM     20  C   UNL     1     114.591 125.201 137.645  0.00  0.00    +0.000 C 
ENDBRANCH  14  19
BRANCH  15  21
ATOM     21  O   UNL     1     111.609 126.388 136.023  0.00  0.00    +0.000 OA
ATOM     22  C   UNL     1     110.930 126.143 135.626  0.00  0.00    +0.000 C 
ENDBRANCH  15  21
BRANCH  18  23
ATOM     23  O   UNL     1     112.314 123.661 136.506  0.00  0.00    +0.000 OA
ATOM     24  C   UNL     1     111.918 123.275 137.117  0.00  0.00    +0.000 C 
ENDBRANCH  18  23
ENDBRANCH   4  13
BRANCH  11  25
ATOM     25  O   UNL     1     112.566 129.801 138.910  0.00  0.00    +0.000 OA
ATOM     26  C   UNL     1     111.834 130.182 138.898  0.00  0.00    +0.000 C 
ENDBRANCH  11  25
TORSDOF 5
ENDMDL
MODEL 5
REMARK VINA RESULT:      -7.0     12.165     13.748
REMARK  Name = 42608055
REMARK  5 active torsions:
REMARK  status: ('A' for Active; 'I' for Inactive)
REMARK    1  A    between atoms: O_2  and  C_14
REMARK    2  A    between atoms: O_3  and  C_15
REMARK    3  A    between atoms: O_6  and  C_21
REMARK    4  A    between atoms: O_7  and  C_20
REMARK    5  A    between atoms: C_8  and  C_10
REMARK                            x       y       z     vdW  Elec       q    Type
REMARK                         _______ _______ _______ _____ _____    ______ ____
ROOT
ATOM      1  O   UNL     1     112.080 127.105 136.660  0.00  0.00    +0.000 OA
ATOM      2  O   UNL     1     110.701 127.305 134.614  0.00  0.00    +0.000 OA
ATOM      3  O   UNL     1     110.413 125.892 134.635  0.00  0.00    +0.000 OA
ATOM      4  C   UNL     1     111.985 127.840 136.297  0.00  0.00    +0.000 C 
ATOM      5  C   UNL     1     111.526 127.907 135.615  0.00  0.00    +0.000 C 
ATOM      6  C   UNL     1     111.161 127.239 135.296  0.00  0.00    +0.000 C 
ATOM      7  C   UNL     1     111.256 126.504 135.660  0.00  0.00    +0.000 A 
ATOM      8  C   UNL     1     111.716 126.438 136.342  0.00  0.00    +0.000 A 
ATOM      9  C   UNL     1     110.871 125.816 135.317  0.00  0.00    +0.000 A 
ATOM     10  C   UNL     1     111.822 125.678 136.729  0.00  0.00    +0.000 A 
ATOM     11  C   UNL     1     111.445 124.979 136.402  0.00  0.00    +0.000 A 
ATOM     12  C   UNL     1     110.966 125.048 135.691  0.00  0.00    +0.000 A 
ENDROOT
BRANCH   4  13
ATOM     13  C   UNL     1     112.349 128.508 136.615  0.00  0.00    +0.000 A 
ATOM     14  C   UNL     1     111.953 128.969 137.173  0.00  0.00    +0.000 A 
ATOM     15  C   UNL     1     113.111 128.715 136.376  0.00  0.00    +0.000 A 
ATOM     16  C   UNL     1     112.317 129.636 137.491  0.00  0.00    +0.000 A 
ATOM     17  C   UNL     1     113.476 129.384 136.695  0.00  0.00    +0.000 A 
ATOM     18  C   UNL     1     113.079 129.844 137.252  0.00  0.00    +0.000 A 
BRANCH  14  19
ATOM     19  O   UNL     1     111.191 128.761 137.412  0.00  0.00    +0.000 OA
ATOM     20  C   UNL     1     110.786 129.232 137.955  0.00  0.00    +0.000 C 
ENDBRANCH  14  19
BRANCH  15  21
ATOM     21  O   UNL     1     113.509 128.255 135.819  0.00  0.00    +0.000 OA
ATOM     22  C   UNL     1     114.258 128.479 135.558  0.00  0.00    +0.000 C 
ENDBRANCH  15  21
BRANCH  18  23
ATOM     23  O   UNL     1     113.444 130.512 137.571  0.00  0.00    +0.000 OA
ATOM     24  C   UNL     1     113.874 130.452 138.272  0.00  0.00    +0.000 C 
ENDBRANCH  18  23
ENDBRANCH   4  13
BRANCH  11  25
ATOM     25  O   UNL     1     111.542 124.245 136.767  0.00  0.00    +0.000 OA
ATOM     26  C   UNL     1     112.264 123.849 136.713  0.00  0.00    +0.000 C 
ENDBRANCH  11  25
TORSDOF 5
ENDMDL
MODEL 6
REMARK VINA RESULT:      -7.0     10.073     11.499
REMARK  Name = 42608055
REMARK  5 active torsions:
REMARK  status: ('A' for Active; 'I' for Inactive)
REMARK    1  A    between atoms: O_2  and  C_14
REMARK    2  A    between atoms: O_3  and  C_15
REMARK    3  A    between atoms: O_6  and  C_21
REMARK    4  A    between atoms: O_7  and  C_20
REMARK    5  A    between atoms: C_8  and  C_10
REMARK                            x       y       z     vdW  Elec       q    Type
REMARK                         _______ _______ _______ _____ _____    ______ ____
ROOT
ATOM      1  O   UNL     1     112.182 126.378 138.407  0.00  0.00    +0.000 OA
ATOM      2  O   UNL     1     110.459 125.934 140.128  0.00  0.00    +0.000 OA
ATOM      3  O   UNL     1     111.370 126.313 141.180  0.00  0.00    +0.000 OA
ATOM      4  C   UNL     1     111.433 126.114 138.182  0.00  0.00    +0.000 C 
ATOM      5  C   UNL     1     110.859 125.966 138.755  0.00  0.00    +0.000 C 
ATOM      6  C   UNL     1     111.033 126.082 139.554  0.00  0.00    +0.000 C 
ATOM      7  C   UNL     1     111.782 126.346 139.778  0.00  0.00    +0.000 A 
ATOM      8  C   UNL     1     112.356 126.494 139.204  0.00  0.00    +0.000 A 
ATOM      9  C   UNL     1     111.951 126.464 140.613  0.00  0.00    +0.000 A 
ATOM     10  C   UNL     1     113.140 126.770 139.426  0.00  0.00    +0.000 A 
ATOM     11  C   UNL     1     113.327 126.893 140.255  0.00  0.00    +0.000 A 
ATOM     12  C   UNL     1     112.728 126.739 140.853  0.00  0.00    +0.000 A 
ENDROOT
BRANCH   4  13
ATOM     13  C   UNL     1     111.259 125.998 137.385  0.00  0.00    +0.000 A 
ATOM     14  C   UNL     1     110.974 126.623 136.928  0.00  0.00    +0.000 A 
ATOM     15  C   UNL     1     111.369 125.255 137.042  0.00  0.00    +0.000 A 
ATOM     16  C   UNL     1     110.799 126.507 136.131  0.00  0.00    +0.000 A 
ATOM     17  C   UNL     1     111.195 125.139 136.244  0.00  0.00    +0.000 A 
ATOM     18  C   UNL     1     110.910 125.765 135.789  0.00  0.00    +0.000 A 
BRANCH  14  19
ATOM     19  O   UNL     1     110.863 127.366 137.271  0.00  0.00    +0.000 OA
ATOM     20  C   UNL     1     110.629 128.005 136.805  0.00  0.00    +0.000 C 
ENDBRANCH  14  19
BRANCH  15  21
ATOM     21  O   UNL     1     111.654 124.629 137.497  0.00  0.00    +0.000 OA
ATOM     22  C   UNL     1     111.812 123.901 137.145  0.00  0.00    +0.000 C 
ENDBRANCH  15  21
BRANCH  18  23
ATOM     23  O   UNL     1     110.735 125.648 134.990  0.00  0.00    +0.000 OA
ATOM     24  C   UNL     1     109.950 125.624 134.740  0.00  0.00    +0.000 C 
ENDBRANCH  18  23
ENDBRANCH   4  13
BRANCH  11  25
ATOM     25  O   UNL     1     114.076 127.157 140.477  0.00  0.00    +0.000 OA
ATOM     26  C   UNL     1     114.195 127.952 140.662  0.00  0.00    +0.000 C 
ENDBRANCH  11  25
TORSDOF 5
ENDMDL
MODEL 7
REMARK VINA RESULT:      -7.0      8.256      9.658
REMARK  Name = 42608055
REMARK  5 active torsions:
REMARK  status: ('A' for Active; 'I' for Inactive)
REMARK    1  A    between atoms: O_2  and  C_14
REMARK    2  A    between atoms: O_3  and  C_15
REMARK    3  A    between atoms: O_6  and  C_21
REMARK    4  A    between atoms: O_7  and  C_20
REMARK    5  A    between atoms: C_8  and  C_10
REMARK                            x       y       z     vdW  Elec       q    Type
REMARK                         _______ _______ _______ _____ _____    ______ ____
ROOT
ATOM      1  O   UNL     1     103.050 131.861 141.485  0.00  0.00    +0.000 OA
ATOM      2  O   UNL     1     100.710 132.116 142.250  0.00  0.00    +0.000 OA
ATOM      3  O   UNL     1     100.729 133.523 141.933  0.00  0.00    +0.000 OA
ATOM      4  C   UNL     1     102.637 131.208 141.774  0.00  0.00    +0.000 C 
ATOM      5  C   UNL     1     101.857 131.293 142.029  0.00  0.00    +0.000 C 
ATOM      6  C   UNL     1     101.490 132.031 141.995  0.00  0.00    +0.000 C 
ATOM      7  C   UNL     1     101.903 132.684 141.706  0.00  0.00    +0.000 A 
ATOM      8  C   UNL     1     102.683 132.599 141.450  0.00  0.00    +0.000 A 
ATOM      9  C   UNL     1     101.509 133.448 141.675  0.00  0.00    +0.000 A 
ATOM     10  C   UNL     1     103.124 133.272 141.147  0.00  0.00    +0.000 A 
ATOM     11  C   UNL     1     102.747 134.043 141.109  0.00  0.00    +0.000 A 
ATOM     12  C   UNL     1     101.934 134.131 141.375  0.00  0.00    +0.000 A 
ENDROOT
BRANCH   4  13
ATOM     13  C   UNL     1     103.004 130.470 141.808  0.00  0.00    +0.000 A 
ATOM     14  C   UNL     1     102.958 129.955 141.165  0.00  0.00    +0.000 A 
ATOM     15  C   UNL     1     103.417 130.246 142.486  0.00  0.00    +0.000 A 
ATOM     16  C   UNL     1     103.324 129.218 141.199  0.00  0.00    +0.000 A 
ATOM     17  C   UNL     1     103.785 129.507 142.521  0.00  0.00    +0.000 A 
ATOM     18  C   UNL     1     103.738 128.994 141.877  0.00  0.00    +0.000 A 
BRANCH  14  19
ATOM     19  O   UNL     1     102.544 130.179 140.487  0.00  0.00    +0.000 OA
ATOM     20  C   UNL     1     102.455 129.647 139.863  0.00  0.00    +0.000 C 
ENDBRANCH  14  19
BRANCH  15  21
ATOM     21  O   UNL     1     103.464 130.760 143.130  0.00  0.00    +0.000 OA
ATOM     22  C   UNL     1     103.849 130.523 143.819  0.00  0.00    +0.000 C 
ENDBRANCH  15  21
BRANCH  18  23
ATOM     23  O   UNL     1     104.105 128.255 141.911  0.00  0.00    +0.000 OA
ATOM     24  C   UNL     1     104.905 128.184 141.725  0.00  0.00    +0.000 C 
ENDBRANCH  18  23
ENDBRANCH   4  13
BRANCH  11  25
ATOM     25  O   UNL     1     103.162 134.694 140.819  0.00  0.00    +0.000 OA
ATOM     26  C   UNL     1     103.330 134.751 140.013  0.00  0.00    +0.000 C 
ENDBRANCH  11  25
TORSDOF 5
ENDMDL
MODEL 8
REMARK VINA RESULT:      -6.9     12.211     13.649
REMARK  Name = 42608055
REMARK  5 active torsions:
REMARK  status: ('A' for Active; 'I' for Inactive)
REMARK    1  A    between atoms: O_2  and  C_14
REMARK    2  A    between atoms: O_3  and  C_15
REMARK    3  A    between atoms: O_6  and  C_21
REMARK    4  A    between atoms: O_7  and  C_20
REMARK    5  A    between atoms: C_8  and  C_10
REMARK                            x       y       z     vdW  Elec       q    Type
REMARK                         _______ _______ _______ _____ _____    ______ ____
ROOT
ATOM      1  O   UNL     1     112.416 126.641 136.896  0.00  0.00    +0.000 OA
ATOM      2  O   UNL     1     114.762 126.131 136.293  0.00  0.00    +0.000 OA
ATOM      3  O   UNL     1     114.469 124.720 136.228  0.00  0.00    +0.000 OA
ATOM      4  C   UNL     1     112.966 127.253 136.824  0.00  0.00    +0.000 C 
ATOM      5  C   UNL     1     113.748 127.083 136.623  0.00  0.00    +0.000 C 
ATOM      6  C   UNL     1     113.980 126.301 136.494  0.00  0.00    +0.000 C 
ATOM      7  C   UNL     1     113.430 125.691 136.566  0.00  0.00    +0.000 A 
ATOM      8  C   UNL     1     112.648 125.861 136.767  0.00  0.00    +0.000 A 
ATOM      9  C   UNL     1     113.685 124.881 136.429  0.00  0.00    +0.000 A 
ATOM     10  C   UNL     1     112.066 125.233 136.844  0.00  0.00    +0.000 A 
ATOM     11  C   UNL     1     112.302 124.418 136.711  0.00  0.00    +0.000 A 
ATOM     12  C   UNL     1     113.117 124.240 136.502  0.00  0.00    +0.000 A 
ENDROOT
BRANCH   4  13
ATOM     13  C   UNL     1     112.734 128.033 136.953  0.00  0.00    +0.000 A 
ATOM     14  C   UNL     1     112.789 128.362 137.708  0.00  0.00    +0.000 A 
ATOM     15  C   UNL     1     112.446 128.487 136.327  0.00  0.00    +0.000 A 
ATOM     16  C   UNL     1     112.557 129.142 137.837  0.00  0.00    +0.000 A 
ATOM     17  C   UNL     1     112.214 129.269 136.456  0.00  0.00    +0.000 A 
ATOM     18  C   UNL     1     112.270 129.596 137.211  0.00  0.00    +0.000 A 
BRANCH  14  19
ATOM     19  O   UNL     1     113.077 127.908 138.334  0.00  0.00    +0.000 OA
ATOM     20  C   UNL     1     113.086 128.218 139.099  0.00  0.00    +0.000 C 
ENDBRANCH  14  19
BRANCH  15  21
ATOM     21  O   UNL     1     112.391 128.160 135.572  0.00  0.00    +0.000 OA
ATOM     22  C   UNL     1     112.042 128.589 134.961  0.00  0.00    +0.000 C 
ENDBRANCH  15  21
BRANCH  18  23
ATOM     23  O   UNL     1     112.038 130.377 137.340  0.00  0.00    +0.000 OA
ATOM     24  C   UNL     1     112.583 130.989 137.249  0.00  0.00    +0.000 C 
ENDBRANCH  18  23
ENDBRANCH   4  13
BRANCH  11  25
ATOM     25  O   UNL     1     111.750 123.809 136.784  0.00  0.00    +0.000 OA
ATOM     26  C   UNL     1     111.910 123.163 137.271  0.00  0.00    +0.000 C 
ENDBRANCH  11  25
TORSDOF 5
ENDMDL
MODEL 9
REMARK VINA RESULT:      -6.9     11.882     13.786
REMARK  Name = 42608055
REMARK  5 active torsions:
REMARK  status: ('A' for Active; 'I' for Inactive)
REMARK    1  A    between atoms: O_2  and  C_14
REMARK    2  A    between atoms: O_3  and  C_15
REMARK    3  A    between atoms: O_6  and  C_21
REMARK    4  A    between atoms: O_7  and  C_20
REMARK    5  A    between atoms: C_8  and  C_10
REMARK                            x       y       z     vdW  Elec       q    Type
REMARK                         _______ _______ _______ _____ _____    ______ ____
ROOT
ATOM      1  O   UNL     1     112.054 127.232 136.536  0.00  0.00    +0.000 OA
ATOM      2  O   UNL     1     113.575 125.363 137.103  0.00  0.00    +0.000 OA
ATOM      3  O   UNL     1     112.669 124.409 136.514  0.00  0.00    +0.000 OA
ATOM      4  C   UNL     1     112.765 127.383 136.926  0.00  0.00    +0.000 C 
ATOM      5  C   UNL     1     113.272 126.761 137.115  0.00  0.00    +0.000 C 
ATOM      6  C   UNL     1     113.068 125.986 136.914  0.00  0.00    +0.000 C 
ATOM      7  C   UNL     1     112.357 125.836 136.524  0.00  0.00    +0.000 A 
ATOM      8  C   UNL     1     111.850 126.459 136.336  0.00  0.00    +0.000 A 
ATOM      9  C   UNL     1     112.155 125.025 136.321  0.00  0.00    +0.000 A 
ATOM     10  C   UNL     1     111.106 126.314 135.930  0.00  0.00    +0.000 A 
ATOM     11  C   UNL     1     110.887 125.511 135.718  0.00  0.00    +0.000 A 
ATOM     12  C   UNL     1     111.416 124.862 135.915  0.00  0.00    +0.000 A 
ENDROOT
BRANCH   4  13
ATOM     13  C   UNL     1     112.970 128.156 137.127  0.00  0.00    +0.000 A 
ATOM     14  C   UNL     1     112.726 128.474 137.848  0.00  0.00    +0.000 A 
ATOM     15  C   UNL     1     113.419 128.613 136.606  0.00  0.00    +0.000 A 
ATOM     16  C   UNL     1     112.930 129.247 138.048  0.00  0.00    +0.000 A 
ATOM     17  C   UNL     1     113.623 129.387 136.807  0.00  0.00    +0.000 A 
ATOM     18  C   UNL     1     113.379 129.704 137.528  0.00  0.00    +0.000 A 
BRANCH  14  19
ATOM     19  O   UNL     1     112.277 128.018 138.368  0.00  0.00    +0.000 OA
ATOM     20  C   UNL     1     111.990 128.351 139.067  0.00  0.00    +0.000 C 
ENDBRANCH  14  19
BRANCH  15  21
ATOM     21  O   UNL     1     113.663 128.296 135.885  0.00  0.00    +0.000 OA
ATOM     22  C   UNL     1     114.106 128.753 135.362  0.00  0.00    +0.000 C 
ENDBRANCH  15  21
BRANCH  18  23
ATOM     23  O   UNL     1     113.584 130.478 137.729  0.00  0.00    +0.000 OA
ATOM     24  C   UNL     1     114.207 130.617 138.251  0.00  0.00    +0.000 C 
ENDBRANCH  18  23
ENDBRANCH   4  13
BRANCH  11  25
ATOM     25  O   UNL     1     110.175 125.363 135.329  0.00  0.00    +0.000 OA
ATOM     26  C   UNL     1     110.012 125.737 134.612  0.00  0.00    +0.000 C 
ENDBRANCH  11  25
TORSDOF 5
ENDMDL
