MODEL 1
REMARK VINA RESULT:      -9.5      0.000      0.000
REMARK  Name = 42607964
REMARK  4 active torsions:
REMARK  status: ('A' for Active; 'I' for Inactive)
REMARK    1  A    between atoms: O_2  and  C_16
REMARK    2  A    between atoms: O_2  and  C_18
REMARK    3  A    between atoms: C_15  and  C_17
REMARK    4  A    between atoms: C_19  and  C_27
REMARK                            x       y       z     vdW  Elec       q    Type
REMARK                         _______ _______ _______ _____ _____    ______ ____
ROOT
ATOM      1  O   UNL     1     105.423 126.372 144.261  0.00  0.00    +0.000 OA
ATOM      2  O   UNL     1     107.306 126.425 146.459  0.00  0.00    +0.000 OA
ATOM      3  O   UNL     1     107.353 127.477 145.472  0.00  0.00    +0.000 OA
ATOM      4  C   UNL     1     105.721 125.005 145.973  0.00  0.00    +0.000 A 
ATOM      5  C   UNL     1     105.759 127.096 143.945  0.00  0.00    +0.000 C 
ATOM      6  C   UNL     1     106.375 126.396 145.375  0.00  0.00    +0.000 A 
ATOM      7  C   UNL     1     106.350 125.368 146.365  0.00  0.00    +0.000 A 
ATOM      8  C   UNL     1     105.746 126.035 144.982  0.00  0.00    +0.000 A 
ATOM      9  C   UNL     1     106.414 127.474 144.353  0.00  0.00    +0.000 C 
ATOM     10  C   UNL     1     105.419 125.339 145.281  0.00  0.00    +0.000 A 
ATOM     11  C   UNL     1     106.677 126.063 146.066  0.00  0.00    +0.000 A 
ATOM     12  C   UNL     1     106.724 127.121 145.073  0.00  0.00    +0.000 C 
ATOM     13  C   UNL     1     106.652 125.034 147.057  0.00  0.00    +0.000 C 
ENDROOT
BRANCH   5  16
ATOM     14  O   UNL     1     105.413 127.020 141.109  0.00  0.00    +0.000 OA
ATOM     15  O   UNL     1     104.544 128.421 141.177  0.00  0.00    +0.000 OA
ATOM     16  C   UNL     1     105.455 127.428 143.253  0.00  0.00    +0.000 A 
ATOM     17  C   UNL     1     105.586 127.059 142.527  0.00  0.00    +0.000 A 
ATOM     18  C   UNL     1     105.021 128.128 143.287  0.00  0.00    +0.000 A 
ATOM     19  C   UNL     1     105.282 127.389 141.835  0.00  0.00    +0.000 A 
ATOM     20  C   UNL     1     104.717 128.460 142.595  0.00  0.00    +0.000 A 
ATOM     21  C   UNL     1     104.848 128.090 141.869  0.00  0.00    +0.000 A 
ENDBRANCH   5  16
BRANCH   4  22
ATOM     22  O   UNL     1     105.394 124.309 146.273  0.00  0.00    +0.000 OA
BRANCH  22  31
ATOM     23  O   UNL     1     104.178 124.810 146.831  0.00  0.00    +0.000 OA
ATOM     24  O   UNL     1     102.930 122.945 145.786  0.00  0.00    +0.000 OA
ATOM     25  O   UNL     1     102.131 124.067 146.693  0.00  0.00    +0.000 OA
ATOM     26  O   UNL     1     104.562 123.066 145.576  0.00  0.00    +0.000 OA
ATOM     27  C   UNL     1     103.346 123.567 146.134  0.00  0.00    +0.000 C 
ATOM     28  C   UNL     1     102.947 124.128 146.588  0.00  0.00    +0.000 C 
ATOM     29  C   UNL     1     104.163 123.627 146.029  0.00  0.00    +0.000 C 
ATOM     30  C   UNL     1     103.363 124.750 146.936  0.00  0.00    +0.000 C 
ATOM     31  C   UNL     1     104.579 124.249 146.378  0.00  0.00    +0.000 C 
BRANCH  30  33
ATOM     32  O   UNL     1     103.285 125.571 148.103  0.00  0.00    +0.000 OA
ATOM     33  C   UNL     1     102.963 125.310 147.390  0.00  0.00    +0.000 C 
ENDBRANCH  30  33
ENDBRANCH  22  31
ENDBRANCH   4  22
TORSDOF 4
ENDMDL
MODEL 2
REMARK VINA RESULT:      -9.4      8.446     11.074
REMARK  Name = 42607964
REMARK  4 active torsions:
REMARK  status: ('A' for Active; 'I' for Inactive)
REMARK    1  A    between atoms: O_2  and  C_16
REMARK    2  A    between atoms: O_2  and  C_18
REMARK    3  A    between atoms: C_15  and  C_17
REMARK    4  A    between atoms: C_19  and  C_27
REMARK                            x       y       z     vdW  Elec       q    Type
REMARK                         _______ _______ _______ _____ _____    ______ ____
ROOT
ATOM      1  O   UNL     1     111.187 126.568 137.903  0.00  0.00    +0.000 OA
ATOM      2  O   UNL     1     111.188 124.658 135.728  0.00  0.00    +0.000 OA
ATOM      3  O   UNL     1     112.055 124.430 136.859  0.00  0.00    +0.000 OA
ATOM      4  C   UNL     1     110.052 126.501 136.007  0.00  0.00    +0.000 A 
ATOM      5  C   UNL     1     111.777 126.104 138.321  0.00  0.00    +0.000 C 
ATOM      6  C   UNL     1     111.186 125.602 136.800  0.00  0.00    +0.000 A 
ATOM      7  C   UNL     1     110.337 125.804 135.669  0.00  0.00    +0.000 A 
ATOM      8  C   UNL     1     110.901 126.299 137.139  0.00  0.00    +0.000 A 
ATOM      9  C   UNL     1     112.074 125.378 137.970  0.00  0.00    +0.000 C 
ATOM     10  C   UNL     1     110.335 126.749 136.742  0.00  0.00    +0.000 A 
ATOM     11  C   UNL     1     110.904 125.355 136.066  0.00  0.00    +0.000 A 
ATOM     12  C   UNL     1     111.776 125.126 137.204  0.00  0.00    +0.000 C 
ATOM     13  C   UNL     1     110.054 125.557 134.934  0.00  0.00    +0.000 C 
ENDROOT
BRANCH   5  16
ATOM     14  O   UNL     1     111.419 126.382 141.143  0.00  0.00    +0.000 OA
ATOM     15  O   UNL     1     112.899 127.103 141.260  0.00  0.00    +0.000 OA
ATOM     16  C   UNL     1     112.058 126.354 139.056  0.00  0.00    +0.000 A 
ATOM     17  C   UNL     1     111.599 126.243 139.732  0.00  0.00    +0.000 A 
ATOM     18  C   UNL     1     112.798 126.714 139.114  0.00  0.00    +0.000 A 
ATOM     19  C   UNL     1     111.878 126.493 140.467  0.00  0.00    +0.000 A 
ATOM     20  C   UNL     1     113.078 126.964 139.849  0.00  0.00    +0.000 A 
ATOM     21  C   UNL     1     112.618 126.853 140.525  0.00  0.00    +0.000 A 
ENDBRANCH   5  16
BRANCH   4  22
ATOM     22  O   UNL     1     109.485 126.951 135.610  0.00  0.00    +0.000 OA
BRANCH  22  31
ATOM     23  O   UNL     1     110.275 128.118 135.374  0.00  0.00    +0.000 OA
ATOM     24  O   UNL     1     108.327 129.545 135.918  0.00  0.00    +0.000 OA
ATOM     25  O   UNL     1     109.765 130.236 135.501  0.00  0.00    +0.000 OA
ATOM     26  O   UNL     1     108.187 127.902 135.972  0.00  0.00    +0.000 OA
ATOM     27  C   UNL     1     108.976 129.069 135.736  0.00  0.00    +0.000 C 
ATOM     28  C   UNL     1     109.696 129.415 135.528  0.00  0.00    +0.000 C 
ATOM     29  C   UNL     1     108.906 128.247 135.764  0.00  0.00    +0.000 C 
ATOM     30  C   UNL     1     110.345 128.939 135.346  0.00  0.00    +0.000 C 
ATOM     31  C   UNL     1     109.556 127.771 135.582  0.00  0.00    +0.000 C 
BRANCH  30  33
ATOM     32  O   UNL     1     111.570 128.900 134.612  0.00  0.00    +0.000 OA
ATOM     33  C   UNL     1     111.064 129.285 135.138  0.00  0.00    +0.000 C 
ENDBRANCH  30  33
ENDBRANCH  22  31
ENDBRANCH   4  22
TORSDOF 4
ENDMDL
MODEL 3
REMARK VINA RESULT:      -9.4      8.191     10.626
REMARK  Name = 42607964
REMARK  4 active torsions:
REMARK  status: ('A' for Active; 'I' for Inactive)
REMARK    1  A    between atoms: O_2  and  C_16
REMARK    2  A    between atoms: O_2  and  C_18
REMARK    3  A    between atoms: C_15  and  C_17
REMARK    4  A    between atoms: C_19  and  C_27
REMARK                            x       y       z     vdW  Elec       q    Type
REMARK                         _______ _______ _______ _____ _____    ______ ____
ROOT
ATOM      1  O   UNL     1     110.803 127.447 136.017  0.00  0.00    +0.000 OA
ATOM      2  O   UNL     1     110.756 124.622 135.386  0.00  0.00    +0.000 OA
ATOM      3  O   UNL     1     109.924 125.524 134.624  0.00  0.00    +0.000 OA
ATOM      4  C   UNL     1     111.882 125.728 136.894  0.00  0.00    +0.000 A 
ATOM      5  C   UNL     1     110.229 127.603 135.397  0.00  0.00    +0.000 C 
ATOM      6  C   UNL     1     110.781 126.016 135.700  0.00  0.00    +0.000 A 
ATOM      7  C   UNL     1     111.594 125.103 136.438  0.00  0.00    +0.000 A 
ATOM      8  C   UNL     1     111.068 126.642 136.155  0.00  0.00    +0.000 A 
ATOM      9  C   UNL     1     109.929 126.953 134.922  0.00  0.00    +0.000 C 
ATOM     10  C   UNL     1     111.619 126.497 136.752  0.00  0.00    +0.000 A 
ATOM     11  C   UNL     1     111.043 125.248 135.841  0.00  0.00    +0.000 A 
ATOM     12  C   UNL     1     110.207 126.154 135.075  0.00  0.00    +0.000 C 
ATOM     13  C   UNL     1     111.857 124.334 136.580  0.00  0.00    +0.000 C 
ENDROOT
BRANCH   5  16
ATOM     14  O   UNL     1     108.334 129.694 135.851  0.00  0.00    +0.000 OA
ATOM     15  O   UNL     1     109.184 130.684 134.840  0.00  0.00    +0.000 OA
ATOM     16  C   UNL     1     109.968 128.374 135.258  0.00  0.00    +0.000 A 
ATOM     17  C   UNL     1     109.282 128.649 135.624  0.00  0.00    +0.000 A 
ATOM     18  C   UNL     1     110.393 128.868 134.752  0.00  0.00    +0.000 A 
ATOM     19  C   UNL     1     109.020 129.419 135.485  0.00  0.00    +0.000 A 
ATOM     20  C   UNL     1     110.132 129.638 134.613  0.00  0.00    +0.000 A 
ATOM     21  C   UNL     1     109.445 129.913 134.979  0.00  0.00    +0.000 A 
ENDBRANCH   5  16
BRANCH   4  22
ATOM     22  O   UNL     1     112.433 125.583 137.491  0.00  0.00    +0.000 OA
BRANCH  22  31
ATOM     23  O   UNL     1     111.597 125.876 138.612  0.00  0.00    +0.000 OA
ATOM     24  O   UNL     1     113.490 127.020 139.724  0.00  0.00    +0.000 OA
ATOM     25  O   UNL     1     112.024 126.932 140.474  0.00  0.00    +0.000 OA
ATOM     26  O   UNL     1     113.695 126.345 138.232  0.00  0.00    +0.000 OA
ATOM     27  C   UNL     1     112.859 126.639 139.353  0.00  0.00    +0.000 C 
ATOM     28  C   UNL     1     112.125 126.595 139.728  0.00  0.00    +0.000 C 
ATOM     29  C   UNL     1     112.961 126.301 138.607  0.00  0.00    +0.000 C 
ATOM     30  C   UNL     1     111.495 126.213 139.358  0.00  0.00    +0.000 C 
ATOM     31  C   UNL     1     112.330 125.920 138.236  0.00  0.00    +0.000 C 
BRANCH  30  33
ATOM     32  O   UNL     1     110.348 125.456 139.750  0.00  0.00    +0.000 OA
ATOM     33  C   UNL     1     110.762 126.170 139.733  0.00  0.00    +0.000 C 
ENDBRANCH  30  33
ENDBRANCH  22  31
ENDBRANCH   4  22
TORSDOF 4
ENDMDL
MODEL 4
REMARK VINA RESULT:      -9.3      8.956     11.718
REMARK  Name = 42607964
REMARK  4 active torsions:
REMARK  status: ('A' for Active; 'I' for Inactive)
REMARK    1  A    between atoms: O_2  and  C_16
REMARK    2  A    between atoms: O_2  and  C_18
REMARK    3  A    between atoms: C_15  and  C_17
REMARK    4  A    between atoms: C_19  and  C_27
REMARK                            x       y       z     vdW  Elec       q    Type
REMARK                         _______ _______ _______ _____ _____    ______ ____
ROOT
ATOM      1  O   UNL     1     112.413 128.213 135.600  0.00  0.00    +0.000 OA
ATOM      2  O   UNL     1     109.693 128.293 134.612  0.00  0.00    +0.000 OA
ATOM      3  O   UNL     1     110.473 129.507 134.612  0.00  0.00    +0.000 OA
ATOM      4  C   UNL     1     110.872 126.638 135.411  0.00  0.00    +0.000 A 
ATOM      5  C   UNL     1     112.504 129.052 135.441  0.00  0.00    +0.000 C 
ATOM      6  C   UNL     1     111.035 128.251 135.100  0.00  0.00    +0.000 A 
ATOM      7  C   UNL     1     110.242 127.063 135.089  0.00  0.00    +0.000 A 
ATOM      8  C   UNL     1     111.666 127.827 135.422  0.00  0.00    +0.000 A 
ATOM      9  C   UNL     1     111.848 129.494 135.105  0.00  0.00    +0.000 C 
ATOM     10  C   UNL     1     111.584 127.021 135.578  0.00  0.00    +0.000 A 
ATOM     11  C   UNL     1     110.324 127.869 134.934  0.00  0.00    +0.000 A 
ATOM     12  C   UNL     1     111.109 129.090 134.934  0.00  0.00    +0.000 C 
ATOM     13  C   UNL     1     109.529 126.681 134.923  0.00  0.00    +0.000 C 
ENDROOT
BRANCH   5  16
ATOM     14  O   UNL     1     114.171 130.499 137.257  0.00  0.00    +0.000 OA
ATOM     15  O   UNL     1     115.356 130.570 136.111  0.00  0.00    +0.000 OA
ATOM     16  C   UNL     1     113.217 129.432 135.608  0.00  0.00    +0.000 A 
ATOM     17  C   UNL     1     113.338 129.775 136.348  0.00  0.00    +0.000 A 
ATOM     18  C   UNL     1     113.810 129.467 135.035  0.00  0.00    +0.000 A 
ATOM     19  C   UNL     1     114.050 130.155 136.516  0.00  0.00    +0.000 A 
ATOM     20  C   UNL     1     114.523 129.846 135.203  0.00  0.00    +0.000 A 
ATOM     21  C   UNL     1     114.643 130.190 135.944  0.00  0.00    +0.000 A 
ENDBRANCH   5  16
BRANCH   4  22
ATOM     22  O   UNL     1     110.790 125.832 135.567  0.00  0.00    +0.000 OA
BRANCH  22  31
ATOM     23  O   UNL     1     110.649 125.912 136.986  0.00  0.00    +0.000 OA
ATOM     24  O   UNL     1     112.080 123.908 137.240  0.00  0.00    +0.000 OA
ATOM     25  O   UNL     1     111.463 124.655 138.574  0.00  0.00    +0.000 OA
ATOM     26  O   UNL     1     111.744 124.497 135.736  0.00  0.00    +0.000 OA
ATOM     27  C   UNL     1     111.603 124.576 137.155  0.00  0.00    +0.000 C 
ATOM     28  C   UNL     1     111.294 124.950 137.823  0.00  0.00    +0.000 C 
ATOM     29  C   UNL     1     111.435 124.871 136.403  0.00  0.00    +0.000 C 
ATOM     30  C   UNL     1     110.817 125.618 137.738  0.00  0.00    +0.000 C 
ATOM     31  C   UNL     1     110.958 125.538 136.318  0.00  0.00    +0.000 C 
BRANCH  30  33
ATOM     32  O   UNL     1     109.704 126.169 138.444  0.00  0.00    +0.000 OA
ATOM     33  C   UNL     1     110.508 125.991 138.405  0.00  0.00    +0.000 C 
ENDBRANCH  30  33
ENDBRANCH  22  31
ENDBRANCH   4  22
TORSDOF 4
ENDMDL
MODEL 5
REMARK VINA RESULT:      -9.2     10.166     12.472
REMARK  Name = 42607964
REMARK  4 active torsions:
REMARK  status: ('A' for Active; 'I' for Inactive)
REMARK    1  A    between atoms: O_2  and  C_16
REMARK    2  A    between atoms: O_2  and  C_18
REMARK    3  A    between atoms: C_15  and  C_17
REMARK    4  A    between atoms: C_19  and  C_27
REMARK                            x       y       z     vdW  Elec       q    Type
REMARK                         _______ _______ _______ _____ _____    ______ ____
ROOT
ATOM      1  O   UNL     1     111.519 126.692 135.889  0.00  0.00    +0.000 OA
ATOM      2  O   UNL     1     109.361 128.377 134.947  0.00  0.00    +0.000 OA
ATOM      3  O   UNL     1     109.059 127.038 135.395  0.00  0.00    +0.000 OA
ATOM      4  C   UNL     1     111.501 128.767 135.123  0.00  0.00    +0.000 A 
ATOM      5  C   UNL     1     110.964 126.054 136.041  0.00  0.00    +0.000 C 
ATOM      6  C   UNL     1     110.428 127.547 135.412  0.00  0.00    +0.000 A 
ATOM      7  C   UNL     1     110.699 128.876 134.963  0.00  0.00    +0.000 A 
ATOM      8  C   UNL     1     111.230 127.437 135.572  0.00  0.00    +0.000 A 
ATOM      9  C   UNL     1     110.129 126.168 135.874  0.00  0.00    +0.000 C 
ATOM     10  C   UNL     1     111.766 128.046 135.427  0.00  0.00    +0.000 A 
ATOM     11  C   UNL     1     110.163 128.266 135.108  0.00  0.00    +0.000 A 
ATOM     12  C   UNL     1     109.859 126.920 135.558  0.00  0.00    +0.000 C 
ATOM     13  C   UNL     1     110.434 129.596 134.659  0.00  0.00    +0.000 C 
ENDROOT
BRANCH   5  16
ATOM     14  O   UNL     1     111.541 124.376 138.282  0.00  0.00    +0.000 OA
ATOM     15  O   UNL     1     112.036 123.180 137.259  0.00  0.00    +0.000 OA
ATOM     16  C   UNL     1     111.232 125.335 136.345  0.00  0.00    +0.000 A 
ATOM     17  C   UNL     1     111.253 125.215 137.161  0.00  0.00    +0.000 A 
ATOM     18  C   UNL     1     111.480 124.737 135.834  0.00  0.00    +0.000 A 
ATOM     19  C   UNL     1     111.521 124.497 137.466  0.00  0.00    +0.000 A 
ATOM     20  C   UNL     1     111.748 124.018 136.138  0.00  0.00    +0.000 A 
ATOM     21  C   UNL     1     111.768 123.899 136.954  0.00  0.00    +0.000 A 
ENDBRANCH   5  16
BRANCH   4  22
ATOM     22  O   UNL     1     112.038 129.376 134.979  0.00  0.00    +0.000 OA
BRANCH  22  31
ATOM     23  O   UNL     1     112.338 129.785 136.315  0.00  0.00    +0.000 OA
ATOM     24  O   UNL     1     114.751 129.811 135.765  0.00  0.00    +0.000 OA
ATOM     25  O   UNL     1     114.246 130.210 137.284  0.00  0.00    +0.000 OA
ATOM     26  O   UNL     1     113.646 129.394 134.612  0.00  0.00    +0.000 OA
ATOM     27  C   UNL     1     113.946 129.802 135.949  0.00  0.00    +0.000 C 
ATOM     28  C   UNL     1     113.694 130.002 136.708  0.00  0.00    +0.000 C 
ATOM     29  C   UNL     1     113.394 129.593 135.372  0.00  0.00    +0.000 C 
ATOM     30  C   UNL     1     112.889 129.993 136.891  0.00  0.00    +0.000 C 
ATOM     31  C   UNL     1     112.589 129.585 135.555  0.00  0.00    +0.000 C 
BRANCH  30  33
ATOM     32  O   UNL     1     112.016 130.726 137.753  0.00  0.00    +0.000 OA
ATOM     33  C   UNL     1     112.637 130.193 137.650  0.00  0.00    +0.000 C 
ENDBRANCH  30  33
ENDBRANCH  22  31
ENDBRANCH   4  22
TORSDOF 4
ENDMDL
MODEL 6
REMARK VINA RESULT:      -9.2      8.923     11.312
REMARK  Name = 42607964
REMARK  4 active torsions:
REMARK  status: ('A' for Active; 'I' for Inactive)
REMARK    1  A    between atoms: O_2  and  C_16
REMARK    2  A    between atoms: O_2  and  C_18
REMARK    3  A    between atoms: C_15  and  C_17
REMARK    4  A    between atoms: C_19  and  C_27
REMARK                            x       y       z     vdW  Elec       q    Type
REMARK                         _______ _______ _______ _____ _____    ______ ____
ROOT
ATOM      1  O   UNL     1     112.990 127.454 136.195  0.00  0.00    +0.000 OA
ATOM      2  O   UNL     1     113.818 124.704 136.557  0.00  0.00    +0.000 OA
ATOM      3  O   UNL     1     114.828 125.725 136.413  0.00  0.00    +0.000 OA
ATOM      4  C   UNL     1     111.827 125.591 136.453  0.00  0.00    +0.000 A 
ATOM      5  C   UNL     1     113.811 127.704 136.156  0.00  0.00    +0.000 C 
ATOM      6  C   UNL     1     113.407 126.060 136.379  0.00  0.00    +0.000 A 
ATOM      7  C   UNL     1     112.428 125.030 136.523  0.00  0.00    +0.000 A 
ATOM      8  C   UNL     1     112.806 126.622 136.308  0.00  0.00    +0.000 A 
ATOM      9  C   UNL     1     114.437 127.120 136.230  0.00  0.00    +0.000 C 
ATOM     10  C   UNL     1     112.016 126.387 136.345  0.00  0.00    +0.000 A 
ATOM     11  C   UNL     1     113.218 125.265 136.486  0.00  0.00    +0.000 A 
ATOM     12  C   UNL     1     114.233 126.292 136.342  0.00  0.00    +0.000 C 
ATOM     13  C   UNL     1     112.238 124.234 136.631  0.00  0.00    +0.000 C 
ENDROOT
BRANCH   5  16
ATOM     14  O   UNL     1     113.860 130.389 137.135  0.00  0.00    +0.000 OA
ATOM     15  O   UNL     1     114.556 130.890 135.725  0.00  0.00    +0.000 OA
ATOM     16  C   UNL     1     113.997 128.500 136.048  0.00  0.00    +0.000 A 
ATOM     17  C   UNL     1     113.836 129.046 136.645  0.00  0.00    +0.000 A 
ATOM     18  C   UNL     1     114.345 128.751 135.343  0.00  0.00    +0.000 A 
ATOM     19  C   UNL     1     114.022 129.843 136.538  0.00  0.00    +0.000 A 
ATOM     20  C   UNL     1     114.531 129.548 135.235  0.00  0.00    +0.000 A 
ATOM     21  C   UNL     1     114.369 130.093 135.833  0.00  0.00    +0.000 A 
ENDBRANCH   5  16
BRANCH   4  22
ATOM     22  O   UNL     1     111.037 125.356 136.490  0.00  0.00    +0.000 OA
BRANCH  22  31
ATOM     23  O   UNL     1     110.669 125.735 137.817  0.00  0.00    +0.000 OA
ATOM     24  O   UNL     1     108.656 126.872 136.935  0.00  0.00    +0.000 OA
ATOM     25  O   UNL     1     108.960 126.872 138.556  0.00  0.00    +0.000 OA
ATOM     26  O   UNL     1     109.694 126.114 135.901  0.00  0.00    +0.000 OA
ATOM     27  C   UNL     1     109.327 126.493 137.229  0.00  0.00    +0.000 C 
ATOM     28  C   UNL     1     109.479 126.493 138.040  0.00  0.00    +0.000 C 
ATOM     29  C   UNL     1     109.847 126.114 136.712  0.00  0.00    +0.000 C 
ATOM     30  C   UNL     1     110.151 126.114 138.334  0.00  0.00    +0.000 C 
ATOM     31  C   UNL     1     110.518 125.735 137.006  0.00  0.00    +0.000 C 
BRANCH  30  33
ATOM     32  O   UNL     1     110.555 125.423 139.518  0.00  0.00    +0.000 OA
ATOM     33  C   UNL     1     110.302 126.114 139.144  0.00  0.00    +0.000 C 
ENDBRANCH  30  33
ENDBRANCH  22  31
ENDBRANCH   4  22
TORSDOF 4
ENDMDL
MODEL 7
REMARK VINA RESULT:      -9.1      9.707     11.768
REMARK  Name = 42607964
REMARK  4 active torsions:
REMARK  status: ('A' for Active; 'I' for Inactive)
REMARK    1  A    between atoms: O_2  and  C_16
REMARK    2  A    between atoms: O_2  and  C_18
REMARK    3  A    between atoms: C_15  and  C_17
REMARK    4  A    between atoms: C_19  and  C_27
REMARK                            x       y       z     vdW  Elec       q    Type
REMARK                         _______ _______ _______ _____ _____    ______ ____
ROOT
ATOM      1  O   UNL     1     111.946 126.727 136.252  0.00  0.00    +0.000 OA
ATOM      2  O   UNL     1     113.957 128.777 135.879  0.00  0.00    +0.000 OA
ATOM      3  O   UNL     1     114.366 127.471 136.337  0.00  0.00    +0.000 OA
ATOM      4  C   UNL     1     111.795 128.830 135.582  0.00  0.00    +0.000 A 
ATOM      5  C   UNL     1     112.550 126.170 136.503  0.00  0.00    +0.000 C 
ATOM      6  C   UNL     1     112.962 127.767 136.062  0.00  0.00    +0.000 A 
ATOM      7  C   UNL     1     112.584 129.068 135.610  0.00  0.00    +0.000 A 
ATOM      8  C   UNL     1     112.173 127.527 136.034  0.00  0.00    +0.000 A 
ATOM      9  C   UNL     1     113.372 126.419 136.533  0.00  0.00    +0.000 C 
ATOM     10  C   UNL     1     111.589 128.058 135.794  0.00  0.00    +0.000 A 
ATOM     11  C   UNL     1     113.168 128.537 135.851  0.00  0.00    +0.000 A 
ATOM     12  C   UNL     1     113.579 127.223 136.311  0.00  0.00    +0.000 C 
ATOM     13  C   UNL     1     112.789 129.839 135.398  0.00  0.00    +0.000 C 
ENDROOT
BRANCH   5  16
ATOM     14  O   UNL     1     111.208 124.365 138.266  0.00  0.00    +0.000 OA
ATOM     15  O   UNL     1     111.717 123.091 137.349  0.00  0.00    +0.000 OA
ATOM     16  C   UNL     1     112.342 125.400 136.714  0.00  0.00    +0.000 A 
ATOM     17  C   UNL     1     111.879 125.267 137.384  0.00  0.00    +0.000 A 
ATOM     18  C   UNL     1     112.597 124.763 136.256  0.00  0.00    +0.000 A 
ATOM     19  C   UNL     1     111.671 124.498 137.596  0.00  0.00    +0.000 A 
ATOM     20  C   UNL     1     112.388 123.994 136.467  0.00  0.00    +0.000 A 
ATOM     21  C   UNL     1     111.925 123.861 137.137  0.00  0.00    +0.000 A 
ENDBRANCH   5  16
BRANCH   4  22
ATOM     22  O   UNL     1     111.211 129.361 135.341  0.00  0.00    +0.000 OA
BRANCH  22  31
ATOM     23  O   UNL     1     110.601 129.635 136.604  0.00  0.00    +0.000 OA
ATOM     24  O   UNL     1     108.363 129.431 135.568  0.00  0.00    +0.000 OA
ATOM     25  O   UNL     1     108.500 129.773 137.175  0.00  0.00    +0.000 OA
ATOM     26  O   UNL     1     109.719 129.225 134.650  0.00  0.00    +0.000 OA
ATOM     27  C   UNL     1     109.109 129.499 135.913  0.00  0.00    +0.000 C 
ATOM     28  C   UNL     1     109.178 129.670 136.717  0.00  0.00    +0.000 C 
ATOM     29  C   UNL     1     109.788 129.396 135.454  0.00  0.00    +0.000 C 
ATOM     30  C   UNL     1     109.924 129.738 137.063  0.00  0.00    +0.000 C 
ATOM     31  C   UNL     1     110.534 129.464 135.800  0.00  0.00    +0.000 C 
BRANCH  30  33
ATOM     32  O   UNL     1     110.554 130.454 138.127  0.00  0.00    +0.000 OA
ATOM     33  C   UNL     1     109.992 129.909 137.866  0.00  0.00    +0.000 C 
ENDBRANCH  30  33
ENDBRANCH  22  31
ENDBRANCH   4  22
TORSDOF 4
ENDMDL
MODEL 8
REMARK VINA RESULT:      -9.1      9.062     11.312
REMARK  Name = 42607964
REMARK  4 active torsions:
REMARK  status: ('A' for Active; 'I' for Inactive)
REMARK    1  A    between atoms: O_2  and  C_16
REMARK    2  A    between atoms: O_2  and  C_18
REMARK    3  A    between atoms: C_15  and  C_17
REMARK    4  A    between atoms: C_19  and  C_27
REMARK                            x       y       z     vdW  Elec       q    Type
REMARK                         _______ _______ _______ _____ _____    ______ ____
ROOT
ATOM      1  O   UNL     1     111.499 126.199 136.841  0.00  0.00    +0.000 OA
ATOM      2  O   UNL     1     109.218 126.137 135.060  0.00  0.00    +0.000 OA
ATOM      3  O   UNL     1     110.301 125.208 134.842  0.00  0.00    +0.000 OA
ATOM      4  C   UNL     1     109.645 127.404 136.786  0.00  0.00    +0.000 A 
ATOM      5  C   UNL     1     111.867 125.557 136.405  0.00  0.00    +0.000 C 
ATOM      6  C   UNL     1     110.343 126.170 135.941  0.00  0.00    +0.000 A 
ATOM      7  C   UNL     1     109.258 127.079 136.134  0.00  0.00    +0.000 A 
ATOM      8  C   UNL     1     110.731 126.494 136.592  0.00  0.00    +0.000 A 
ATOM      9  C   UNL     1     111.463 125.218 135.726  0.00  0.00    +0.000 C 
ATOM     10  C   UNL     1     110.383 127.111 137.015  0.00  0.00    +0.000 A 
ATOM     11  C   UNL     1     109.607 126.462 135.712  0.00  0.00    +0.000 A 
ATOM     12  C   UNL     1     110.695 125.527 135.493  0.00  0.00    +0.000 C 
ATOM     13  C   UNL     1     108.521 127.371 135.905  0.00  0.00    +0.000 C 
ENDROOT
BRANCH   5  16
ATOM     14  O   UNL     1     114.711 125.820 136.502  0.00  0.00    +0.000 OA
ATOM     15  O   UNL     1     114.815 124.396 137.329  0.00  0.00    +0.000 OA
ATOM     16  C   UNL     1     112.604 125.266 136.636  0.00  0.00    +0.000 A 
ATOM     17  C   UNL     1     113.289 125.688 136.454  0.00  0.00    +0.000 A 
ATOM     18  C   UNL     1     112.656 124.554 137.049  0.00  0.00    +0.000 A 
ATOM     19  C   UNL     1     114.026 125.399 136.684  0.00  0.00    +0.000 A 
ATOM     20  C   UNL     1     113.392 124.264 137.281  0.00  0.00    +0.000 A 
ATOM     21  C   UNL     1     114.078 124.687 137.098  0.00  0.00    +0.000 A 
ENDBRANCH   5  16
BRANCH   4  22
ATOM     22  O   UNL     1     109.297 128.021 137.208  0.00  0.00    +0.000 OA
BRANCH  22  31
ATOM     23  O   UNL     1     110.147 129.098 136.808  0.00  0.00    +0.000 OA
ATOM     24  O   UNL     1     110.246 129.889 139.151  0.00  0.00    +0.000 OA
ATOM     25  O   UNL     1     111.062 130.702 137.971  0.00  0.00    +0.000 OA
ATOM     26  O   UNL     1     109.363 128.548 138.770  0.00  0.00    +0.000 OA
ATOM     27  C   UNL     1     110.213 129.625 138.370  0.00  0.00    +0.000 C 
ATOM     28  C   UNL     1     110.621 130.032 137.780  0.00  0.00    +0.000 C 
ATOM     29  C   UNL     1     109.771 128.954 138.180  0.00  0.00    +0.000 C 
ATOM     30  C   UNL     1     110.588 129.768 136.999  0.00  0.00    +0.000 C 
ATOM     31  C   UNL     1     109.738 128.691 137.399  0.00  0.00    +0.000 C 
BRANCH  30  33
ATOM     32  O   UNL     1     110.632 130.325 135.683  0.00  0.00    +0.000 OA
ATOM     33  C   UNL     1     110.996 130.174 136.409  0.00  0.00    +0.000 C 
ENDBRANCH  30  33
ENDBRANCH  22  31
ENDBRANCH   4  22
TORSDOF 4
ENDMDL
MODEL 9
REMARK VINA RESULT:      -9.1      1.238      4.722
REMARK  Name = 42607964
REMARK  4 active torsions:
REMARK  status: ('A' for Active; 'I' for Inactive)
REMARK    1  A    between atoms: O_2  and  C_16
REMARK    2  A    between atoms: O_2  and  C_18
REMARK    3  A    between atoms: C_15  and  C_17
REMARK    4  A    between atoms: C_19  and  C_27
REMARK                            x       y       z     vdW  Elec       q    Type
REMARK                         _______ _______ _______ _____ _____    ______ ____
ROOT
ATOM      1  O   UNL     1     104.221 124.471 145.920  0.00  0.00    +0.000 OA
ATOM      2  O   UNL     1     106.294 125.114 147.836  0.00  0.00    +0.000 OA
ATOM      3  O   UNL     1     105.101 124.443 148.295  0.00  0.00    +0.000 OA
ATOM      4  C   UNL     1     106.179 125.473 145.686  0.00  0.00    +0.000 A 
ATOM      5  C   UNL     1     103.745 124.119 146.542  0.00  0.00    +0.000 C 
ATOM      6  C   UNL     1     105.272 124.798 146.888  0.00  0.00    +0.000 A 
ATOM      7  C   UNL     1     106.462 125.462 146.460  0.00  0.00    +0.000 A 
ATOM      8  C   UNL     1     104.987 124.808 146.114  0.00  0.00    +0.000 A 
ATOM      9  C   UNL     1     104.040 124.107 147.349  0.00  0.00    +0.000 C 
ATOM     10  C   UNL     1     105.441 125.146 145.513  0.00  0.00    +0.000 A 
ATOM     11  C   UNL     1     106.009 125.124 147.061  0.00  0.00    +0.000 A 
ATOM     12  C   UNL     1     104.810 124.450 147.523  0.00  0.00    +0.000 C 
ATOM     13  C   UNL     1     107.201 125.789 146.633  0.00  0.00    +0.000 C 
ENDROOT
BRANCH   5  16
ATOM     14  O   UNL     1     100.892 124.261 146.629  0.00  0.00    +0.000 OA
ATOM     15  O   UNL     1     100.796 122.815 145.839  0.00  0.00    +0.000 OA
ATOM     16  C   UNL     1     103.007 123.793 146.366  0.00  0.00    +0.000 A 
ATOM     17  C   UNL     1     102.318 124.189 146.585  0.00  0.00    +0.000 A 
ATOM     18  C   UNL     1     102.960 123.070 145.971  0.00  0.00    +0.000 A 
ATOM     19  C   UNL     1     101.581 123.864 146.410  0.00  0.00    +0.000 A 
ATOM     20  C   UNL     1     102.223 122.744 145.795  0.00  0.00    +0.000 A 
ATOM     21  C   UNL     1     101.533 123.141 146.015  0.00  0.00    +0.000 A 
ENDBRANCH   5  16
BRANCH   4  22
ATOM     22  O   UNL     1     106.632 125.810 145.084  0.00  0.00    +0.000 OA
BRANCH  22  31
ATOM     23  O   UNL     1     105.913 127.024 144.860  0.00  0.00    +0.000 OA
ATOM     24  O   UNL     1     106.018 126.635 142.418  0.00  0.00    +0.000 OA
ATOM     25  O   UNL     1     105.265 127.979 143.008  0.00  0.00    +0.000 OA
ATOM     26  O   UNL     1     106.702 125.550 143.457  0.00  0.00    +0.000 OA
ATOM     27  C   UNL     1     105.983 126.765 143.232  0.00  0.00    +0.000 C 
ATOM     28  C   UNL     1     105.607 127.437 143.527  0.00  0.00    +0.000 C 
ATOM     29  C   UNL     1     106.325 126.222 143.752  0.00  0.00    +0.000 C 
ATOM     30  C   UNL     1     105.572 127.567 144.341  0.00  0.00    +0.000 C 
ATOM     31  C   UNL     1     106.290 126.352 144.566  0.00  0.00    +0.000 C 
BRANCH  30  33
ATOM     32  O   UNL     1     105.543 128.673 145.245  0.00  0.00    +0.000 OA
ATOM     33  C   UNL     1     105.195 128.238 144.635  0.00  0.00    +0.000 C 
ENDBRANCH  30  33
ENDBRANCH  22  31
ENDBRANCH   4  22
TORSDOF 4
ENDMDL
MODEL 10
REMARK VINA RESULT:      -9.1      9.673     11.961
REMARK  Name = 42607964
REMARK  4 active torsions:
REMARK  status: ('A' for Active; 'I' for Inactive)
REMARK    1  A    between atoms: O_2  and  C_16
REMARK    2  A    between atoms: O_2  and  C_18
REMARK    3  A    between atoms: C_15  and  C_17
REMARK    4  A    between atoms: C_19  and  C_27
REMARK                            x       y       z     vdW  Elec       q    Type
REMARK                         _______ _______ _______ _____ _____    ______ ____
ROOT
ATOM      1  O   UNL     1     113.186 127.697 137.321  0.00  0.00    +0.000 OA
ATOM      2  O   UNL     1     113.882 130.085 135.841  0.00  0.00    +0.000 OA
ATOM      3  O   UNL     1     114.208 128.795 135.281  0.00  0.00    +0.000 OA
ATOM      4  C   UNL     1     112.892 129.842 137.771  0.00  0.00    +0.000 A 
ATOM      5  C   UNL     1     113.520 127.206 136.701  0.00  0.00    +0.000 C 
ATOM      6  C   UNL     1     113.537 128.908 136.574  0.00  0.00    +0.000 A 
ATOM      7  C   UNL     1     113.226 130.197 137.105  0.00  0.00    +0.000 A 
ATOM      8  C   UNL     1     113.204 128.552 137.239  0.00  0.00    +0.000 A 
ATOM      9  C   UNL     1     113.868 127.575 136.008  0.00  0.00    +0.000 C 
ATOM     10  C   UNL     1     112.881 129.020 137.838  0.00  0.00    +0.000 A 
ATOM     11  C   UNL     1     113.548 129.730 136.506  0.00  0.00    +0.000 A 
ATOM     12  C   UNL     1     113.876 128.432 135.944  0.00  0.00    +0.000 C 
ATOM     13  C   UNL     1     113.237 131.020 137.038  0.00  0.00    +0.000 C 
ENDROOT
BRANCH   5  16
ATOM     14  O   UNL     1     114.786 124.770 137.499  0.00  0.00    +0.000 OA
ATOM     15  O   UNL     1     113.471 123.918 136.981  0.00  0.00    +0.000 OA
ATOM     16  C   UNL     1     113.508 126.384 136.771  0.00  0.00    +0.000 A 
ATOM     17  C   UNL     1     114.153 125.988 137.100  0.00  0.00    +0.000 A 
ATOM     18  C   UNL     1     112.851 125.957 136.512  0.00  0.00    +0.000 A 
ATOM     19  C   UNL     1     114.141 125.166 137.170  0.00  0.00    +0.000 A 
ATOM     20  C   UNL     1     112.838 125.135 136.582  0.00  0.00    +0.000 A 
ATOM     21  C   UNL     1     113.484 124.740 136.911  0.00  0.00    +0.000 A 
ENDBRANCH   5  16
BRANCH   4  22
ATOM     22  O   UNL     1     112.569 130.310 138.369  0.00  0.00    +0.000 OA
BRANCH  22  31
ATOM     23  O   UNL     1     113.563 130.149 139.383  0.00  0.00    +0.000 OA
ATOM     24  O   UNL     1     111.787 129.780 141.066  0.00  0.00    +0.000 OA
ATOM     25  O   UNL     1     113.372 129.742 141.519  0.00  0.00    +0.000 OA
ATOM     26  O   UNL     1     111.385 130.063 139.491  0.00  0.00    +0.000 OA
ATOM     27  C   UNL     1     112.379 129.903 140.505  0.00  0.00    +0.000 C 
ATOM     28  C   UNL     1     113.172 129.884 140.731  0.00  0.00    +0.000 C 
ATOM     29  C   UNL     1     112.178 130.045 139.717  0.00  0.00    +0.000 C 
ATOM     30  C   UNL     1     113.764 130.007 140.170  0.00  0.00    +0.000 C 
ATOM     31  C   UNL     1     112.770 130.168 139.156  0.00  0.00    +0.000 C 
BRANCH  30  33
ATOM     32  O   UNL     1     115.078 130.567 140.124  0.00  0.00    +0.000 OA
ATOM     33  C   UNL     1     114.557 129.988 140.397  0.00  0.00    +0.000 C 
ENDBRANCH  30  33
ENDBRANCH  22  31
ENDBRANCH   4  22
TORSDOF 4
ENDMDL
