MODEL 1
REMARK VINA RESULT:      -8.6      0.000      0.000
REMARK  Name = 131838965
REMARK  7 active torsions:
REMARK  status: ('A' for Active; 'I' for Inactive)
REMARK    1  A    between atoms: O_2  and  C_14
REMARK    2  A    between atoms: O_2  and  C_16
REMARK    3  A    between atoms: C_13  and  C_15
REMARK    4  A    between atoms: C_17  and  C_19
REMARK    5  A    between atoms: C_19  and  C_20
REMARK    6  A    between atoms: C_20  and  C_22
REMARK    7  A    between atoms: C_22  and  C_25
REMARK                            x       y       z     vdW  Elec       q    Type
REMARK                         _______ _______ _______ _____ _____    ______ ____
ROOT
ATOM      1  O   UNL     1     115.123 124.915 136.478  0.00  0.00    +0.000 OA
ATOM      2  C   UNL     1     113.472 126.283 137.713  0.00  0.00    +0.000 A 
ATOM      3  C   UNL     1     113.681 126.486 136.940  0.00  0.00    +0.000 A 
ATOM      4  C   UNL     1     113.814 125.624 138.073  0.00  0.00    +0.000 A 
ATOM      5  C   UNL     1     114.231 126.029 136.529  0.00  0.00    +0.000 A 
ATOM      6  C   UNL     1     114.364 125.168 137.661  0.00  0.00    +0.000 A 
ATOM      7  C   UNL     1     114.573 125.371 136.890  0.00  0.00    +0.000 A 
ENDROOT
BRANCH   3   9
ATOM      8  O   UNL     1     112.556 127.113 136.320  0.00  0.00    +0.000 OA
ATOM      9  C   UNL     1     113.338 127.144 136.581  0.00  0.00    +0.000 C 
BRANCH   9  10
ATOM     10  C   UNL     1     113.779 127.835 136.482  0.00  0.00    +0.000 C 
BRANCH  10  11
ATOM     11  C   UNL     1     113.514 128.424 135.968  0.00  0.00    +0.000 C 
BRANCH  11  12
ATOM     12  C   UNL     1     113.965 129.105 135.854  0.00  0.00    +0.000 A 
ATOM     13  C   UNL     1     113.962 129.703 136.422  0.00  0.00    +0.000 A 
ATOM     14  C   UNL     1     114.420 129.188 135.171  0.00  0.00    +0.000 A 
ATOM     15  C   UNL     1     114.412 130.384 136.308  0.00  0.00    +0.000 A 
ATOM     16  C   UNL     1     114.871 129.870 135.056  0.00  0.00    +0.000 A 
ATOM     17  C   UNL     1     114.867 130.467 135.624  0.00  0.00    +0.000 A 
ENDBRANCH  11  12
ENDBRANCH  10  11
ENDBRANCH   9  10
ENDBRANCH   3   9
BRANCH   2  18
ATOM     18  O   UNL     1     112.921 126.739 138.125  0.00  0.00    +0.000 OA
BRANCH  18  27
ATOM     19  O   UNL     1     113.616 127.086 139.324  0.00  0.00    +0.000 OA
ATOM     20  O   UNL     1     111.706 126.268 140.668  0.00  0.00    +0.000 OA
ATOM     21  O   UNL     1     111.648 126.193 139.021  0.00  0.00    +0.000 OA
ATOM     22  O   UNL     1     113.037 126.888 141.419  0.00  0.00    +0.000 OA
ATOM     23  C   UNL     1     112.343 126.541 140.220  0.00  0.00    +0.000 C 
ATOM     24  C   UNL     1     112.314 126.504 139.396  0.00  0.00    +0.000 C 
ATOM     25  C   UNL     1     113.009 126.851 140.595  0.00  0.00    +0.000 C 
ATOM     26  C   UNL     1     113.645 127.124 140.147  0.00  0.00    +0.000 C 
ATOM     27  C   UNL     1     112.950 126.776 138.948  0.00  0.00    +0.000 C 
BRANCH  26  30
ATOM     28  O   UNL     1     114.896 126.928 140.811  0.00  0.00    +0.000 OA
ATOM     29  O   UNL     1     114.392 128.250 140.611  0.00  0.00    +0.000 OA
ATOM     30  C   UNL     1     114.311 127.433 140.523  0.00  0.00    +0.000 C 
ENDBRANCH  26  30
ENDBRANCH  18  27
ENDBRANCH   2  18
TORSDOF 7
ENDMDL
MODEL 2
REMARK VINA RESULT:      -8.5      2.418      4.423
REMARK  Name = 131838965
REMARK  7 active torsions:
REMARK  status: ('A' for Active; 'I' for Inactive)
REMARK    1  A    between atoms: O_2  and  C_14
REMARK    2  A    between atoms: O_2  and  C_16
REMARK    3  A    between atoms: C_13  and  C_15
REMARK    4  A    between atoms: C_17  and  C_19
REMARK    5  A    between atoms: C_19  and  C_20
REMARK    6  A    between atoms: C_20  and  C_22
REMARK    7  A    between atoms: C_22  and  C_25
REMARK                            x       y       z     vdW  Elec       q    Type
REMARK                         _______ _______ _______ _____ _____    ______ ____
ROOT
ATOM      1  O   UNL     1     115.190 129.979 134.853  0.00  0.00    +0.000 OA
ATOM      2  C   UNL     1     113.600 129.423 136.666  0.00  0.00    +0.000 A 
ATOM      3  C   UNL     1     113.777 128.863 136.086  0.00  0.00    +0.000 A 
ATOM      4  C   UNL     1     113.954 130.168 136.641  0.00  0.00    +0.000 A 
ATOM      5  C   UNL     1     114.307 129.048 135.482  0.00  0.00    +0.000 A 
ATOM      6  C   UNL     1     114.484 130.353 136.036  0.00  0.00    +0.000 A 
ATOM      7  C   UNL     1     114.660 129.794 135.457  0.00  0.00    +0.000 A 
ENDROOT
BRANCH   3   9
ATOM      8  O   UNL     1     112.669 128.008 135.798  0.00  0.00    +0.000 OA
ATOM      9  C   UNL     1     113.424 128.118 136.112  0.00  0.00    +0.000 C 
BRANCH   9  10
ATOM     10  C   UNL     1     113.826 127.482 136.452  0.00  0.00    +0.000 C 
BRANCH  10  11
ATOM     11  C   UNL     1     113.531 126.716 136.372  0.00  0.00    +0.000 C 
BRANCH  11  12
ATOM     12  C   UNL     1     113.930 126.082 136.716  0.00  0.00    +0.000 A 
ATOM     13  C   UNL     1     114.455 125.631 136.267  0.00  0.00    +0.000 A 
ATOM     14  C   UNL     1     113.805 125.899 137.511  0.00  0.00    +0.000 A 
ATOM     15  C   UNL     1     114.854 124.997 136.612  0.00  0.00    +0.000 A 
ATOM     16  C   UNL     1     114.204 125.265 137.857  0.00  0.00    +0.000 A 
ATOM     17  C   UNL     1     114.729 124.814 137.407  0.00  0.00    +0.000 A 
ENDBRANCH  11  12
ENDBRANCH  10  11
ENDBRANCH   9  10
ENDBRANCH   3   9
BRANCH   2  18
ATOM     18  O   UNL     1     113.070 129.238 137.271  0.00  0.00    +0.000 OA
BRANCH  18  27
ATOM     19  O   UNL     1     112.128 130.305 137.146  0.00  0.00    +0.000 OA
ATOM     20  O   UNL     1     112.219 130.671 139.592  0.00  0.00    +0.000 OA
ATOM     21  O   UNL     1     113.131 129.482 138.902  0.00  0.00    +0.000 OA
ATOM     22  O   UNL     1     111.247 131.616 138.652  0.00  0.00    +0.000 OA
ATOM     23  C   UNL     1     112.189 130.549 138.777  0.00  0.00    +0.000 C 
ATOM     24  C   UNL     1     112.645 129.954 138.431  0.00  0.00    +0.000 C 
ATOM     25  C   UNL     1     111.703 131.021 138.306  0.00  0.00    +0.000 C 
ATOM     26  C   UNL     1     111.673 130.899 137.491  0.00  0.00    +0.000 C 
ATOM     27  C   UNL     1     112.615 129.832 137.616  0.00  0.00    +0.000 C 
BRANCH  26  30
ATOM     28  O   UNL     1     111.410 132.146 136.844  0.00  0.00    +0.000 OA
ATOM     29  O   UNL     1     110.477 131.070 136.729  0.00  0.00    +0.000 OA
ATOM     30  C   UNL     1     111.187 131.372 137.022  0.00  0.00    +0.000 C 
ENDBRANCH  26  30
ENDBRANCH  18  27
ENDBRANCH   2  18
TORSDOF 7
ENDMDL
MODEL 3
REMARK VINA RESULT:      -8.4      2.048      3.787
REMARK  Name = 131838965
REMARK  7 active torsions:
REMARK  status: ('A' for Active; 'I' for Inactive)
REMARK    1  A    between atoms: O_2  and  C_14
REMARK    2  A    between atoms: O_2  and  C_16
REMARK    3  A    between atoms: C_13  and  C_15
REMARK    4  A    between atoms: C_17  and  C_19
REMARK    5  A    between atoms: C_19  and  C_20
REMARK    6  A    between atoms: C_20  and  C_22
REMARK    7  A    between atoms: C_22  and  C_25
REMARK                            x       y       z     vdW  Elec       q    Type
REMARK                         _______ _______ _______ _____ _____    ______ ____
ROOT
ATOM      1  O   UNL     1     115.184 129.877 134.912  0.00  0.00    +0.000 OA
ATOM      2  C   UNL     1     113.385 129.415 136.547  0.00  0.00    +0.000 A 
ATOM      3  C   UNL     1     113.654 128.815 136.049  0.00  0.00    +0.000 A 
ATOM      4  C   UNL     1     113.716 130.169 136.500  0.00  0.00    +0.000 A 
ATOM      5  C   UNL     1     114.254 128.969 135.503  0.00  0.00    +0.000 A 
ATOM      6  C   UNL     1     114.316 130.323 135.954  0.00  0.00    +0.000 A 
ATOM      7  C   UNL     1     114.584 129.723 135.457  0.00  0.00    +0.000 A 
ENDROOT
BRANCH   3   9
ATOM      8  O   UNL     1     112.572 127.919 135.785  0.00  0.00    +0.000 OA
ATOM      9  C   UNL     1     113.322 128.061 136.096  0.00  0.00    +0.000 C 
BRANCH   9  10
ATOM     10  C   UNL     1     113.743 127.448 136.456  0.00  0.00    +0.000 C 
BRANCH  10  11
ATOM     11  C   UNL     1     113.462 126.673 136.411  0.00  0.00    +0.000 C 
BRANCH  11  12
ATOM     12  C   UNL     1     113.886 126.061 136.764  0.00  0.00    +0.000 A 
ATOM     13  C   UNL     1     113.816 125.923 137.574  0.00  0.00    +0.000 A 
ATOM     14  C   UNL     1     114.380 125.584 136.306  0.00  0.00    +0.000 A 
ATOM     15  C   UNL     1     114.240 125.310 137.927  0.00  0.00    +0.000 A 
ATOM     16  C   UNL     1     114.804 124.970 136.659  0.00  0.00    +0.000 A 
ATOM     17  C   UNL     1     114.734 124.834 137.470  0.00  0.00    +0.000 A 
ENDBRANCH  11  12
ENDBRANCH  10  11
ENDBRANCH   9  10
ENDBRANCH   3   9
BRANCH   2  18
ATOM     18  O   UNL     1     112.785 129.262 137.092  0.00  0.00    +0.000 OA
BRANCH  18  27
ATOM     19  O   UNL     1     113.408 129.599 138.333  0.00  0.00    +0.000 OA
ATOM     20  O   UNL     1     111.451 130.988 138.938  0.00  0.00    +0.000 OA
ATOM     21  O   UNL     1     111.480 130.187 137.496  0.00  0.00    +0.000 OA
ATOM     22  O   UNL     1     112.727 130.863 139.976  0.00  0.00    +0.000 OA
ATOM     23  C   UNL     1     112.104 130.525 138.737  0.00  0.00    +0.000 C 
ATOM     24  C   UNL     1     112.118 130.124 138.015  0.00  0.00    +0.000 C 
ATOM     25  C   UNL     1     112.742 130.462 139.255  0.00  0.00    +0.000 C 
ATOM     26  C   UNL     1     113.394 129.999 139.054  0.00  0.00    +0.000 C 
ATOM     27  C   UNL     1     112.771 129.661 137.813  0.00  0.00    +0.000 C 
BRANCH  26  30
ATOM     28  O   UNL     1     114.590 130.542 139.616  0.00  0.00    +0.000 OA
ATOM     29  O   UNL     1     114.111 129.268 140.049  0.00  0.00    +0.000 OA
ATOM     30  C   UNL     1     114.031 129.937 139.573  0.00  0.00    +0.000 C 
ENDBRANCH  26  30
ENDBRANCH  18  27
ENDBRANCH   2  18
TORSDOF 7
ENDMDL
MODEL 4
REMARK VINA RESULT:      -8.4     11.056     13.993
REMARK  Name = 131838965
REMARK  7 active torsions:
REMARK  status: ('A' for Active; 'I' for Inactive)
REMARK    1  A    between atoms: O_2  and  C_14
REMARK    2  A    between atoms: O_2  and  C_16
REMARK    3  A    between atoms: C_13  and  C_15
REMARK    4  A    between atoms: C_17  and  C_19
REMARK    5  A    between atoms: C_19  and  C_20
REMARK    6  A    between atoms: C_20  and  C_22
REMARK    7  A    between atoms: C_22  and  C_25
REMARK                            x       y       z     vdW  Elec       q    Type
REMARK                         _______ _______ _______ _____ _____    ______ ____
ROOT
ATOM      1  O   UNL     1     103.264 127.841 148.302  0.00  0.00    +0.000 OA
ATOM      2  C   UNL     1     104.638 125.786 148.427  0.00  0.00    +0.000 A 
ATOM      3  C   UNL     1     103.816 125.731 148.379  0.00  0.00    +0.000 A 
ATOM      4  C   UNL     1     105.001 126.527 148.433  0.00  0.00    +0.000 A 
ATOM      5  C   UNL     1     103.358 126.416 148.337  0.00  0.00    +0.000 A 
ATOM      6  C   UNL     1     104.543 127.212 148.391  0.00  0.00    +0.000 A 
ATOM      7  C   UNL     1     103.722 127.156 148.344  0.00  0.00    +0.000 A 
ENDROOT
BRANCH   3   9
ATOM      8  O   UNL     1     103.416 124.542 149.064  0.00  0.00    +0.000 OA
ATOM      9  C   UNL     1     103.453 124.990 148.372  0.00  0.00    +0.000 C 
BRANCH   9  10
ATOM     10  C   UNL     1     103.127 124.697 147.673  0.00  0.00    +0.000 C 
BRANCH  10  11
ATOM     11  C   UNL     1     102.647 124.026 147.690  0.00  0.00    +0.000 C 
BRANCH  11  12
ATOM     12  C   UNL     1     102.316 123.737 146.992  0.00  0.00    +0.000 A 
ATOM     13  C   UNL     1     102.756 123.241 146.501  0.00  0.00    +0.000 A 
ATOM     14  C   UNL     1     101.545 123.945 146.785  0.00  0.00    +0.000 A 
ATOM     15  C   UNL     1     102.425 122.952 145.803  0.00  0.00    +0.000 A 
ATOM     16  C   UNL     1     101.214 123.656 146.086  0.00  0.00    +0.000 A 
ATOM     17  C   UNL     1     101.654 123.160 145.596  0.00  0.00    +0.000 A 
ENDBRANCH  11  12
ENDBRANCH  10  11
ENDBRANCH   9  10
ENDBRANCH   3   9
BRANCH   2  18
ATOM     18  O   UNL     1     105.096 125.102 148.468  0.00  0.00    +0.000 OA
BRANCH  18  27
ATOM     19  O   UNL     1     105.944 125.222 147.324  0.00  0.00    +0.000 OA
ATOM     20  O   UNL     1     107.923 124.784 148.744  0.00  0.00    +0.000 OA
ATOM     21  O   UNL     1     106.416 124.809 149.415  0.00  0.00    +0.000 OA
ATOM     22  O   UNL     1     108.111 125.050 147.127  0.00  0.00    +0.000 OA
ATOM     23  C   UNL     1     107.264 124.930 148.271  0.00  0.00    +0.000 C 
ATOM     24  C   UNL     1     106.509 124.943 148.606  0.00  0.00    +0.000 C 
ATOM     25  C   UNL     1     107.357 125.063 147.462  0.00  0.00    +0.000 C 
ATOM     26  C   UNL     1     106.697 125.209 146.989  0.00  0.00    +0.000 C 
ATOM     27  C   UNL     1     105.849 125.089 148.133  0.00  0.00    +0.000 C 
BRANCH  26  30
ATOM     28  O   UNL     1     106.646 124.734 145.642  0.00  0.00    +0.000 OA
ATOM     29  O   UNL     1     107.031 126.083 145.910  0.00  0.00    +0.000 OA
ATOM     30  C   UNL     1     106.791 125.342 146.181  0.00  0.00    +0.000 C 
ENDBRANCH  26  30
ENDBRANCH  18  27
ENDBRANCH   2  18
TORSDOF 7
ENDMDL
MODEL 5
REMARK VINA RESULT:      -8.4      1.731      2.662
REMARK  Name = 131838965
REMARK  7 active torsions:
REMARK  status: ('A' for Active; 'I' for Inactive)
REMARK    1  A    between atoms: O_2  and  C_14
REMARK    2  A    between atoms: O_2  and  C_16
REMARK    3  A    between atoms: C_13  and  C_15
REMARK    4  A    between atoms: C_17  and  C_19
REMARK    5  A    between atoms: C_19  and  C_20
REMARK    6  A    between atoms: C_20  and  C_22
REMARK    7  A    between atoms: C_22  and  C_25
REMARK                            x       y       z     vdW  Elec       q    Type
REMARK                         _______ _______ _______ _____ _____    ______ ____
ROOT
ATOM      1  O   UNL     1     114.961 125.034 136.661  0.00  0.00    +0.000 OA
ATOM      2  C   UNL     1     113.250 126.244 137.977  0.00  0.00    +0.000 A 
ATOM      3  C   UNL     1     113.277 126.330 137.156  0.00  0.00    +0.000 A 
ATOM      4  C   UNL     1     113.794 125.755 138.358  0.00  0.00    +0.000 A 
ATOM      5  C   UNL     1     113.847 125.926 136.718  0.00  0.00    +0.000 A 
ATOM      6  C   UNL     1     114.365 125.352 137.919  0.00  0.00    +0.000 A 
ATOM      7  C   UNL     1     114.391 125.437 137.100  0.00  0.00    +0.000 A 
ENDROOT
BRANCH   3   9
ATOM      8  O   UNL     1     112.857 127.634 136.750  0.00  0.00    +0.000 OA
ATOM      9  C   UNL     1     112.733 126.819 136.775  0.00  0.00    +0.000 C 
BRANCH   9  10
ATOM     10  C   UNL     1     112.063 126.492 136.419  0.00  0.00    +0.000 C 
BRANCH  10  11
ATOM     11  C   UNL     1     111.601 126.950 135.912  0.00  0.00    +0.000 C 
BRANCH  11  12
ATOM     12  C   UNL     1     110.900 126.643 135.604  0.00  0.00    +0.000 A 
ATOM     13  C   UNL     1     110.917 126.182 134.920  0.00  0.00    +0.000 A 
ATOM     14  C   UNL     1     110.182 126.798 135.979  0.00  0.00    +0.000 A 
ATOM     15  C   UNL     1     110.216 125.875 134.612  0.00  0.00    +0.000 A 
ATOM     16  C   UNL     1     109.480 126.491 135.671  0.00  0.00    +0.000 A 
ATOM     17  C   UNL     1     109.498 126.029 134.988  0.00  0.00    +0.000 A 
ENDBRANCH  11  12
ENDBRANCH  10  11
ENDBRANCH   9  10
ENDBRANCH   3   9
BRANCH   2  18
ATOM     18  O   UNL     1     112.680 126.648 138.415  0.00  0.00    +0.000 OA
BRANCH  18  27
ATOM     19  O   UNL     1     113.448 127.170 139.501  0.00  0.00    +0.000 OA
ATOM     20  O   UNL     1     111.784 126.286 141.105  0.00  0.00    +0.000 OA
ATOM     21  O   UNL     1     111.570 126.058 139.485  0.00  0.00    +0.000 OA
ATOM     22  O   UNL     1     113.106 127.103 141.655  0.00  0.00    +0.000 OA
ATOM     23  C   UNL     1     112.338 126.581 140.570  0.00  0.00    +0.000 C 
ATOM     24  C   UNL     1     112.232 126.467 139.760  0.00  0.00    +0.000 C 
ATOM     25  C   UNL     1     113.000 126.989 140.845  0.00  0.00    +0.000 C 
ATOM     26  C   UNL     1     113.555 127.284 140.311  0.00  0.00    +0.000 C 
ATOM     27  C   UNL     1     112.787 126.762 139.225  0.00  0.00    +0.000 C 
BRANCH  26  30
ATOM     28  O   UNL     1     114.237 128.517 140.552  0.00  0.00    +0.000 OA
ATOM     29  O   UNL     1     114.858 127.277 140.896  0.00  0.00    +0.000 OA
ATOM     30  C   UNL     1     114.216 127.692 140.586  0.00  0.00    +0.000 C 
ENDBRANCH  26  30
ENDBRANCH  18  27
ENDBRANCH   2  18
TORSDOF 7
ENDMDL
MODEL 6
REMARK VINA RESULT:      -8.2      2.008      3.854
REMARK  Name = 131838965
REMARK  7 active torsions:
REMARK  status: ('A' for Active; 'I' for Inactive)
REMARK    1  A    between atoms: O_2  and  C_14
REMARK    2  A    between atoms: O_2  and  C_16
REMARK    3  A    between atoms: C_13  and  C_15
REMARK    4  A    between atoms: C_17  and  C_19
REMARK    5  A    between atoms: C_19  and  C_20
REMARK    6  A    between atoms: C_20  and  C_22
REMARK    7  A    between atoms: C_22  and  C_25
REMARK                            x       y       z     vdW  Elec       q    Type
REMARK                         _______ _______ _______ _____ _____    ______ ____
ROOT
ATOM      1  O   UNL     1     114.918 127.048 141.354  0.00  0.00    +0.000 OA
ATOM      2  C   UNL     1     113.138 127.782 139.799  0.00  0.00    +0.000 A 
ATOM      3  C   UNL     1     113.462 127.025 139.728  0.00  0.00    +0.000 A 
ATOM      4  C   UNL     1     113.409 128.292 140.387  0.00  0.00    +0.000 A 
ATOM      5  C   UNL     1     114.055 126.781 140.247  0.00  0.00    +0.000 A 
ATOM      6  C   UNL     1     114.002 128.047 140.906  0.00  0.00    +0.000 A 
ATOM      7  C   UNL     1     114.325 127.292 140.835  0.00  0.00    +0.000 A 
ENDROOT
BRANCH   3   9
ATOM      8  O   UNL     1     112.443 126.172 139.201  0.00  0.00    +0.000 OA
ATOM      9  C   UNL     1     113.192 126.515 139.140  0.00  0.00    +0.000 C 
BRANCH   9  10
ATOM     10  C   UNL     1     113.670 126.346 138.488  0.00  0.00    +0.000 C 
BRANCH  10  11
ATOM     11  C   UNL     1     113.479 125.720 137.986  0.00  0.00    +0.000 C 
BRANCH  11  12
ATOM     12  C   UNL     1     113.986 125.518 137.369  0.00  0.00    +0.000 A 
ATOM     13  C   UNL     1     114.040 126.002 136.703  0.00  0.00    +0.000 A 
ATOM     14  C   UNL     1     114.440 124.830 137.416  0.00  0.00    +0.000 A 
ATOM     15  C   UNL     1     114.547 125.799 136.085  0.00  0.00    +0.000 A 
ATOM     16  C   UNL     1     114.947 124.627 136.798  0.00  0.00    +0.000 A 
ATOM     17  C   UNL     1     115.001 125.112 136.133  0.00  0.00    +0.000 A 
ENDBRANCH  11  12
ENDBRANCH  10  11
ENDBRANCH   9  10
ENDBRANCH   3   9
BRANCH   2  18
ATOM     18  O   UNL     1     112.545 128.026 139.280  0.00  0.00    +0.000 OA
BRANCH  18  27
ATOM     19  O   UNL     1     113.141 129.182 138.688  0.00  0.00    +0.000 OA
ATOM     20  O   UNL     1     111.065 130.464 139.098  0.00  0.00    +0.000 OA
ATOM     21  O   UNL     1     111.160 128.881 139.554  0.00  0.00    +0.000 OA
ATOM     22  O   UNL     1     112.353 131.191 138.369  0.00  0.00    +0.000 OA
ATOM     23  C   UNL     1     111.757 130.037 138.961  0.00  0.00    +0.000 C 
ATOM     24  C   UNL     1     111.805 129.244 139.189  0.00  0.00    +0.000 C 
ATOM     25  C   UNL     1     112.401 130.400 138.597  0.00  0.00    +0.000 C 
ATOM     26  C   UNL     1     113.094 129.973 138.460  0.00  0.00    +0.000 C 
ATOM     27  C   UNL     1     112.497 128.817 139.052  0.00  0.00    +0.000 C 
BRANCH  26  30
ATOM     28  O   UNL     1     114.245 130.815 138.536  0.00  0.00    +0.000 OA
ATOM     29  O   UNL     1     113.874 130.222 137.290  0.00  0.00    +0.000 OA
ATOM     30  C   UNL     1     113.737 130.337 138.095  0.00  0.00    +0.000 C 
ENDBRANCH  26  30
ENDBRANCH  18  27
ENDBRANCH   2  18
TORSDOF 7
ENDMDL
MODEL 7
REMARK VINA RESULT:      -8.2      3.182      4.821
REMARK  Name = 131838965
REMARK  7 active torsions:
REMARK  status: ('A' for Active; 'I' for Inactive)
REMARK    1  A    between atoms: O_2  and  C_14
REMARK    2  A    between atoms: O_2  and  C_16
REMARK    3  A    between atoms: C_13  and  C_15
REMARK    4  A    between atoms: C_17  and  C_19
REMARK    5  A    between atoms: C_19  and  C_20
REMARK    6  A    between atoms: C_20  and  C_22
REMARK    7  A    between atoms: C_22  and  C_25
REMARK                            x       y       z     vdW  Elec       q    Type
REMARK                         _______ _______ _______ _____ _____    ______ ____
ROOT
ATOM      1  O   UNL     1     109.841 125.512 134.613  0.00  0.00    +0.000 OA
ATOM      2  C   UNL     1     110.480 127.245 136.261  0.00  0.00    +0.000 A 
ATOM      3  C   UNL     1     111.063 126.852 135.828  0.00  0.00    +0.000 A 
ATOM      4  C   UNL     1     109.685 127.059 136.145  0.00  0.00    +0.000 A 
ATOM      5  C   UNL     1     110.850 126.274 135.278  0.00  0.00    +0.000 A 
ATOM      6  C   UNL     1     109.472 126.482 135.595  0.00  0.00    +0.000 A 
ATOM      7  C   UNL     1     110.054 126.090 135.163  0.00  0.00    +0.000 A 
ENDROOT
BRANCH   3   9
ATOM      8  O   UNL     1     112.174 127.725 135.617  0.00  0.00    +0.000 OA
ATOM      9  C   UNL     1     111.858 127.037 135.944  0.00  0.00    +0.000 C 
BRANCH   9  10
ATOM     10  C   UNL     1     112.338 126.533 136.389  0.00  0.00    +0.000 C 
BRANCH  10  11
ATOM     11  C   UNL     1     113.155 126.646 136.402  0.00  0.00    +0.000 C 
BRANCH  11  12
ATOM     12  C   UNL     1     113.639 126.109 136.798  0.00  0.00    +0.000 A 
ATOM     13  C   UNL     1     114.118 125.591 136.370  0.00  0.00    +0.000 A 
ATOM     14  C   UNL     1     113.646 126.089 137.622  0.00  0.00    +0.000 A 
ATOM     15  C   UNL     1     114.602 125.053 136.765  0.00  0.00    +0.000 A 
ATOM     16  C   UNL     1     114.130 125.551 138.019  0.00  0.00    +0.000 A 
ATOM     17  C   UNL     1     114.608 125.034 137.590  0.00  0.00    +0.000 A 
ENDBRANCH  11  12
ENDBRANCH  10  11
ENDBRANCH   9  10
ENDBRANCH   3   9
BRANCH   2  18
ATOM     18  O   UNL     1     110.694 127.822 136.811  0.00  0.00    +0.000 OA
BRANCH  18  27
ATOM     19  O   UNL     1     109.857 128.901 136.389  0.00  0.00    +0.000 OA
ATOM     20  O   UNL     1     109.220 129.327 138.742  0.00  0.00    +0.000 OA
ATOM     21  O   UNL     1     110.269 128.106 138.380  0.00  0.00    +0.000 OA
ATOM     22  O   UNL     1     108.596 130.263 137.536  0.00  0.00    +0.000 OA
ATOM     23  C   UNL     1     109.433 129.185 137.958  0.00  0.00    +0.000 C 
ATOM     24  C   UNL     1     109.957 128.574 137.776  0.00  0.00    +0.000 C 
ATOM     25  C   UNL     1     109.121 129.653 137.354  0.00  0.00    +0.000 C 
ATOM     26  C   UNL     1     109.333 129.511 136.570  0.00  0.00    +0.000 C 
ATOM     27  C   UNL     1     110.170 128.432 136.992  0.00  0.00    +0.000 C 
BRANCH  26  30
ATOM     28  O   UNL     1     108.255 129.842 135.692  0.00  0.00    +0.000 OA
ATOM     29  O   UNL     1     109.474 130.585 135.639  0.00  0.00    +0.000 OA
ATOM     30  C   UNL     1     109.021 129.979 135.967  0.00  0.00    +0.000 C 
ENDBRANCH  26  30
ENDBRANCH  18  27
ENDBRANCH   2  18
TORSDOF 7
ENDMDL
MODEL 8
REMARK VINA RESULT:      -8.2      3.043      4.281
REMARK  Name = 131838965
REMARK  7 active torsions:
REMARK  status: ('A' for Active; 'I' for Inactive)
REMARK    1  A    between atoms: O_2  and  C_14
REMARK    2  A    between atoms: O_2  and  C_16
REMARK    3  A    between atoms: C_13  and  C_15
REMARK    4  A    between atoms: C_17  and  C_19
REMARK    5  A    between atoms: C_19  and  C_20
REMARK    6  A    between atoms: C_20  and  C_22
REMARK    7  A    between atoms: C_22  and  C_25
REMARK                            x       y       z     vdW  Elec       q    Type
REMARK                         _______ _______ _______ _____ _____    ______ ____
ROOT
ATOM      1  O   UNL     1     109.528 126.409 136.134  0.00  0.00    +0.000 OA
ATOM      2  C   UNL     1     110.625 125.986 138.312  0.00  0.00    +0.000 A 
ATOM      3  C   UNL     1     110.852 125.556 137.644  0.00  0.00    +0.000 A 
ATOM      4  C   UNL     1     110.032 126.556 138.252  0.00  0.00    +0.000 A 
ATOM      5  C   UNL     1     110.486 125.697 136.918  0.00  0.00    +0.000 A 
ATOM      6  C   UNL     1     109.666 126.697 137.526  0.00  0.00    +0.000 A 
ATOM      7  C   UNL     1     109.894 126.268 136.860  0.00  0.00    +0.000 A 
ENDROOT
BRANCH   3   9
ATOM      8  O   UNL     1     111.268 124.236 138.000  0.00  0.00    +0.000 OA
ATOM      9  C   UNL     1     111.445 124.985 137.704  0.00  0.00    +0.000 C 
BRANCH   9  10
ATOM     10  C   UNL     1     112.215 125.165 137.468  0.00  0.00    +0.000 C 
BRANCH  10  11
ATOM     11  C   UNL     1     112.752 124.558 137.315  0.00  0.00    +0.000 C 
BRANCH  11  12
ATOM     12  C   UNL     1     113.526 124.738 137.096  0.00  0.00    +0.000 A 
ATOM     13  C   UNL     1     113.734 124.769 136.298  0.00  0.00    +0.000 A 
ATOM     14  C   UNL     1     114.094 124.888 137.675  0.00  0.00    +0.000 A 
ATOM     15  C   UNL     1     114.508 124.950 136.079  0.00  0.00    +0.000 A 
ATOM     16  C   UNL     1     114.870 125.068 137.456  0.00  0.00    +0.000 A 
ATOM     17  C   UNL     1     115.076 125.099 136.658  0.00  0.00    +0.000 A 
ENDBRANCH  11  12
ENDBRANCH  10  11
ENDBRANCH   9  10
ENDBRANCH   3   9
BRANCH   2  18
ATOM     18  O   UNL     1     110.990 125.845 139.038  0.00  0.00    +0.000 OA
BRANCH  18  27
ATOM     19  O   UNL     1     109.873 125.608 139.897  0.00  0.00    +0.000 OA
ATOM     20  O   UNL     1     110.789 127.223 141.533  0.00  0.00    +0.000 OA
ATOM     21  O   UNL     1     111.601 126.921 140.129  0.00  0.00    +0.000 OA
ATOM     22  O   UNL     1     109.368 126.448 141.846  0.00  0.00    +0.000 OA
ATOM     23  C   UNL     1     110.484 126.684 140.988  0.00  0.00    +0.000 C 
ATOM     24  C   UNL     1     110.890 126.533 140.285  0.00  0.00    +0.000 C 
ATOM     25  C   UNL     1     109.773 126.296 141.144  0.00  0.00    +0.000 C 
ATOM     26  C   UNL     1     109.467 125.758 140.598  0.00  0.00    +0.000 C 
ATOM     27  C   UNL     1     110.585 125.995 139.739  0.00  0.00    +0.000 C 
BRANCH  26  30
ATOM     28  O   UNL     1     108.039 125.730 140.563  0.00  0.00    +0.000 OA
ATOM     29  O   UNL     1     108.763 124.624 141.104  0.00  0.00    +0.000 OA
ATOM     30  C   UNL     1     108.757 125.371 140.755  0.00  0.00    +0.000 C 
ENDBRANCH  26  30
ENDBRANCH  18  27
ENDBRANCH   2  18
TORSDOF 7
ENDMDL
MODEL 9
REMARK VINA RESULT:      -8.1      2.905      5.020
REMARK  Name = 131838965
REMARK  7 active torsions:
REMARK  status: ('A' for Active; 'I' for Inactive)
REMARK    1  A    between atoms: O_2  and  C_14
REMARK    2  A    between atoms: O_2  and  C_16
REMARK    3  A    between atoms: C_13  and  C_15
REMARK    4  A    between atoms: C_17  and  C_19
REMARK    5  A    between atoms: C_19  and  C_20
REMARK    6  A    between atoms: C_20  and  C_22
REMARK    7  A    between atoms: C_22  and  C_25
REMARK                            x       y       z     vdW  Elec       q    Type
REMARK                         _______ _______ _______ _____ _____    ______ ____
ROOT
ATOM      1  O   UNL     1     113.641 129.399 134.613  0.00  0.00    +0.000 OA
ATOM      2  C   UNL     1     111.712 128.327 135.735  0.00  0.00    +0.000 A 
ATOM      3  C   UNL     1     112.476 128.216 136.030  0.00  0.00    +0.000 A 
ATOM      4  C   UNL     1     111.593 128.795 135.066  0.00  0.00    +0.000 A 
ATOM      5  C   UNL     1     113.118 128.573 135.656  0.00  0.00    +0.000 A 
ATOM      6  C   UNL     1     112.236 129.152 134.692  0.00  0.00    +0.000 A 
ATOM      7  C   UNL     1     112.998 129.041 134.987  0.00  0.00    +0.000 A 
ENDROOT
BRANCH   3   9
ATOM      8  O   UNL     1     112.444 128.055 137.449  0.00  0.00    +0.000 OA
ATOM      9  C   UNL     1     112.595 127.748 136.698  0.00  0.00    +0.000 C 
BRANCH   9  10
ATOM     10  C   UNL     1     112.864 126.972 136.616  0.00  0.00    +0.000 C 
BRANCH  10  11
ATOM     11  C   UNL     1     113.100 126.544 137.280  0.00  0.00    +0.000 C 
BRANCH  11  12
ATOM     12  C   UNL     1     113.398 125.780 137.194  0.00  0.00    +0.000 A 
ATOM     13  C   UNL     1     112.901 125.167 136.956  0.00  0.00    +0.000 A 
ATOM     14  C   UNL     1     114.195 125.629 137.346  0.00  0.00    +0.000 A 
ATOM     15  C   UNL     1     113.199 124.403 136.870  0.00  0.00    +0.000 A 
ATOM     16  C   UNL     1     114.494 124.865 137.260  0.00  0.00    +0.000 A 
ATOM     17  C   UNL     1     113.996 124.252 137.022  0.00  0.00    +0.000 A 
ENDBRANCH  11  12
ENDBRANCH  10  11
ENDBRANCH   9  10
ENDBRANCH   3   9
BRANCH   2  18
ATOM     18  O   UNL     1     111.070 127.970 136.109  0.00  0.00    +0.000 OA
BRANCH  18  27
ATOM     19  O   UNL     1     110.230 129.101 136.347  0.00  0.00    +0.000 OA
ATOM     20  O   UNL     1     108.288 127.845 135.465  0.00  0.00    +0.000 OA
ATOM     21  O   UNL     1     109.775 127.133 135.521  0.00  0.00    +0.000 OA
ATOM     22  O   UNL     1     108.096 129.394 135.998  0.00  0.00    +0.000 OA
ATOM     23  C   UNL     1     108.935 128.264 135.759  0.00  0.00    +0.000 C 
ATOM     24  C   UNL     1     109.679 127.907 135.787  0.00  0.00    +0.000 C 
ATOM     25  C   UNL     1     108.839 129.039 136.026  0.00  0.00    +0.000 C 
ATOM     26  C   UNL     1     109.487 129.457 136.320  0.00  0.00    +0.000 C 
ATOM     27  C   UNL     1     110.327 128.326 136.081  0.00  0.00    +0.000 C 
BRANCH  26  30
ATOM     28  O   UNL     1     109.314 130.385 137.393  0.00  0.00    +0.000 OA
ATOM     29  O   UNL     1     109.370 130.854 136.044  0.00  0.00    +0.000 OA
ATOM     30  C   UNL     1     109.390 130.231 136.585  0.00  0.00    +0.000 C 
ENDBRANCH  26  30
ENDBRANCH  18  27
ENDBRANCH   2  18
TORSDOF 7
ENDMDL
MODEL 10
REMARK VINA RESULT:      -8.0     10.545     12.703
REMARK  Name = 131838965
REMARK  7 active torsions:
REMARK  status: ('A' for Active; 'I' for Inactive)
REMARK    1  A    between atoms: O_2  and  C_14
REMARK    2  A    between atoms: O_2  and  C_16
REMARK    3  A    between atoms: C_13  and  C_15
REMARK    4  A    between atoms: C_17  and  C_19
REMARK    5  A    between atoms: C_19  and  C_20
REMARK    6  A    between atoms: C_20  and  C_22
REMARK    7  A    between atoms: C_22  and  C_25
REMARK                            x       y       z     vdW  Elec       q    Type
REMARK                         _______ _______ _______ _____ _____    ______ ____
ROOT
ATOM      1  O   UNL     1     107.978 124.717 149.313  0.00  0.00    +0.000 OA
ATOM      2  C   UNL     1     106.187 124.812 147.608  0.00  0.00    +0.000 A 
ATOM      3  C   UNL     1     106.884 125.240 147.498  0.00  0.00    +0.000 A 
ATOM      4  C   UNL     1     106.087 124.353 148.286  0.00  0.00    +0.000 A 
ATOM      5  C   UNL     1     107.481 125.208 148.067  0.00  0.00    +0.000 A 
ATOM      6  C   UNL     1     106.684 124.321 148.854  0.00  0.00    +0.000 A 
ATOM      7  C   UNL     1     107.381 124.748 148.745  0.00  0.00    +0.000 A 
ENDROOT
BRANCH   3   9
ATOM      8  O   UNL     1     107.152 125.338 146.098  0.00  0.00    +0.000 OA
ATOM      9  C   UNL     1     106.984 125.699 146.820  0.00  0.00    +0.000 C 
BRANCH   9  10
ATOM     10  C   UNL     1     106.915 126.520 146.865  0.00  0.00    +0.000 C 
BRANCH  10  11
ATOM     11  C   UNL     1     107.012 126.980 146.187  0.00  0.00    +0.000 C 
BRANCH  11  12
ATOM     12  C   UNL     1     106.936 127.800 146.231  0.00  0.00    +0.000 A 
ATOM     13  C   UNL     1     106.214 128.138 146.442  0.00  0.00    +0.000 A 
ATOM     14  C   UNL     1     107.583 128.283 146.063  0.00  0.00    +0.000 A 
ATOM     15  C   UNL     1     106.138 128.957 146.486  0.00  0.00    +0.000 A 
ATOM     16  C   UNL     1     107.508 129.104 146.107  0.00  0.00    +0.000 A 
ATOM     17  C   UNL     1     106.785 129.441 146.318  0.00  0.00    +0.000 A 
ENDBRANCH  11  12
ENDBRANCH  10  11
ENDBRANCH   9  10
ENDBRANCH   3   9
BRANCH   2  18
ATOM     18  O   UNL     1     105.590 124.844 147.039  0.00  0.00    +0.000 OA
BRANCH  18  27
ATOM     19  O   UNL     1     104.485 125.308 147.817  0.00  0.00    +0.000 OA
ATOM     20  O   UNL     1     103.058 123.531 146.851  0.00  0.00    +0.000 OA
ATOM     21  O   UNL     1     104.639 123.659 146.396  0.00  0.00    +0.000 OA
ATOM     22  O   UNL     1     102.429 124.587 147.950  0.00  0.00    +0.000 OA
ATOM     23  C   UNL     1     103.534 124.123 147.173  0.00  0.00    +0.000 C 
ATOM     24  C   UNL     1     104.325 124.187 146.945  0.00  0.00    +0.000 C 
ATOM     25  C   UNL     1     103.219 124.652 147.723  0.00  0.00    +0.000 C 
ATOM     26  C   UNL     1     103.695 125.244 148.044  0.00  0.00    +0.000 C 
ATOM     27  C   UNL     1     104.800 124.780 147.267  0.00  0.00    +0.000 C 
BRANCH  26  30
ATOM     28  O   UNL     1     103.152 126.529 148.356  0.00  0.00    +0.000 OA
ATOM     29  O   UNL     1     103.293 125.544 149.382  0.00  0.00    +0.000 OA
ATOM     30  C   UNL     1     103.380 125.772 148.594  0.00  0.00    +0.000 C 
ENDBRANCH  26  30
ENDBRANCH  18  27
ENDBRANCH   2  18
TORSDOF 7
ENDMDL
