MODEL 1
REMARK VINA RESULT:     -10.4      0.000      0.000
REMARK  Name = 59010767
REMARK  3 active torsions:
REMARK  status: ('A' for Active; 'I' for Inactive)
REMARK    1  A    between atoms: C_12  and  C_17
REMARK    2  A    between atoms: C_16  and  C_22
REMARK    3  A    between atoms: C_23  and  C_27
REMARK                            x       y       z     vdW  Elec       q    Type
REMARK                         _______ _______ _______ _____ _____    ______ ____
ROOT
ATOM      1  O   UNL     1     104.281 124.974 139.402  0.00  0.00    +0.000 OA
ATOM      2  O   UNL     1     106.095 124.475 141.600  0.00  0.00    +0.000 OA
ATOM      3  O   UNL     1     104.788 122.794 139.458  0.00  0.00    +0.000 OA
ATOM      4  O   UNL     1     105.149 127.127 141.109  0.00  0.00    +0.000 OA
ATOM      5  C   UNL     1     105.623 125.801 141.355  0.00  0.00    +0.000 A 
ATOM      6  C   UNL     1     105.200 124.724 140.516  0.00  0.00    +0.000 A 
ATOM      7  C   UNL     1     105.639 125.000 141.157  0.00  0.00    +0.000 A 
ATOM      8  C   UNL     1     105.225 123.888 140.320  0.00  0.00    +0.000 C 
ATOM      9  C   UNL     1     104.769 123.595 139.653  0.00  0.00    +0.000 C 
ATOM     10  C   UNL     1     104.294 124.142 139.192  0.00  0.00    +0.000 C 
ATOM     11  C   UNL     1     104.743 125.249 140.073  0.00  0.00    +0.000 A 
ATOM     12  C   UNL     1     105.166 126.326 140.912  0.00  0.00    +0.000 A 
ATOM     13  C   UNL     1     104.726 126.050 140.270  0.00  0.00    +0.000 A 
ENDROOT
BRANCH   5  18
ATOM     14  O   UNL     1     105.724 126.105 142.748  0.00  0.00    +0.000 OA
ATOM     15  O   UNL     1     107.181 126.297 141.134  0.00  0.00    +0.000 OA
ATOM     16  O   UNL     1     108.061 126.849 142.417  0.00  0.00    +0.000 OA
ATOM     17  O   UNL     1     107.382 126.904 143.919  0.00  0.00    +0.000 OA
ATOM     18  C   UNL     1     106.062 126.077 141.996  0.00  0.00    +0.000 C 
ATOM     19  C   UNL     1     106.841 126.324 141.885  0.00  0.00    +0.000 C 
ATOM     20  C   UNL     1     107.282 126.601 142.527  0.00  0.00    +0.000 C 
ATOM     21  C   UNL     1     106.942 126.628 143.278  0.00  0.00    +0.000 C 
ATOM     22  C   UNL     1     106.163 126.381 143.389  0.00  0.00    +0.000 C 
BRANCH  22  24
ATOM     23  O   UNL     1     105.225 125.879 144.343  0.00  0.00    +0.000 OA
ATOM     24  C   UNL     1     105.824 126.409 144.140  0.00  0.00    +0.000 C 
ENDBRANCH  22  24
ENDBRANCH   5  18
BRANCH  10  27
ATOM     25  O   UNL     1     101.771 123.473 138.025  0.00  0.00    +0.000 OA
ATOM     26  O   UNL     1     102.531 123.052 136.623  0.00  0.00    +0.000 OA
ATOM     27  C   UNL     1     103.853 123.869 138.549  0.00  0.00    +0.000 A 
ATOM     28  C   UNL     1     103.032 123.807 138.609  0.00  0.00    +0.000 A 
ATOM     29  C   UNL     1     104.233 123.659 137.848  0.00  0.00    +0.000 A 
ATOM     30  C   UNL     1     102.592 123.535 137.966  0.00  0.00    +0.000 A 
ATOM     31  C   UNL     1     103.792 123.387 137.206  0.00  0.00    +0.000 A 
ATOM     32  C   UNL     1     102.972 123.325 137.265  0.00  0.00    +0.000 A 
ENDBRANCH  10  27
TORSDOF 3
ENDMDL
MODEL 2
REMARK VINA RESULT:      -9.5      4.225      6.128
REMARK  Name = 59010767
REMARK  3 active torsions:
REMARK  status: ('A' for Active; 'I' for Inactive)
REMARK    1  A    between atoms: C_12  and  C_17
REMARK    2  A    between atoms: C_16  and  C_22
REMARK    3  A    between atoms: C_23  and  C_27
REMARK                            x       y       z     vdW  Elec       q    Type
REMARK                         _______ _______ _______ _____ _____    ______ ____
ROOT
ATOM      1  O   UNL     1     106.242 127.243 144.813  0.00  0.00    +0.000 OA
ATOM      2  O   UNL     1     106.359 124.679 146.148  0.00  0.00    +0.000 OA
ATOM      3  O   UNL     1     105.763 125.625 143.341  0.00  0.00    +0.000 OA
ATOM      4  O   UNL     1     106.897 127.073 147.613  0.00  0.00    +0.000 OA
ATOM      5  C   UNL     1     106.628 125.875 146.881  0.00  0.00    +0.000 A 
ATOM      6  C   UNL     1     106.302 125.946 145.492  0.00  0.00    +0.000 A 
ATOM      7  C   UNL     1     106.430 125.500 146.173  0.00  0.00    +0.000 A 
ATOM      8  C   UNL     1     106.096 125.543 144.761  0.00  0.00    +0.000 C 
ATOM      9  C   UNL     1     105.962 126.003 144.047  0.00  0.00    +0.000 C 
ATOM     10  C   UNL     1     106.035 126.858 144.074  0.00  0.00    +0.000 C 
ATOM     11  C   UNL     1     106.373 126.768 145.517  0.00  0.00    +0.000 A 
ATOM     12  C   UNL     1     106.699 126.697 146.906  0.00  0.00    +0.000 A 
ATOM     13  C   UNL     1     106.571 127.144 146.224  0.00  0.00    +0.000 A 
ENDROOT
BRANCH   5  18
ATOM     14  O   UNL     1     106.118 125.207 148.037  0.00  0.00    +0.000 OA
ATOM     15  O   UNL     1     108.161 125.428 147.299  0.00  0.00    +0.000 OA
ATOM     16  O   UNL     1     108.416 124.536 148.663  0.00  0.00    +0.000 OA
ATOM     17  O   UNL     1     107.140 124.092 149.609  0.00  0.00    +0.000 OA
ATOM     18  C   UNL     1     106.756 125.430 147.563  0.00  0.00    +0.000 C 
ATOM     19  C   UNL     1     107.522 125.206 147.772  0.00  0.00    +0.000 C 
ATOM     20  C   UNL     1     107.650 124.759 148.454  0.00  0.00    +0.000 C 
ATOM     21  C   UNL     1     107.012 124.538 148.927  0.00  0.00    +0.000 C 
ATOM     22  C   UNL     1     106.246 124.761 148.718  0.00  0.00    +0.000 C 
BRANCH  22  24
ATOM     23  O   UNL     1     104.872 124.898 149.088  0.00  0.00    +0.000 OA
ATOM     24  C   UNL     1     105.608 124.539 149.191  0.00  0.00    +0.000 C 
ENDBRANCH  22  24
ENDBRANCH   5  18
BRANCH  10  27
ATOM     25  O   UNL     1     107.029 128.058 141.676  0.00  0.00    +0.000 OA
ATOM     26  O   UNL     1     105.526 128.656 141.353  0.00  0.00    +0.000 OA
ATOM     27  C   UNL     1     105.908 127.308 143.393  0.00  0.00    +0.000 A 
ATOM     28  C   UNL     1     106.532 127.458 142.875  0.00  0.00    +0.000 A 
ATOM     29  C   UNL     1     105.157 127.607 143.231  0.00  0.00    +0.000 A 
ATOM     30  C   UNL     1     106.405 127.907 142.195  0.00  0.00    +0.000 A 
ATOM     31  C   UNL     1     105.029 128.056 142.551  0.00  0.00    +0.000 A 
ATOM     32  C   UNL     1     105.653 128.207 142.033  0.00  0.00    +0.000 A 
ENDBRANCH  10  27
TORSDOF 3
ENDMDL
MODEL 3
REMARK VINA RESULT:      -9.5      7.767     10.377
REMARK  Name = 59010767
REMARK  3 active torsions:
REMARK  status: ('A' for Active; 'I' for Inactive)
REMARK    1  A    between atoms: C_12  and  C_17
REMARK    2  A    between atoms: C_16  and  C_22
REMARK    3  A    between atoms: C_23  and  C_27
REMARK                            x       y       z     vdW  Elec       q    Type
REMARK                         _______ _______ _______ _____ _____    ______ ____
ROOT
ATOM      1  O   UNL     1     113.373 128.782 139.368  0.00  0.00    +0.000 OA
ATOM      2  O   UNL     1     113.574 125.899 139.220  0.00  0.00    +0.000 OA
ATOM      3  O   UNL     1     114.343 128.015 141.236  0.00  0.00    +0.000 OA
ATOM      4  O   UNL     1     112.399 127.358 137.061  0.00  0.00    +0.000 OA
ATOM      5  C   UNL     1     112.986 126.628 138.141  0.00  0.00    +0.000 A 
ATOM      6  C   UNL     1     113.473 127.322 139.291  0.00  0.00    +0.000 A 
ATOM      7  C   UNL     1     113.344 126.617 138.884  0.00  0.00    +0.000 A 
ATOM      8  C   UNL     1     113.847 127.297 140.064  0.00  0.00    +0.000 C 
ATOM      9  C   UNL     1     113.984 128.029 140.493  0.00  0.00    +0.000 C 
ATOM     10  C   UNL     1     113.746 128.776 140.142  0.00  0.00    +0.000 C 
ATOM     11  C   UNL     1     113.244 128.040 138.954  0.00  0.00    +0.000 A 
ATOM     12  C   UNL     1     112.757 127.345 137.804  0.00  0.00    +0.000 A 
ATOM     13  C   UNL     1     112.886 128.052 138.211  0.00  0.00    +0.000 A 
ENDROOT
BRANCH   5  18
ATOM     14  O   UNL     1     113.443 125.618 137.238  0.00  0.00    +0.000 OA
ATOM     15  O   UNL     1     111.557 125.823 138.319  0.00  0.00    +0.000 OA
ATOM     16  O   UNL     1     111.299 124.411 137.505  0.00  0.00    +0.000 OA
ATOM     17  O   UNL     1     112.469 123.804 136.514  0.00  0.00    +0.000 OA
ATOM     18  C   UNL     1     112.857 125.922 137.734  0.00  0.00    +0.000 C 
ATOM     19  C   UNL     1     112.143 125.520 137.823  0.00  0.00    +0.000 C 
ATOM     20  C   UNL     1     112.013 124.813 137.416  0.00  0.00    +0.000 C 
ATOM     21  C   UNL     1     112.599 124.510 136.920  0.00  0.00    +0.000 C 
ATOM     22  C   UNL     1     113.314 124.913 136.831  0.00  0.00    +0.000 C 
BRANCH  22  24
ATOM     23  O   UNL     1     114.588 125.042 136.197  0.00  0.00    +0.000 OA
ATOM     24  C   UNL     1     113.899 124.610 136.336  0.00  0.00    +0.000 C 
ENDBRANCH  22  24
ENDBRANCH   5  18
BRANCH  10  27
ATOM     25  O   UNL     1     115.370 131.069 140.671  0.00  0.00    +0.000 OA
ATOM     26  O   UNL     1     114.254 131.609 141.760  0.00  0.00    +0.000 OA
ATOM     27  C   UNL     1     113.873 129.485 140.547  0.00  0.00    +0.000 A 
ATOM     28  C   UNL     1     114.558 129.923 140.407  0.00  0.00    +0.000 A 
ATOM     29  C   UNL     1     113.315 129.755 141.091  0.00  0.00    +0.000 A 
ATOM     30  C   UNL     1     114.685 130.631 140.811  0.00  0.00    +0.000 A 
ATOM     31  C   UNL     1     113.441 130.462 141.495  0.00  0.00    +0.000 A 
ATOM     32  C   UNL     1     114.126 130.900 141.355  0.00  0.00    +0.000 A 
ENDBRANCH  10  27
TORSDOF 3
ENDMDL
MODEL 4
REMARK VINA RESULT:      -9.4      7.111      8.191
REMARK  Name = 59010767
REMARK  3 active torsions:
REMARK  status: ('A' for Active; 'I' for Inactive)
REMARK    1  A    between atoms: C_12  and  C_17
REMARK    2  A    between atoms: C_16  and  C_22
REMARK    3  A    between atoms: C_23  and  C_27
REMARK                            x       y       z     vdW  Elec       q    Type
REMARK                         _______ _______ _______ _____ _____    ______ ____
ROOT
ATOM      1  O   UNL     1     110.160 126.801 136.300  0.00  0.00    +0.000 OA
ATOM      2  O   UNL     1     110.759 129.627 136.467  0.00  0.00    +0.000 OA
ATOM      3  O   UNL     1     112.329 127.066 136.791  0.00  0.00    +0.000 OA
ATOM      4  O   UNL     1     108.101 128.769 135.860  0.00  0.00    +0.000 OA
ATOM      5  C   UNL     1     109.430 129.199 136.164  0.00  0.00    +0.000 A 
ATOM      6  C   UNL     1     110.460 128.233 136.384  0.00  0.00    +0.000 A 
ATOM      7  C   UNL     1     110.216 129.019 136.339  0.00  0.00    +0.000 A 
ATOM      8  C   UNL     1     111.282 128.059 136.567  0.00  0.00    +0.000 C 
ATOM      9  C   UNL     1     111.542 127.242 136.616  0.00  0.00    +0.000 C 
ATOM     10  C   UNL     1     110.977 126.609 136.481  0.00  0.00    +0.000 C 
ATOM     11  C   UNL     1     109.918 127.625 136.255  0.00  0.00    +0.000 A 
ATOM     12  C   UNL     1     108.888 128.591 136.035  0.00  0.00    +0.000 A 
ATOM     13  C   UNL     1     109.131 127.803 136.081  0.00  0.00    +0.000 A 
ENDROOT
BRANCH   5  18
ATOM     14  O   UNL     1     108.962 130.389 136.802  0.00  0.00    +0.000 OA
ATOM     15  O   UNL     1     109.390 129.966 134.704  0.00  0.00    +0.000 OA
ATOM     16  O   UNL     1     108.902 131.540 134.612  0.00  0.00    +0.000 OA
ATOM     17  O   UNL     1     108.455 132.345 135.980  0.00  0.00    +0.000 OA
ATOM     18  C   UNL     1     109.186 129.985 136.118  0.00  0.00    +0.000 C 
ATOM     19  C   UNL     1     109.166 130.369 135.388  0.00  0.00    +0.000 C 
ATOM     20  C   UNL     1     108.922 131.156 135.342  0.00  0.00    +0.000 C 
ATOM     21  C   UNL     1     108.698 131.558 136.026  0.00  0.00    +0.000 C 
ATOM     22  C   UNL     1     108.718 131.175 136.757  0.00  0.00    +0.000 C 
BRANCH  22  24
ATOM     23  O   UNL     1     108.037 131.198 138.012  0.00  0.00    +0.000 OA
ATOM     24  C   UNL     1     108.495 131.578 137.440  0.00  0.00    +0.000 C 
ENDBRANCH  22  24
ENDBRANCH   5  18
BRANCH  10  27
ATOM     25  O   UNL     1     111.507 124.265 138.030  0.00  0.00    +0.000 OA
ATOM     26  O   UNL     1     111.938 123.456 136.659  0.00  0.00    +0.000 OA
ATOM     27  C   UNL     1     111.217 125.820 136.526  0.00  0.00    +0.000 A 
ATOM     28  C   UNL     1     111.242 125.437 137.256  0.00  0.00    +0.000 A 
ATOM     29  C   UNL     1     111.433 125.416 135.840  0.00  0.00    +0.000 A 
ATOM     30  C   UNL     1     111.482 124.649 137.300  0.00  0.00    +0.000 A 
ATOM     31  C   UNL     1     111.673 124.628 135.884  0.00  0.00    +0.000 A 
ATOM     32  C   UNL     1     111.698 124.245 136.614  0.00  0.00    +0.000 A 
ENDBRANCH  10  27
TORSDOF 3
ENDMDL
MODEL 5
REMARK VINA RESULT:      -9.4      3.580      5.540
REMARK  Name = 59010767
REMARK  3 active torsions:
REMARK  status: ('A' for Active; 'I' for Inactive)
REMARK    1  A    between atoms: C_12  and  C_17
REMARK    2  A    between atoms: C_16  and  C_22
REMARK    3  A    between atoms: C_23  and  C_27
REMARK                            x       y       z     vdW  Elec       q    Type
REMARK                         _______ _______ _______ _____ _____    ______ ____
ROOT
ATOM      1  O   UNL     1     103.785 129.870 142.280  0.00  0.00    +0.000 OA
ATOM      2  O   UNL     1     104.675 127.407 141.050  0.00  0.00    +0.000 OA
ATOM      3  O   UNL     1     102.654 129.548 140.374  0.00  0.00    +0.000 OA
ATOM      4  O   UNL     1     105.827 128.261 143.522  0.00  0.00    +0.000 OA
ATOM      5  C   UNL     1     105.252 127.833 142.286  0.00  0.00    +0.000 A 
ATOM      6  C   UNL     1     104.238 128.622 141.660  0.00  0.00    +0.000 A 
ATOM      7  C   UNL     1     104.721 127.954 141.666  0.00  0.00    +0.000 A 
ATOM      8  C   UNL     1     103.690 128.737 141.007  0.00  0.00    +0.000 C 
ATOM      9  C   UNL     1     103.183 129.430 140.996  0.00  0.00    +0.000 C 
ATOM     10  C   UNL     1     103.232 130.001 141.637  0.00  0.00    +0.000 C 
ATOM     11  C   UNL     1     104.284 129.170 142.275  0.00  0.00    +0.000 A 
ATOM     12  C   UNL     1     105.298 128.381 142.901  0.00  0.00    +0.000 A 
ATOM     13  C   UNL     1     104.814 129.050 142.896  0.00  0.00    +0.000 A 
ENDROOT
BRANCH   5  18
ATOM     14  O   UNL     1     105.471 126.467 142.643  0.00  0.00    +0.000 OA
ATOM     15  O   UNL     1     106.749 127.893 141.595  0.00  0.00    +0.000 OA
ATOM     16  O   UNL     1     107.717 126.557 141.606  0.00  0.00    +0.000 OA
ATOM     17  O   UNL     1     107.187 125.162 142.309  0.00  0.00    +0.000 OA
ATOM     18  C   UNL     1     105.735 127.166 142.292  0.00  0.00    +0.000 C 
ATOM     19  C   UNL     1     106.484 127.196 141.946  0.00  0.00    +0.000 C 
ATOM     20  C   UNL     1     106.968 126.527 141.952  0.00  0.00    +0.000 C 
ATOM     21  C   UNL     1     106.703 125.829 142.303  0.00  0.00    +0.000 C 
ATOM     22  C   UNL     1     105.954 125.800 142.649  0.00  0.00    +0.000 C 
BRANCH  22  24
ATOM     23  O   UNL     1     105.270 125.130 143.710  0.00  0.00    +0.000 OA
ATOM     24  C   UNL     1     105.690 125.102 143.000  0.00  0.00    +0.000 C 
ENDBRANCH  22  24
ENDBRANCH   5  18
BRANCH  10  27
ATOM     25  O   UNL     1     102.843 132.772 141.050  0.00  0.00    +0.000 OA
ATOM     26  O   UNL     1     101.301 132.678 141.628  0.00  0.00    +0.000 OA
ATOM     27  C   UNL     1     102.749 130.671 141.634  0.00  0.00    +0.000 A 
ATOM     28  C   UNL     1     103.038 131.387 141.343  0.00  0.00    +0.000 A 
ATOM     29  C   UNL     1     101.978 130.624 141.923  0.00  0.00    +0.000 A 
ATOM     30  C   UNL     1     102.555 132.056 141.341  0.00  0.00    +0.000 A 
ATOM     31  C   UNL     1     101.495 131.292 141.921  0.00  0.00    +0.000 A 
ATOM     32  C   UNL     1     101.783 132.008 141.630  0.00  0.00    +0.000 A 
ENDBRANCH  10  27
TORSDOF 3
ENDMDL
MODEL 6
REMARK VINA RESULT:      -9.4      2.827      6.551
REMARK  Name = 59010767
REMARK  3 active torsions:
REMARK  status: ('A' for Active; 'I' for Inactive)
REMARK    1  A    between atoms: C_12  and  C_17
REMARK    2  A    between atoms: C_16  and  C_22
REMARK    3  A    between atoms: C_23  and  C_27
REMARK                            x       y       z     vdW  Elec       q    Type
REMARK                         _______ _______ _______ _____ _____    ______ ____
ROOT
ATOM      1  O   UNL     1     105.903 125.500 145.925  0.00  0.00    +0.000 OA
ATOM      2  O   UNL     1     105.267 124.304 143.368  0.00  0.00    +0.000 OA
ATOM      3  O   UNL     1     104.525 123.764 146.246  0.00  0.00    +0.000 OA
ATOM      4  O   UNL     1     107.005 126.569 143.487  0.00  0.00    +0.000 OA
ATOM      5  C   UNL     1     106.136 125.437 143.427  0.00  0.00    +0.000 A 
ATOM      6  C   UNL     1     105.583 124.896 144.628  0.00  0.00    +0.000 A 
ATOM      7  C   UNL     1     105.662 124.879 143.808  0.00  0.00    +0.000 A 
ATOM      8  C   UNL     1     105.086 124.310 145.013  0.00  0.00    +0.000 C 
ATOM      9  C   UNL     1     104.999 124.323 145.868  0.00  0.00    +0.000 C 
ATOM     10  C   UNL     1     105.410 124.922 146.327  0.00  0.00    +0.000 C 
ATOM     11  C   UNL     1     105.978 125.471 145.069  0.00  0.00    +0.000 A 
ATOM     12  C   UNL     1     106.531 126.012 143.867  0.00  0.00    +0.000 A 
ATOM     13  C   UNL     1     106.452 126.029 144.689  0.00  0.00    +0.000 A 
ENDROOT
BRANCH   5  18
ATOM     14  O   UNL     1     106.762 124.911 142.255  0.00  0.00    +0.000 OA
ATOM     15  O   UNL     1     105.201 126.419 142.487  0.00  0.00    +0.000 OA
ATOM     16  O   UNL     1     105.360 126.385 140.845  0.00  0.00    +0.000 OA
ATOM     17  O   UNL     1     106.453 125.368 140.144  0.00  0.00    +0.000 OA
ATOM     18  C   UNL     1     106.216 125.419 142.607  0.00  0.00    +0.000 C 
ATOM     19  C   UNL     1     105.748 125.911 142.137  0.00  0.00    +0.000 C 
ATOM     20  C   UNL     1     105.827 125.894 141.315  0.00  0.00    +0.000 C 
ATOM     21  C   UNL     1     106.374 125.385 140.964  0.00  0.00    +0.000 C 
ATOM     22  C   UNL     1     106.842 124.894 141.434  0.00  0.00    +0.000 C 
BRANCH  22  24
ATOM     23  O   UNL     1     108.139 124.295 141.413  0.00  0.00    +0.000 OA
ATOM     24  C   UNL     1     107.388 124.386 141.083  0.00  0.00    +0.000 C 
ENDBRANCH  22  24
ENDBRANCH   5  18
BRANCH  10  27
ATOM     25  O   UNL     1     106.418 124.288 148.925  0.00  0.00    +0.000 OA
ATOM     26  O   UNL     1     105.101 125.004 149.612  0.00  0.00    +0.000 OA
ATOM     27  C   UNL     1     105.333 124.942 147.148  0.00  0.00    +0.000 A 
ATOM     28  C   UNL     1     105.915 124.604 147.626  0.00  0.00    +0.000 A 
ATOM     29  C   UNL     1     104.674 125.301 147.491  0.00  0.00    +0.000 A 
ATOM     30  C   UNL     1     105.837 124.625 148.447  0.00  0.00    +0.000 A 
ATOM     31  C   UNL     1     104.596 125.321 148.312  0.00  0.00    +0.000 A 
ATOM     32  C   UNL     1     105.178 124.984 148.790  0.00  0.00    +0.000 A 
ENDBRANCH  10  27
TORSDOF 3
ENDMDL
MODEL 7
REMARK VINA RESULT:      -9.3      7.632      8.739
REMARK  Name = 59010767
REMARK  3 active torsions:
REMARK  status: ('A' for Active; 'I' for Inactive)
REMARK    1  A    between atoms: C_12  and  C_17
REMARK    2  A    between atoms: C_16  and  C_22
REMARK    3  A    between atoms: C_23  and  C_27
REMARK                            x       y       z     vdW  Elec       q    Type
REMARK                         _______ _______ _______ _____ _____    ______ ____
ROOT
ATOM      1  O   UNL     1     110.134 128.074 135.339  0.00  0.00    +0.000 OA
ATOM      2  O   UNL     1     111.977 126.895 137.233  0.00  0.00    +0.000 OA
ATOM      3  O   UNL     1     110.753 129.627 136.829  0.00  0.00    +0.000 OA
ATOM      4  O   UNL     1     110.895 125.304 135.120  0.00  0.00    +0.000 OA
ATOM      5  C   UNL     1     111.437 126.099 136.177  0.00  0.00    +0.000 A 
ATOM      6  C   UNL     1     111.067 127.474 136.297  0.00  0.00    +0.000 A 
ATOM      7  C   UNL     1     111.494 126.823 136.569  0.00  0.00    +0.000 A 
ATOM      8  C   UNL     1     111.135 128.223 136.714  0.00  0.00    +0.000 C 
ATOM      9  C   UNL     1     110.694 128.905 136.435  0.00  0.00    +0.000 C 
ATOM     10  C   UNL     1     110.190 128.830 135.743  0.00  0.00    +0.000 C 
ATOM     11  C   UNL     1     110.584 127.402 135.632  0.00  0.00    +0.000 A 
ATOM     12  C   UNL     1     110.953 126.027 135.512  0.00  0.00    +0.000 A 
ATOM     13  C   UNL     1     110.526 126.679 135.240  0.00  0.00    +0.000 A 
ENDROOT
BRANCH   5  18
ATOM     14  O   UNL     1     112.639 125.326 136.194  0.00  0.00    +0.000 OA
ATOM     15  O   UNL     1     110.739 125.038 137.230  0.00  0.00    +0.000 OA
ATOM     16  O   UNL     1     111.591 123.734 137.774  0.00  0.00    +0.000 OA
ATOM     17  O   UNL     1     113.141 123.492 137.265  0.00  0.00    +0.000 OA
ATOM     18  C   UNL     1     111.863 125.448 136.449  0.00  0.00    +0.000 C 
ATOM     19  C   UNL     1     111.514 124.917 136.975  0.00  0.00    +0.000 C 
ATOM     20  C   UNL     1     111.940 124.265 137.248  0.00  0.00    +0.000 C 
ATOM     21  C   UNL     1     112.716 124.144 136.993  0.00  0.00    +0.000 C 
ATOM     22  C   UNL     1     113.065 124.675 136.466  0.00  0.00    +0.000 C 
BRANCH  22  24
ATOM     23  O   UNL     1     114.362 125.190 136.159  0.00  0.00    +0.000 OA
ATOM     24  C   UNL     1     113.839 124.553 136.212  0.00  0.00    +0.000 C 
ENDBRANCH  22  24
ENDBRANCH   5  18
BRANCH  10  27
ATOM     25  O   UNL     1     107.835 130.449 135.803  0.00  0.00    +0.000 OA
ATOM     26  O   UNL     1     108.478 131.429 134.642  0.00  0.00    +0.000 OA
ATOM     27  C   UNL     1     109.761 129.480 135.468  0.00  0.00    +0.000 A 
ATOM     28  C   UNL     1     109.012 129.639 135.773  0.00  0.00    +0.000 A 
ATOM     29  C   UNL     1     110.084 129.969 134.888  0.00  0.00    +0.000 A 
ATOM     30  C   UNL     1     108.584 130.289 135.498  0.00  0.00    +0.000 A 
ATOM     31  C   UNL     1     109.656 130.619 134.612  0.00  0.00    +0.000 A 
ATOM     32  C   UNL     1     108.907 130.779 134.917  0.00  0.00    +0.000 A 
ENDBRANCH  10  27
TORSDOF 3
ENDMDL
MODEL 8
REMARK VINA RESULT:      -9.3      7.312      8.534
REMARK  Name = 59010767
REMARK  3 active torsions:
REMARK  status: ('A' for Active; 'I' for Inactive)
REMARK    1  A    between atoms: C_12  and  C_17
REMARK    2  A    between atoms: C_16  and  C_22
REMARK    3  A    between atoms: C_23  and  C_27
REMARK                            x       y       z     vdW  Elec       q    Type
REMARK                         _______ _______ _______ _____ _____    ______ ____
ROOT
ATOM      1  O   UNL     1     111.278 127.139 135.907  0.00  0.00    +0.000 OA
ATOM      2  O   UNL     1     109.694 129.032 137.417  0.00  0.00    +0.000 OA
ATOM      3  O   UNL     1     111.208 126.495 138.051  0.00  0.00    +0.000 OA
ATOM      4  O   UNL     1     110.084 129.418 134.612  0.00  0.00    +0.000 OA
ATOM      5  C   UNL     1     109.888 129.226 136.015  0.00  0.00    +0.000 A 
ATOM      6  C   UNL     1     110.475 128.099 136.669  0.00  0.00    +0.000 A 
ATOM      7  C   UNL     1     110.020 128.785 136.700  0.00  0.00    +0.000 A 
ATOM      8  C   UNL     1     110.605 127.649 137.390  0.00  0.00    +0.000 C 
ATOM      9  C   UNL     1     111.079 126.933 137.364  0.00  0.00    +0.000 C 
ATOM     10  C   UNL     1     111.418 126.676 136.618  0.00  0.00    +0.000 C 
ATOM     11  C   UNL     1     110.801 127.852 135.952  0.00  0.00    +0.000 A 
ATOM     12  C   UNL     1     110.214 128.979 135.298  0.00  0.00    +0.000 A 
ATOM     13  C   UNL     1     110.671 128.292 135.267  0.00  0.00    +0.000 A 
ENDROOT
BRANCH   5  18
ATOM     14  O   UNL     1     109.790 130.639 136.202  0.00  0.00    +0.000 OA
ATOM     15  O   UNL     1     108.260 129.145 135.763  0.00  0.00    +0.000 OA
ATOM     16  O   UNL     1     107.347 130.519 135.825  0.00  0.00    +0.000 OA
ATOM     17  O   UNL     1     108.063 131.971 136.139  0.00  0.00    +0.000 OA
ATOM     18  C   UNL     1     109.432 129.912 136.046  0.00  0.00    +0.000 C 
ATOM     19  C   UNL     1     108.618 129.872 135.920  0.00  0.00    +0.000 C 
ATOM     20  C   UNL     1     108.161 130.559 135.951  0.00  0.00    +0.000 C 
ATOM     21  C   UNL     1     108.520 131.285 136.108  0.00  0.00    +0.000 C 
ATOM     22  C   UNL     1     109.334 131.325 136.233  0.00  0.00    +0.000 C 
BRANCH  22  24
ATOM     23  O   UNL     1     110.487 132.082 136.609  0.00  0.00    +0.000 OA
ATOM     24  C   UNL     1     109.691 132.051 136.390  0.00  0.00    +0.000 C 
ENDBRANCH  22  24
ENDBRANCH   5  18
BRANCH  10  27
ATOM     25  O   UNL     1     111.632 123.864 136.150  0.00  0.00    +0.000 OA
ATOM     26  O   UNL     1     113.247 123.932 136.478  0.00  0.00    +0.000 OA
ATOM     27  C   UNL     1     111.875 125.990 136.583  0.00  0.00    +0.000 A 
ATOM     28  C   UNL     1     111.524 125.270 136.384  0.00  0.00    +0.000 A 
ATOM     29  C   UNL     1     112.683 126.024 136.747  0.00  0.00    +0.000 A 
ATOM     30  C   UNL     1     111.982 124.584 136.349  0.00  0.00    +0.000 A 
ATOM     31  C   UNL     1     113.140 125.339 136.712  0.00  0.00    +0.000 A 
ATOM     32  C   UNL     1     112.790 124.619 136.513  0.00  0.00    +0.000 A 
ENDBRANCH  10  27
TORSDOF 3
ENDMDL
MODEL 9
REMARK VINA RESULT:      -9.2      4.389      7.001
REMARK  Name = 59010767
REMARK  3 active torsions:
REMARK  status: ('A' for Active; 'I' for Inactive)
REMARK    1  A    between atoms: C_12  and  C_17
REMARK    2  A    between atoms: C_16  and  C_22
REMARK    3  A    between atoms: C_23  and  C_27
REMARK                            x       y       z     vdW  Elec       q    Type
REMARK                         _______ _______ _______ _____ _____    ______ ____
ROOT
ATOM      1  O   UNL     1     106.808 126.424 146.495  0.00  0.00    +0.000 OA
ATOM      2  O   UNL     1     105.652 126.183 143.853  0.00  0.00    +0.000 OA
ATOM      3  O   UNL     1     105.982 124.359 146.239  0.00  0.00    +0.000 OA
ATOM      4  O   UNL     1     106.845 128.650 144.666  0.00  0.00    +0.000 OA
ATOM      5  C   UNL     1     106.248 127.417 144.259  0.00  0.00    +0.000 A 
ATOM      6  C   UNL     1     106.224 126.305 145.157  0.00  0.00    +0.000 A 
ATOM      7  C   UNL     1     106.041 126.635 144.423  0.00  0.00    +0.000 A 
ATOM      8  C   UNL     1     106.003 125.490 145.315  0.00  0.00    +0.000 C 
ATOM      9  C   UNL     1     106.190 125.141 146.078  0.00  0.00    +0.000 C 
ATOM     10  C   UNL     1     106.595 125.611 146.671  0.00  0.00    +0.000 C 
ATOM     11  C   UNL     1     106.613 126.757 145.727  0.00  0.00    +0.000 A 
ATOM     12  C   UNL     1     106.638 127.869 144.829  0.00  0.00    +0.000 A 
ATOM     13  C   UNL     1     106.820 127.539 145.564  0.00  0.00    +0.000 A 
ENDROOT
BRANCH   5  18
ATOM     14  O   UNL     1     105.337 128.115 143.408  0.00  0.00    +0.000 OA
ATOM     15  O   UNL     1     107.342 127.341 143.026  0.00  0.00    +0.000 OA
ATOM     16  O   UNL     1     106.977 128.001 141.558  0.00  0.00    +0.000 OA
ATOM     17  O   UNL     1     105.520 128.737 141.324  0.00  0.00    +0.000 OA
ATOM     18  C   UNL     1     106.066 127.747 143.526  0.00  0.00    +0.000 C 
ATOM     19  C   UNL     1     106.613 127.709 142.909  0.00  0.00    +0.000 C 
ATOM     20  C   UNL     1     106.431 128.039 142.175  0.00  0.00    +0.000 C 
ATOM     21  C   UNL     1     105.702 128.407 142.058  0.00  0.00    +0.000 C 
ATOM     22  C   UNL     1     105.155 128.445 142.675  0.00  0.00    +0.000 C 
BRANCH  22  24
ATOM     23  O   UNL     1     104.086 129.258 143.163  0.00  0.00    +0.000 OA
ATOM     24  C   UNL     1     104.426 128.813 142.557  0.00  0.00    +0.000 C 
ENDBRANCH  22  24
ENDBRANCH   5  18
BRANCH  10  27
ATOM     25  O   UNL     1     108.533 124.638 148.534  0.00  0.00    +0.000 OA
ATOM     26  O   UNL     1     107.330 124.304 149.612  0.00  0.00    +0.000 OA
ATOM     27  C   UNL     1     106.780 125.284 147.406  0.00  0.00    +0.000 A 
ATOM     28  C   UNL     1     107.565 125.124 147.603  0.00  0.00    +0.000 A 
ATOM     29  C   UNL     1     106.177 125.117 147.945  0.00  0.00    +0.000 A 
ATOM     30  C   UNL     1     107.748 124.798 148.338  0.00  0.00    +0.000 A 
ATOM     31  C   UNL     1     106.361 124.791 148.680  0.00  0.00    +0.000 A 
ATOM     32  C   UNL     1     107.146 124.631 148.877  0.00  0.00    +0.000 A 
ENDBRANCH  10  27
TORSDOF 3
ENDMDL
MODEL 10
REMARK VINA RESULT:      -8.9      7.117      8.143
REMARK  Name = 59010767
REMARK  3 active torsions:
REMARK  status: ('A' for Active; 'I' for Inactive)
REMARK    1  A    between atoms: C_12  and  C_17
REMARK    2  A    between atoms: C_16  and  C_22
REMARK    3  A    between atoms: C_23  and  C_27
REMARK                            x       y       z     vdW  Elec       q    Type
REMARK                         _______ _______ _______ _____ _____    ______ ____
ROOT
ATOM      1  O   UNL     1     110.489 127.550 137.234  0.00  0.00    +0.000 OA
ATOM      2  O   UNL     1     111.731 130.121 137.701  0.00  0.00    +0.000 OA
ATOM      3  O   UNL     1     112.709 127.345 137.019  0.00  0.00    +0.000 OA
ATOM      4  O   UNL     1     108.890 129.863 137.862  0.00  0.00    +0.000 OA
ATOM      5  C   UNL     1     110.311 129.993 137.781  0.00  0.00    +0.000 A 
ATOM      6  C   UNL     1     111.115 128.853 137.471  0.00  0.00    +0.000 A 
ATOM      7  C   UNL     1     111.052 129.655 137.651  0.00  0.00    +0.000 A 
ATOM      8  C   UNL     1     111.894 128.514 137.337  0.00  0.00    +0.000 C 
ATOM      9  C   UNL     1     111.965 127.679 137.149  0.00  0.00    +0.000 C 
ATOM     10  C   UNL     1     111.259 127.194 137.097  0.00  0.00    +0.000 C 
ATOM     11  C   UNL     1     110.436 128.387 137.421  0.00  0.00    +0.000 A 
ATOM     12  C   UNL     1     109.632 129.527 137.732  0.00  0.00    +0.000 A 
ATOM     13  C   UNL     1     109.694 128.723 137.551  0.00  0.00    +0.000 A 
ENDROOT
BRANCH   5  18
ATOM     14  O   UNL     1     110.206 131.352 137.355  0.00  0.00    +0.000 OA
ATOM     15  O   UNL     1     110.268 130.484 139.356  0.00  0.00    +0.000 OA
ATOM     16  O   UNL     1     110.142 132.089 139.717  0.00  0.00    +0.000 OA
ATOM     17  O   UNL     1     110.059 133.202 138.503  0.00  0.00    +0.000 OA
ATOM     18  C   UNL     1     110.248 130.795 137.961  0.00  0.00    +0.000 C 
ATOM     19  C   UNL     1     110.226 131.040 138.749  0.00  0.00    +0.000 C 
ATOM     20  C   UNL     1     110.163 131.843 138.929  0.00  0.00    +0.000 C 
ATOM     21  C   UNL     1     110.122 132.400 138.322  0.00  0.00    +0.000 C 
ATOM     22  C   UNL     1     110.143 132.154 137.535  0.00  0.00    +0.000 C 
BRANCH  22  24
ATOM     23  O   UNL     1     109.696 132.534 136.232  0.00  0.00    +0.000 OA
ATOM     24  C   UNL     1     110.102 132.711 136.928  0.00  0.00    +0.000 C 
ENDBRANCH  22  24
ENDBRANCH   5  18
BRANCH  10  27
ATOM     25  O   UNL     1     111.428 124.470 137.950  0.00  0.00    +0.000 OA
ATOM     26  O   UNL     1     111.495 123.981 136.376  0.00  0.00    +0.000 OA
ATOM     27  C   UNL     1     111.318 126.390 136.917  0.00  0.00    +0.000 A 
ATOM     28  C   UNL     1     111.343 125.832 137.524  0.00  0.00    +0.000 A 
ATOM     29  C   UNL     1     111.351 126.146 136.130  0.00  0.00    +0.000 A 
ATOM     30  C   UNL     1     111.402 125.029 137.343  0.00  0.00    +0.000 A 
ATOM     31  C   UNL     1     111.410 125.343 135.949  0.00  0.00    +0.000 A 
ATOM     32  C   UNL     1     111.436 124.785 136.556  0.00  0.00    +0.000 A 
ENDBRANCH  10  27
TORSDOF 3
ENDMDL
