MODEL 1
REMARK VINA RESULT:     -10.2      0.000      0.000
REMARK  Name = 15559736
REMARK  4 active torsions:
REMARK  status: ('A' for Active; 'I' for Inactive)
REMARK    1  A    between atoms: O_2  and  C_19
REMARK    2  A    between atoms: O_2  and  C_21
REMARK    3  A    between atoms: C_18  and  C_20
REMARK    4  A    between atoms: C_22  and  C_26
REMARK                            x       y       z     vdW  Elec       q    Type
REMARK                         _______ _______ _______ _____ _____    ______ ____
ROOT
ATOM      1  O   UNL     1     105.685 124.430 147.775  0.00  0.00    +0.000 OA
ATOM      2  O   UNL     1     107.066 125.578 146.071  0.00  0.00    +0.000 OA
ATOM      3  O   UNL     1     108.208 125.576 146.953  0.00  0.00    +0.000 OA
ATOM      4  O   UNL     1     106.334 124.019 149.265  0.00  0.00    +0.000 OA
ATOM      5  O   UNL     1     107.947 124.390 149.610  0.00  0.00    +0.000 OA
ATOM      6  C   UNL     1     105.818 125.012 146.476  0.00  0.00    +0.000 A 
ATOM      7  C   UNL     1     105.358 124.629 147.045  0.00  0.00    +0.000 A 
ATOM      8  C   UNL     1     106.606 125.195 146.640  0.00  0.00    +0.000 A 
ATOM      9  C   UNL     1     106.933 124.996 147.370  0.00  0.00    +0.000 A 
ATOM     10  C   UNL     1     106.473 124.614 147.938  0.00  0.00    +0.000 A 
ATOM     11  C   UNL     1     107.755 125.193 147.528  0.00  0.00    +0.000 A 
ATOM     12  C   UNL     1     106.802 124.401 148.702  0.00  0.00    +0.000 A 
ATOM     13  C   UNL     1     108.101 124.988 148.287  0.00  0.00    +0.000 A 
ATOM     14  C   UNL     1     107.622 124.590 148.878  0.00  0.00    +0.000 A 
ENDROOT
BRANCH   7  18
ATOM     15  O   UNL     1     103.417 123.007 145.713  0.00  0.00    +0.000 OA
ATOM     16  O   UNL     1     102.571 125.155 147.399  0.00  0.00    +0.000 OA
ATOM     17  O   UNL     1     102.206 123.898 146.393  0.00  0.00    +0.000 OA
ATOM     18  C   UNL     1     104.570 124.446 146.882  0.00  0.00    +0.000 A 
ATOM     19  C   UNL     1     103.964 124.892 147.222  0.00  0.00    +0.000 A 
ATOM     20  C   UNL     1     104.388 123.818 146.379  0.00  0.00    +0.000 A 
ATOM     21  C   UNL     1     103.600 123.635 146.216  0.00  0.00    +0.000 A 
ATOM     22  C   UNL     1     103.177 124.709 147.058  0.00  0.00    +0.000 A 
ATOM     23  C   UNL     1     102.994 124.080 146.556  0.00  0.00    +0.000 A 
ENDBRANCH   7  18
BRANCH   6  24
ATOM     24  O   UNL     1     105.491 125.211 145.746  0.00  0.00    +0.000 OA
BRANCH  24  33
ATOM     25  O   UNL     1     105.413 126.607 146.039  0.00  0.00    +0.000 OA
ATOM     26  O   UNL     1     105.677 127.127 143.633  0.00  0.00    +0.000 OA
ATOM     27  O   UNL     1     105.512 128.349 144.728  0.00  0.00    +0.000 OA
ATOM     28  O   UNL     1     105.667 125.557 144.142  0.00  0.00    +0.000 OA
ATOM     29  C   UNL     1     105.589 126.954 144.435  0.00  0.00    +0.000 C 
ATOM     30  C   UNL     1     105.506 127.565 144.983  0.00  0.00    +0.000 C 
ATOM     31  C   UNL     1     105.584 126.168 144.690  0.00  0.00    +0.000 C 
ATOM     32  C   UNL     1     105.418 127.392 145.785  0.00  0.00    +0.000 C 
ATOM     33  C   UNL     1     105.496 125.995 145.492  0.00  0.00    +0.000 C 
BRANCH  32  35
ATOM     34  O   UNL     1     104.662 128.045 146.806  0.00  0.00    +0.000 OA
ATOM     35  C   UNL     1     105.335 128.003 146.331  0.00  0.00    +0.000 C 
ENDBRANCH  32  35
ENDBRANCH  24  33
ENDBRANCH   6  24
TORSDOF 4
ENDMDL
MODEL 2
REMARK VINA RESULT:      -9.7     11.055     12.675
REMARK  Name = 15559736
REMARK  4 active torsions:
REMARK  status: ('A' for Active; 'I' for Inactive)
REMARK    1  A    between atoms: O_2  and  C_19
REMARK    2  A    between atoms: O_2  and  C_21
REMARK    3  A    between atoms: C_18  and  C_20
REMARK    4  A    between atoms: C_22  and  C_26
REMARK                            x       y       z     vdW  Elec       q    Type
REMARK                         _______ _______ _______ _____ _____    ______ ____
ROOT
ATOM      1  O   UNL     1     111.761 129.562 135.834  0.00  0.00    +0.000 OA
ATOM      2  O   UNL     1     112.294 130.866 137.870  0.00  0.00    +0.000 OA
ATOM      3  O   UNL     1     113.687 130.930 137.499  0.00  0.00    +0.000 OA
ATOM      4  O   UNL     1     112.964 129.161 134.738  0.00  0.00    +0.000 OA
ATOM      5  O   UNL     1     114.557 129.650 135.022  0.00  0.00    +0.000 OA
ATOM      6  C   UNL     1     111.341 130.190 137.048  0.00  0.00    +0.000 A 
ATOM      7  C   UNL     1     111.163 129.755 136.369  0.00  0.00    +0.000 A 
ATOM      8  C   UNL     1     112.116 130.431 137.191  0.00  0.00    +0.000 A 
ATOM      9  C   UNL     1     112.715 130.238 136.657  0.00  0.00    +0.000 A 
ATOM     10  C   UNL     1     112.537 129.804 135.979  0.00  0.00    +0.000 A 
ATOM     11  C   UNL     1     113.519 130.495 136.818  0.00  0.00    +0.000 A 
ATOM     12  C   UNL     1     113.150 129.596 135.414  0.00  0.00    +0.000 A 
ATOM     13  C   UNL     1     114.145 130.297 136.265  0.00  0.00    +0.000 A 
ATOM     14  C   UNL     1     113.961 129.845 135.558  0.00  0.00    +0.000 A 
ENDROOT
BRANCH   7  18
ATOM     15  O   UNL     1     108.689 130.074 134.975  0.00  0.00    +0.000 OA
ATOM     16  O   UNL     1     108.983 127.986 136.905  0.00  0.00    +0.000 OA
ATOM     17  O   UNL     1     108.060 128.788 135.797  0.00  0.00    +0.000 OA
ATOM     18  C   UNL     1     110.388 129.514 136.226  0.00  0.00    +0.000 A 
ATOM     19  C   UNL     1     110.073 128.871 136.637  0.00  0.00    +0.000 A 
ATOM     20  C   UNL     1     109.926 129.915 135.672  0.00  0.00    +0.000 A 
ATOM     21  C   UNL     1     109.150 129.673 135.529  0.00  0.00    +0.000 A 
ATOM     22  C   UNL     1     109.298 128.629 136.494  0.00  0.00    +0.000 A 
ATOM     23  C   UNL     1     108.836 129.030 135.940  0.00  0.00    +0.000 A 
ENDBRANCH   7  18
BRANCH   6  24
ATOM     24  O   UNL     1     110.743 130.383 137.582  0.00  0.00    +0.000 OA
BRANCH  24  33
ATOM     25  O   UNL     1     110.660 131.754 137.187  0.00  0.00    +0.000 OA
ATOM     26  O   UNL     1     110.027 132.382 139.496  0.00  0.00    +0.000 OA
ATOM     27  O   UNL     1     110.156 133.542 138.331  0.00  0.00    +0.000 OA
ATOM     28  O   UNL     1     110.321 130.802 139.122  0.00  0.00    +0.000 OA
ATOM     29  C   UNL     1     110.238 132.172 138.726  0.00  0.00    +0.000 C 
ATOM     30  C   UNL     1     110.303 132.752 138.143  0.00  0.00    +0.000 C 
ATOM     31  C   UNL     1     110.385 131.382 138.539  0.00  0.00    +0.000 C 
ATOM     32  C   UNL     1     110.514 132.543 137.374  0.00  0.00    +0.000 C 
ATOM     33  C   UNL     1     110.596 131.172 137.769  0.00  0.00    +0.000 C 
BRANCH  32  35
ATOM     34  O   UNL     1     110.057 133.126 136.151  0.00  0.00    +0.000 OA
ATOM     35  C   UNL     1     110.578 133.123 136.792  0.00  0.00    +0.000 C 
ENDBRANCH  32  35
ENDBRANCH  24  33
ENDBRANCH   6  24
TORSDOF 4
ENDMDL
MODEL 3
REMARK VINA RESULT:      -9.6      0.799      3.580
REMARK  Name = 15559736
REMARK  4 active torsions:
REMARK  status: ('A' for Active; 'I' for Inactive)
REMARK    1  A    between atoms: O_2  and  C_19
REMARK    2  A    between atoms: O_2  and  C_21
REMARK    3  A    between atoms: C_18  and  C_20
REMARK    4  A    between atoms: C_22  and  C_26
REMARK                            x       y       z     vdW  Elec       q    Type
REMARK                         _______ _______ _______ _____ _____    ______ ____
ROOT
ATOM      1  O   UNL     1     106.735 125.489 146.820  0.00  0.00    +0.000 OA
ATOM      2  O   UNL     1     104.767 124.784 148.147  0.00  0.00    +0.000 OA
ATOM      3  O   UNL     1     105.619 124.301 149.206  0.00  0.00    +0.000 OA
ATOM      4  O   UNL     1     108.288 125.257 147.406  0.00  0.00    +0.000 OA
ATOM      5  O   UNL     1     108.516 124.536 148.917  0.00  0.00    +0.000 OA
ATOM      6  C   UNL     1     105.318 125.372 146.966  0.00  0.00    +0.000 A 
ATOM      7  C   UNL     1     105.974 125.607 146.524  0.00  0.00    +0.000 A 
ATOM      8  C   UNL     1     105.424 125.019 147.704  0.00  0.00    +0.000 A 
ATOM      9  C   UNL     1     106.185 124.901 148.000  0.00  0.00    +0.000 A 
ATOM     10  C   UNL     1     106.840 125.136 147.558  0.00  0.00    +0.000 A 
ATOM     11  C   UNL     1     106.281 124.533 148.771  0.00  0.00    +0.000 A 
ATOM     12  C   UNL     1     107.637 125.019 147.855  0.00  0.00    +0.000 A 
ATOM     13  C   UNL     1     107.071 124.407 149.084  0.00  0.00    +0.000 A 
ATOM     14  C   UNL     1     107.754 124.652 148.623  0.00  0.00    +0.000 A 
ENDROOT
BRANCH   7  18
ATOM     15  O   UNL     1     105.205 127.861 144.944  0.00  0.00    +0.000 OA
ATOM     16  O   UNL     1     106.108 125.466 143.672  0.00  0.00    +0.000 OA
ATOM     17  O   UNL     1     105.550 127.016 143.570  0.00  0.00    +0.000 OA
ATOM     18  C   UNL     1     105.868 125.960 145.786  0.00  0.00    +0.000 A 
ATOM     19  C   UNL     1     106.041 125.537 145.098  0.00  0.00    +0.000 A 
ATOM     20  C   UNL     1     105.589 126.735 145.734  0.00  0.00    +0.000 A 
ATOM     21  C   UNL     1     105.483 127.086 144.995  0.00  0.00    +0.000 A 
ATOM     22  C   UNL     1     105.935 125.889 144.360  0.00  0.00    +0.000 A 
ATOM     23  C   UNL     1     105.656 126.664 144.309  0.00  0.00    +0.000 A 
ENDBRANCH   7  18
BRANCH   6  24
ATOM     24  O   UNL     1     104.556 125.490 146.670  0.00  0.00    +0.000 OA
BRANCH  24  33
ATOM     25  O   UNL     1     104.309 124.144 146.257  0.00  0.00    +0.000 OA
ATOM     26  O   UNL     1     101.962 124.343 147.016  0.00  0.00    +0.000 OA
ATOM     27  O   UNL     1     102.497 122.932 146.350  0.00  0.00    +0.000 OA
ATOM     28  O   UNL     1     102.992 125.622 147.177  0.00  0.00    +0.000 OA
ATOM     29  C   UNL     1     102.744 124.277 146.763  0.00  0.00    +0.000 C 
ATOM     30  C   UNL     1     103.012 123.571 146.430  0.00  0.00    +0.000 C 
ATOM     31  C   UNL     1     103.260 124.917 146.843  0.00  0.00    +0.000 C 
ATOM     32  C   UNL     1     103.795 123.505 146.176  0.00  0.00    +0.000 C 
ATOM     33  C   UNL     1     104.042 124.851 146.590  0.00  0.00    +0.000 C 
BRANCH  32  35
ATOM     34  O   UNL     1     104.368 122.795 145.077  0.00  0.00    +0.000 OA
ATOM     35  C   UNL     1     104.062 122.800 145.843  0.00  0.00    +0.000 C 
ENDBRANCH  32  35
ENDBRANCH  24  33
ENDBRANCH   6  24
TORSDOF 4
ENDMDL
MODEL 4
REMARK VINA RESULT:      -9.5      9.875     12.157
REMARK  Name = 15559736
REMARK  4 active torsions:
REMARK  status: ('A' for Active; 'I' for Inactive)
REMARK    1  A    between atoms: O_2  and  C_19
REMARK    2  A    between atoms: O_2  and  C_21
REMARK    3  A    between atoms: C_18  and  C_20
REMARK    4  A    between atoms: C_22  and  C_26
REMARK                            x       y       z     vdW  Elec       q    Type
REMARK                         _______ _______ _______ _____ _____    ______ ____
ROOT
ATOM      1  O   UNL     1     113.472 127.370 136.720  0.00  0.00    +0.000 OA
ATOM      2  O   UNL     1     112.073 128.210 138.582  0.00  0.00    +0.000 OA
ATOM      3  O   UNL     1     112.244 129.571 138.134  0.00  0.00    +0.000 OA
ATOM      4  O   UNL     1     114.141 128.432 135.608  0.00  0.00    +0.000 OA
ATOM      5  O   UNL     1     113.860 130.091 135.757  0.00  0.00    +0.000 OA
ATOM      6  C   UNL     1     112.680 127.121 137.884  0.00  0.00    +0.000 A 
ATOM      7  C   UNL     1     113.147 126.841 137.263  0.00  0.00    +0.000 A 
ATOM      8  C   UNL     1     112.540 127.930 137.961  0.00  0.00    +0.000 A 
ATOM      9  C   UNL     1     112.865 128.460 137.418  0.00  0.00    +0.000 A 
ATOM     10  C   UNL     1     113.331 128.180 136.798  0.00  0.00    +0.000 A 
ATOM     11  C   UNL     1     112.712 129.300 137.510  0.00  0.00    +0.000 A 
ATOM     12  C   UNL     1     113.676 128.720 136.226  0.00  0.00    +0.000 A 
ATOM     13  C   UNL     1     113.048 129.856 136.948  0.00  0.00    +0.000 A 
ATOM     14  C   UNL     1     113.534 129.564 136.301  0.00  0.00    +0.000 A 
ENDROOT
BRANCH   7  18
ATOM     15  O   UNL     1     114.883 124.590 137.554  0.00  0.00    +0.000 OA
ATOM     16  O   UNL     1     112.248 124.235 136.508  0.00  0.00    +0.000 OA
ATOM     17  O   UNL     1     113.705 123.603 136.953  0.00  0.00    +0.000 OA
ATOM     18  C   UNL     1     113.287 126.032 137.186  0.00  0.00    +0.000 A 
ATOM     19  C   UNL     1     112.697 125.538 136.885  0.00  0.00    +0.000 A 
ATOM     20  C   UNL     1     114.016 125.716 137.409  0.00  0.00    +0.000 A 
ATOM     21  C   UNL     1     114.155 124.906 137.331  0.00  0.00    +0.000 A 
ATOM     22  C   UNL     1     112.837 124.729 136.808  0.00  0.00    +0.000 A 
ATOM     23  C   UNL     1     113.566 124.413 137.031  0.00  0.00    +0.000 A 
ENDBRANCH   7  18
BRANCH   6  24
ATOM     24  O   UNL     1     112.355 126.592 138.427  0.00  0.00    +0.000 OA
BRANCH  24  33
ATOM     25  O   UNL     1     113.255 126.955 139.475  0.00  0.00    +0.000 OA
ATOM     26  O   UNL     1     111.540 126.352 141.155  0.00  0.00    +0.000 OA
ATOM     27  O   UNL     1     113.011 126.916 141.644  0.00  0.00    +0.000 OA
ATOM     28  O   UNL     1     111.212 126.190 139.547  0.00  0.00    +0.000 OA
ATOM     29  C   UNL     1     112.112 126.553 140.595  0.00  0.00    +0.000 C 
ATOM     30  C   UNL     1     112.847 126.835 140.839  0.00  0.00    +0.000 C 
ATOM     31  C   UNL     1     111.947 126.472 139.790  0.00  0.00    +0.000 C 
ATOM     32  C   UNL     1     113.419 127.036 140.279  0.00  0.00    +0.000 C 
ATOM     33  C   UNL     1     112.519 126.673 139.230  0.00  0.00    +0.000 C 
BRANCH  32  35
ATOM     34  O   UNL     1     114.829 126.855 140.422  0.00  0.00    +0.000 OA
ATOM     35  C   UNL     1     114.154 127.318 140.524  0.00  0.00    +0.000 C 
ENDBRANCH  32  35
ENDBRANCH  24  33
ENDBRANCH   6  24
TORSDOF 4
ENDMDL
MODEL 5
REMARK VINA RESULT:      -9.4     11.285     12.955
REMARK  Name = 15559736
REMARK  4 active torsions:
REMARK  status: ('A' for Active; 'I' for Inactive)
REMARK    1  A    between atoms: O_2  and  C_19
REMARK    2  A    between atoms: O_2  and  C_21
REMARK    3  A    between atoms: C_18  and  C_20
REMARK    4  A    between atoms: C_22  and  C_26
REMARK                            x       y       z     vdW  Elec       q    Type
REMARK                         _______ _______ _______ _____ _____    ______ ____
ROOT
ATOM      1  O   UNL     1     111.843 125.997 136.078  0.00  0.00    +0.000 OA
ATOM      2  O   UNL     1     111.987 128.338 135.287  0.00  0.00    +0.000 OA
ATOM      3  O   UNL     1     110.717 128.219 134.612  0.00  0.00    +0.000 OA
ATOM      4  O   UNL     1     110.521 125.043 135.685  0.00  0.00    +0.000 OA
ATOM      5  O   UNL     1     109.275 125.682 134.740  0.00  0.00    +0.000 OA
ATOM      6  C   UNL     1     112.545 127.240 136.012  0.00  0.00    +0.000 A 
ATOM      7  C   UNL     1     112.496 126.459 136.275  0.00  0.00    +0.000 A 
ATOM      8  C   UNL     1     111.939 127.557 135.550  0.00  0.00    +0.000 A 
ATOM      9  C   UNL     1     111.285 127.095 135.353  0.00  0.00    +0.000 A 
ATOM     10  C   UNL     1     111.237 126.315 135.616  0.00  0.00    +0.000 A 
ATOM     11  C   UNL     1     110.661 127.437 134.871  0.00  0.00    +0.000 A 
ATOM     12  C   UNL     1     110.562 125.822 135.417  0.00  0.00    +0.000 A 
ATOM     13  C   UNL     1     109.978 126.960 134.662  0.00  0.00    +0.000 A 
ATOM     14  C   UNL     1     109.927 126.147 134.937  0.00  0.00    +0.000 A 
ENDROOT
BRANCH   7  18
ATOM     15  O   UNL     1     115.088 125.273 136.484  0.00  0.00    +0.000 OA
ATOM     16  O   UNL     1     113.538 125.743 138.839  0.00  0.00    +0.000 OA
ATOM     17  O   UNL     1     114.919 125.191 138.123  0.00  0.00    +0.000 OA
ATOM     18  C   UNL     1     113.102 126.142 136.737  0.00  0.00    +0.000 A 
ATOM     19  C   UNL     1     113.017 126.101 137.557  0.00  0.00    +0.000 A 
ATOM     20  C   UNL     1     113.793 125.866 136.379  0.00  0.00    +0.000 A 
ATOM     21  C   UNL     1     114.398 125.549 136.842  0.00  0.00    +0.000 A 
ATOM     22  C   UNL     1     113.623 125.784 138.018  0.00  0.00    +0.000 A 
ATOM     23  C   UNL     1     114.314 125.508 137.661  0.00  0.00    +0.000 A 
ENDBRANCH   7  18
BRANCH   6  24
ATOM     24  O   UNL     1     113.199 127.703 136.210  0.00  0.00    +0.000 OA
BRANCH  24  33
ATOM     25  O   UNL     1     112.498 128.502 137.165  0.00  0.00    +0.000 OA
ATOM     26  O   UNL     1     113.959 130.426 136.626  0.00  0.00    +0.000 OA
ATOM     27  O   UNL     1     112.773 130.584 137.760  0.00  0.00    +0.000 OA
ATOM     28  O   UNL     1     114.172 128.985 135.850  0.00  0.00    +0.000 OA
ATOM     29  C   UNL     1     113.472 129.785 136.805  0.00  0.00    +0.000 C 
ATOM     30  C   UNL     1     112.879 129.863 137.373  0.00  0.00    +0.000 C 
ATOM     31  C   UNL     1     113.579 129.064 136.417  0.00  0.00    +0.000 C 
ATOM     32  C   UNL     1     112.392 129.222 137.553  0.00  0.00    +0.000 C 
ATOM     33  C   UNL     1     113.092 128.423 136.597  0.00  0.00    +0.000 C 
BRANCH  32  35
ATOM     34  O   UNL     1     111.808 128.828 138.796  0.00  0.00    +0.000 OA
ATOM     35  C   UNL     1     111.799 129.301 138.120  0.00  0.00    +0.000 C 
ENDBRANCH  32  35
ENDBRANCH  24  33
ENDBRANCH   6  24
TORSDOF 4
ENDMDL
MODEL 6
REMARK VINA RESULT:      -9.3      9.601     11.891
REMARK  Name = 15559736
REMARK  4 active torsions:
REMARK  status: ('A' for Active; 'I' for Inactive)
REMARK    1  A    between atoms: O_2  and  C_19
REMARK    2  A    between atoms: O_2  and  C_21
REMARK    3  A    between atoms: C_18  and  C_20
REMARK    4  A    between atoms: C_22  and  C_26
REMARK                            x       y       z     vdW  Elec       q    Type
REMARK                         _______ _______ _______ _____ _____    ______ ____
ROOT
ATOM      1  O   UNL     1     111.913 128.241 138.241  0.00  0.00    +0.000 OA
ATOM      2  O   UNL     1     113.672 127.272 136.792  0.00  0.00    +0.000 OA
ATOM      3  O   UNL     1     113.472 128.308 135.808  0.00  0.00    +0.000 OA
ATOM      4  O   UNL     1     111.086 129.621 137.772  0.00  0.00    +0.000 OA
ATOM      5  O   UNL     1     111.454 130.362 136.299  0.00  0.00    +0.000 OA
ATOM      6  C   UNL     1     112.902 127.238 137.996  0.00  0.00    +0.000 A 
ATOM      7  C   UNL     1     112.315 127.561 138.479  0.00  0.00    +0.000 A 
ATOM      8  C   UNL     1     113.085 127.595 137.275  0.00  0.00    +0.000 A 
ATOM      9  C   UNL     1     112.683 128.275 137.037  0.00  0.00    +0.000 A 
ATOM     10  C   UNL     1     112.097 128.598 137.520  0.00  0.00    +0.000 A 
ATOM     11  C   UNL     1     112.884 128.638 136.284  0.00  0.00    +0.000 A 
ATOM     12  C   UNL     1     111.671 129.305 137.284  0.00  0.00    +0.000 A 
ATOM     13  C   UNL     1     112.468 129.346 136.032  0.00  0.00    +0.000 A 
ATOM     14  C   UNL     1     111.857 129.682 136.534  0.00  0.00    +0.000 A 
ENDROOT
BRANCH   7  18
ATOM     15  O   UNL     1     110.583 125.935 140.066  0.00  0.00    +0.000 OA
ATOM     16  O   UNL     1     112.952 127.044 141.217  0.00  0.00    +0.000 OA
ATOM     17  O   UNL     1     111.585 126.132 141.362  0.00  0.00    +0.000 OA
ATOM     18  C   UNL     1     112.132 127.204 139.199  0.00  0.00    +0.000 A 
ATOM     19  C   UNL     1     112.634 127.302 139.848  0.00  0.00    +0.000 A 
ATOM     20  C   UNL     1     111.448 126.748 139.272  0.00  0.00    +0.000 A 
ATOM     21  C   UNL     1     111.266 126.391 139.993  0.00  0.00    +0.000 A 
ATOM     22  C   UNL     1     112.451 126.945 140.568  0.00  0.00    +0.000 A 
ATOM     23  C   UNL     1     111.767 126.489 140.641  0.00  0.00    +0.000 A 
ENDBRANCH   7  18
BRANCH   6  24
ATOM     24  O   UNL     1     113.304 126.558 138.234  0.00  0.00    +0.000 OA
BRANCH  24  33
ATOM     25  O   UNL     1     112.617 125.697 137.324  0.00  0.00    +0.000 OA
ATOM     26  O   UNL     1     114.613 124.239 137.197  0.00  0.00    +0.000 OA
ATOM     27  O   UNL     1     113.261 123.864 136.330  0.00  0.00    +0.000 OA
ATOM     28  O   UNL     1     114.635 125.586 138.149  0.00  0.00    +0.000 OA
ATOM     29  C   UNL     1     113.948 124.725 137.239  0.00  0.00    +0.000 C 
ATOM     30  C   UNL     1     113.272 124.538 136.806  0.00  0.00    +0.000 C 
ATOM     31  C   UNL     1     113.959 125.399 137.716  0.00  0.00    +0.000 C 
ATOM     32  C   UNL     1     112.606 125.024 136.848  0.00  0.00    +0.000 C 
ATOM     33  C   UNL     1     113.293 125.885 137.758  0.00  0.00    +0.000 C 
BRANCH  32  35
ATOM     34  O   UNL     1     111.226 124.656 136.805  0.00  0.00    +0.000 OA
ATOM     35  C   UNL     1     111.931 124.836 136.415  0.00  0.00    +0.000 C 
ENDBRANCH  32  35
ENDBRANCH  24  33
ENDBRANCH   6  24
TORSDOF 4
ENDMDL
MODEL 7
REMARK VINA RESULT:      -9.2     10.080     12.325
REMARK  Name = 15559736
REMARK  4 active torsions:
REMARK  status: ('A' for Active; 'I' for Inactive)
REMARK    1  A    between atoms: O_2  and  C_19
REMARK    2  A    between atoms: O_2  and  C_21
REMARK    3  A    between atoms: C_18  and  C_20
REMARK    4  A    between atoms: C_22  and  C_26
REMARK                            x       y       z     vdW  Elec       q    Type
REMARK                         _______ _______ _______ _____ _____    ______ ____
ROOT
ATOM      1  O   UNL     1     113.085 128.226 138.294  0.00  0.00    +0.000 OA
ATOM      2  O   UNL     1     111.952 126.045 138.592  0.00  0.00    +0.000 OA
ATOM      3  O   UNL     1     112.133 126.114 140.022  0.00  0.00    +0.000 OA
ATOM      4  O   UNL     1     113.670 129.073 139.618  0.00  0.00    +0.000 OA
ATOM      5  O   UNL     1     113.486 128.434 141.172  0.00  0.00    +0.000 OA
ATOM      6  C   UNL     1     112.423 127.089 137.737  0.00  0.00    +0.000 A 
ATOM      7  C   UNL     1     112.800 127.816 137.638  0.00  0.00    +0.000 A 
ATOM      8  C   UNL     1     112.330 126.773 138.493  0.00  0.00    +0.000 A 
ATOM      9  C   UNL     1     112.615 127.183 139.150  0.00  0.00    +0.000 A 
ATOM     10  C   UNL     1     112.992 127.909 139.051  0.00  0.00    +0.000 A 
ATOM     11  C   UNL     1     112.512 126.842 139.932  0.00  0.00    +0.000 A 
ATOM     12  C   UNL     1     113.293 128.346 139.726  0.00  0.00    +0.000 A 
ATOM     13  C   UNL     1     112.807 127.265 140.620  0.00  0.00    +0.000 A 
ATOM     14  C   UNL     1     113.200 128.022 140.517  0.00  0.00    +0.000 A 
ENDROOT
BRANCH   7  18
ATOM     15  O   UNL     1     114.447 128.364 135.367  0.00  0.00    +0.000 OA
ATOM     16  O   UNL     1     111.704 129.167 135.370  0.00  0.00    +0.000 OA
ATOM     17  O   UNL     1     113.167 129.082 134.612  0.00  0.00    +0.000 OA
ATOM     18  C   UNL     1     112.893 128.132 136.881  0.00  0.00    +0.000 A 
ATOM     19  C   UNL     1     112.252 128.492 136.504  0.00  0.00    +0.000 A 
ATOM     20  C   UNL     1     113.624 128.090 136.502  0.00  0.00    +0.000 A 
ATOM     21  C   UNL     1     113.715 128.407 135.746  0.00  0.00    +0.000 A 
ATOM     22  C   UNL     1     112.345 128.808 135.748  0.00  0.00    +0.000 A 
ATOM     23  C   UNL     1     113.076 128.765 135.369  0.00  0.00    +0.000 A 
ENDBRANCH   7  18
BRANCH   6  24
ATOM     24  O   UNL     1     112.138 126.679 137.080  0.00  0.00    +0.000 OA
BRANCH  24  33
ATOM     25  O   UNL     1     113.163 125.684 137.109  0.00  0.00    +0.000 OA
ATOM     26  O   UNL     1     111.585 124.030 136.161  0.00  0.00    +0.000 OA
ATOM     27  O   UNL     1     113.135 123.587 136.506  0.00  0.00    +0.000 OA
ATOM     28  O   UNL     1     111.086 125.576 136.448  0.00  0.00    +0.000 OA
ATOM     29  C   UNL     1     112.111 124.581 136.477  0.00  0.00    +0.000 C 
ATOM     30  C   UNL     1     112.886 124.360 136.649  0.00  0.00    +0.000 C 
ATOM     31  C   UNL     1     111.861 125.355 136.620  0.00  0.00    +0.000 C 
ATOM     32  C   UNL     1     113.412 124.911 136.966  0.00  0.00    +0.000 C 
ATOM     33  C   UNL     1     112.387 125.906 136.937  0.00  0.00    +0.000 C 
BRANCH  32  35
ATOM     34  O   UNL     1     114.818 125.050 136.746  0.00  0.00    +0.000 OA
ATOM     35  C   UNL     1     114.187 124.689 137.138  0.00  0.00    +0.000 C 
ENDBRANCH  32  35
ENDBRANCH  24  33
ENDBRANCH   6  24
TORSDOF 4
ENDMDL
MODEL 8
REMARK VINA RESULT:      -9.2      1.137      3.630
REMARK  Name = 15559736
REMARK  4 active torsions:
REMARK  status: ('A' for Active; 'I' for Inactive)
REMARK    1  A    between atoms: O_2  and  C_19
REMARK    2  A    between atoms: O_2  and  C_21
REMARK    3  A    between atoms: C_18  and  C_20
REMARK    4  A    between atoms: C_22  and  C_26
REMARK                            x       y       z     vdW  Elec       q    Type
REMARK                         _______ _______ _______ _____ _____    ______ ____
ROOT
ATOM      1  O   UNL     1     103.867 124.427 148.066  0.00  0.00    +0.000 OA
ATOM      2  O   UNL     1     104.151 124.184 145.619  0.00  0.00    +0.000 OA
ATOM      3  O   UNL     1     102.756 123.850 145.462  0.00  0.00    +0.000 OA
ATOM      4  O   UNL     1     102.371 124.180 148.781  0.00  0.00    +0.000 OA
ATOM      5  O   UNL     1     101.042 123.760 147.825  0.00  0.00    +0.000 OA
ATOM      6  C   UNL     1     104.702 124.470 146.906  0.00  0.00    +0.000 A 
ATOM      7  C   UNL     1     104.607 124.551 147.722  0.00  0.00    +0.000 A 
ATOM      8  C   UNL     1     104.056 124.265 146.435  0.00  0.00    +0.000 A 
ATOM      9  C   UNL     1     103.316 124.142 146.779  0.00  0.00    +0.000 A 
ATOM     10  C   UNL     1     103.222 124.223 147.594  0.00  0.00    +0.000 A 
ATOM     11  C   UNL     1     102.652 123.929 146.277  0.00  0.00    +0.000 A 
ATOM     12  C   UNL     1     102.457 124.097 147.965  0.00  0.00    +0.000 A 
ATOM     13  C   UNL     1     101.880 123.799 146.629  0.00  0.00    +0.000 A 
ATOM     14  C   UNL     1     101.781 123.883 147.479  0.00  0.00    +0.000 A 
ENDROOT
BRANCH   7  18
ATOM     15  O   UNL     1     106.005 126.474 149.307  0.00  0.00    +0.000 OA
ATOM     16  O   UNL     1     107.084 123.850 148.964  0.00  0.00    +0.000 OA
ATOM     17  O   UNL     1     107.190 125.366 149.607  0.00  0.00    +0.000 OA
ATOM     18  C   UNL     1     105.252 124.755 148.194  0.00  0.00    +0.000 A 
ATOM     19  C   UNL     1     105.845 124.200 148.343  0.00  0.00    +0.000 A 
ATOM     20  C   UNL     1     105.306 125.513 148.515  0.00  0.00    +0.000 A 
ATOM     21  C   UNL     1     105.952 125.716 148.986  0.00  0.00    +0.000 A 
ATOM     22  C   UNL     1     106.491 124.405 148.814  0.00  0.00    +0.000 A 
ATOM     23  C   UNL     1     106.544 125.163 149.136  0.00  0.00    +0.000 A 
ENDBRANCH   7  18
BRANCH   6  24
ATOM     24  O   UNL     1     105.441 124.593 146.562  0.00  0.00    +0.000 OA
BRANCH  24  33
ATOM     25  O   UNL     1     105.175 125.913 146.084  0.00  0.00    +0.000 OA
ATOM     26  O   UNL     1     106.546 125.461 144.073  0.00  0.00    +0.000 OA
ATOM     27  O   UNL     1     105.823 126.930 144.265  0.00  0.00    +0.000 OA
ATOM     28  O   UNL     1     106.355 124.292 145.222  0.00  0.00    +0.000 OA
ATOM     29  C   UNL     1     106.089 125.611 144.744  0.00  0.00    +0.000 C 
ATOM     30  C   UNL     1     105.727 126.346 144.840  0.00  0.00    +0.000 C 
ATOM     31  C   UNL     1     105.993 125.027 145.319  0.00  0.00    +0.000 C 
ATOM     32  C   UNL     1     105.270 126.497 145.510  0.00  0.00    +0.000 C 
ATOM     33  C   UNL     1     105.536 125.177 145.989  0.00  0.00    +0.000 C 
BRANCH  32  35
ATOM     34  O   UNL     1     105.197 127.764 146.166  0.00  0.00    +0.000 OA
ATOM     35  C   UNL     1     104.909 127.232 145.605  0.00  0.00    +0.000 C 
ENDBRANCH  32  35
ENDBRANCH  24  33
ENDBRANCH   6  24
TORSDOF 4
ENDMDL
MODEL 9
REMARK VINA RESULT:      -9.2     10.470     12.879
REMARK  Name = 15559736
REMARK  4 active torsions:
REMARK  status: ('A' for Active; 'I' for Inactive)
REMARK    1  A    between atoms: O_2  and  C_19
REMARK    2  A    between atoms: O_2  and  C_21
REMARK    3  A    between atoms: C_18  and  C_20
REMARK    4  A    between atoms: C_22  and  C_26
REMARK                            x       y       z     vdW  Elec       q    Type
REMARK                         _______ _______ _______ _____ _____    ______ ____
ROOT
ATOM      1  O   UNL     1     112.470 130.823 136.722  0.00  0.00    +0.000 OA
ATOM      2  O   UNL     1     111.240 129.272 135.235  0.00  0.00    +0.000 OA
ATOM      3  O   UNL     1     112.478 128.704 134.757  0.00  0.00    +0.000 OA
ATOM      4  O   UNL     1     114.145 130.808 136.774  0.00  0.00    +0.000 OA
ATOM      5  O   UNL     1     115.006 129.725 135.803  0.00  0.00    +0.000 OA
ATOM      6  C   UNL     1     111.235 130.319 136.207  0.00  0.00    +0.000 A 
ATOM      7  C   UNL     1     111.645 130.837 136.703  0.00  0.00    +0.000 A 
ATOM      8  C   UNL     1     111.651 129.789 135.731  0.00  0.00    +0.000 A 
ATOM      9  C   UNL     1     112.475 129.775 135.750  0.00  0.00    +0.000 A 
ATOM     10  C   UNL     1     112.884 130.292 136.245  0.00  0.00    +0.000 A 
ATOM     11  C   UNL     1     112.896 129.218 135.249  0.00  0.00    +0.000 A 
ATOM     12  C   UNL     1     113.743 130.288 136.275  0.00  0.00    +0.000 A 
ATOM     13  C   UNL     1     113.755 129.199 135.265  0.00  0.00    +0.000 A 
ATOM     14  C   UNL     1     114.182 129.737 135.781  0.00  0.00    +0.000 A 
ENDROOT
BRANCH   7  18
ATOM     15  O   UNL     1     110.182 133.273 137.002  0.00  0.00    +0.000 OA
ATOM     16  O   UNL     1     110.616 131.581 139.263  0.00  0.00    +0.000 OA
ATOM     17  O   UNL     1     109.984 132.957 138.609  0.00  0.00    +0.000 OA
ATOM     18  C   UNL     1     111.230 131.367 137.179  0.00  0.00    +0.000 A 
ATOM     19  C   UNL     1     111.131 131.209 137.983  0.00  0.00    +0.000 A 
ATOM     20  C   UNL     1     110.914 132.055 136.851  0.00  0.00    +0.000 A 
ATOM     21  C   UNL     1     110.498 132.585 137.329  0.00  0.00    +0.000 A 
ATOM     22  C   UNL     1     110.715 131.739 138.459  0.00  0.00    +0.000 A 
ATOM     23  C   UNL     1     110.399 132.427 138.132  0.00  0.00    +0.000 A 
ENDBRANCH   7  18
BRANCH   6  24
ATOM     24  O   UNL     1     110.411 130.333 136.187  0.00  0.00    +0.000 OA
BRANCH  24  33
ATOM     25  O   UNL     1     110.263 129.108 136.908  0.00  0.00    +0.000 OA
ATOM     26  O   UNL     1     108.139 128.664 135.717  0.00  0.00    +0.000 OA
ATOM     27  O   UNL     1     108.699 127.588 136.833  0.00  0.00    +0.000 OA
ATOM     28  O   UNL     1     108.995 130.037 135.393  0.00  0.00    +0.000 OA
ATOM     29  C   UNL     1     108.847 128.812 136.114  0.00  0.00    +0.000 C 
ATOM     30  C   UNL     1     109.127 128.274 136.672  0.00  0.00    +0.000 C 
ATOM     31  C   UNL     1     109.275 129.499 135.952  0.00  0.00    +0.000 C 
ATOM     32  C   UNL     1     109.835 128.422 137.069  0.00  0.00    +0.000 C 
ATOM     33  C   UNL     1     109.983 129.647 136.349  0.00  0.00    +0.000 C 
BRANCH  32  35
ATOM     34  O   UNL     1     110.192 128.109 138.417  0.00  0.00    +0.000 OA
ATOM     35  C   UNL     1     110.115 127.883 137.627  0.00  0.00    +0.000 C 
ENDBRANCH  32  35
ENDBRANCH  24  33
ENDBRANCH   6  24
TORSDOF 4
ENDMDL
MODEL 10
REMARK VINA RESULT:      -9.2     10.365     12.705
REMARK  Name = 15559736
REMARK  4 active torsions:
REMARK  status: ('A' for Active; 'I' for Inactive)
REMARK    1  A    between atoms: O_2  and  C_19
REMARK    2  A    between atoms: O_2  and  C_21
REMARK    3  A    between atoms: C_18  and  C_20
REMARK    4  A    between atoms: C_22  and  C_26
REMARK                            x       y       z     vdW  Elec       q    Type
REMARK                         _______ _______ _______ _____ _____    ______ ____
ROOT
ATOM      1  O   UNL     1     113.076 126.580 136.623  0.00  0.00    +0.000 OA
ATOM      2  O   UNL     1     110.864 126.412 135.524  0.00  0.00    +0.000 OA
ATOM      3  O   UNL     1     110.827 124.988 135.751  0.00  0.00    +0.000 OA
ATOM      4  O   UNL     1     113.827 125.215 137.243  0.00  0.00    +0.000 OA
ATOM      5  O   UNL     1     113.070 123.710 137.117  0.00  0.00    +0.000 OA
ATOM      6  C   UNL     1     111.976 127.201 135.955  0.00  0.00    +0.000 A 
ATOM      7  C   UNL     1     112.713 127.256 136.321  0.00  0.00    +0.000 A 
ATOM      8  C   UNL     1     111.602 126.468 135.891  0.00  0.00    +0.000 A 
ATOM      9  C   UNL     1     111.965 125.792 136.193  0.00  0.00    +0.000 A 
ATOM     10  C   UNL     1     112.701 125.848 136.559  0.00  0.00    +0.000 A 
ATOM     11  C   UNL     1     111.564 125.035 136.120  0.00  0.00    +0.000 A 
ATOM     12  C   UNL     1     113.090 125.151 136.878  0.00  0.00    +0.000 A 
ATOM     13  C   UNL     1     111.937 124.327 136.433  0.00  0.00    +0.000 A 
ATOM     14  C   UNL     1     112.705 124.385 136.814  0.00  0.00    +0.000 A 
ENDROOT
BRANCH   7  18
ATOM     15  O   UNL     1     113.460 129.527 137.888  0.00  0.00    +0.000 OA
ATOM     16  O   UNL     1     114.211 129.382 135.134  0.00  0.00    +0.000 OA
ATOM     17  O   UNL     1     114.210 130.187 136.574  0.00  0.00    +0.000 OA
ATOM     18  C   UNL     1     113.087 127.989 136.385  0.00  0.00    +0.000 A 
ATOM     19  C   UNL     1     113.462 128.319 135.728  0.00  0.00    +0.000 A 
ATOM     20  C   UNL     1     113.087 128.392 137.105  0.00  0.00    +0.000 A 
ATOM     21  C   UNL     1     113.461 129.124 137.168  0.00  0.00    +0.000 A 
ATOM     22  C   UNL     1     113.836 129.051 135.792  0.00  0.00    +0.000 A 
ATOM     23  C   UNL     1     113.835 129.454 136.512  0.00  0.00    +0.000 A 
ENDBRANCH   7  18
BRANCH   6  24
ATOM     24  O   UNL     1     111.613 127.877 135.652  0.00  0.00    +0.000 OA
BRANCH  24  33
ATOM     25  O   UNL     1     110.659 127.979 136.711  0.00  0.00    +0.000 OA
ATOM     26  O   UNL     1     109.037 129.010 135.151  0.00  0.00    +0.000 OA
ATOM     27  O   UNL     1     108.624 128.767 136.729  0.00  0.00    +0.000 OA
ATOM     28  O   UNL     1     110.532 128.564 134.612  0.00  0.00    +0.000 OA
ATOM     29  C   UNL     1     109.578 128.666 135.671  0.00  0.00    +0.000 C 
ATOM     30  C   UNL     1     109.371 128.545 136.460  0.00  0.00    +0.000 C 
ATOM     31  C   UNL     1     110.326 128.443 135.401  0.00  0.00    +0.000 C 
ATOM     32  C   UNL     1     109.912 128.201 136.980  0.00  0.00    +0.000 C 
ATOM     33  C   UNL     1     110.866 128.100 135.921  0.00  0.00    +0.000 C 
BRANCH  32  35
ATOM     34  O   UNL     1     110.124 128.461 138.369  0.00  0.00    +0.000 OA
ATOM     35  C   UNL     1     109.705 128.080 137.769  0.00  0.00    +0.000 C 
ENDBRANCH  32  35
ENDBRANCH  24  33
ENDBRANCH   6  24
TORSDOF 4
ENDMDL
