MODEL 1
REMARK VINA RESULT:      -8.3      0.000      0.000
REMARK  Name = 21599528
REMARK  5 active torsions:
REMARK  status: ('A' for Active; 'I' for Inactive)
REMARK    1  A    between atoms: O_2  and  C_14
REMARK    2  A    between atoms: O_3  and  C_15
REMARK    3  A    between atoms: O_4  and  C_18
REMARK    4  A    between atoms: O_8  and  C_24
REMARK    5  A    between atoms: C_12  and  C_17
REMARK                            x       y       z     vdW  Elec       q    Type
REMARK                         _______ _______ _______ _____ _____    ______ ____
ROOT
ATOM      1  O   UNL     1     104.475 124.078 146.912  0.00  0.00    +0.000 OA
ATOM      2  O   UNL     1     101.736 124.940 147.278  0.00  0.00    +0.000 OA
ATOM      3  O   UNL     1     102.317 122.740 145.549  0.00  0.00    +0.000 OA
ATOM      4  O   UNL     1     102.788 125.637 147.978  0.00  0.00    +0.000 OA
ATOM      5  C   UNL     1     103.087 124.513 147.096  0.00  0.00    +0.000 A 
ATOM      6  C   UNL     1     103.635 124.003 146.746  0.00  0.00    +0.000 A 
ATOM      7  C   UNL     1     104.748 124.692 147.448  0.00  0.00    +0.000 A 
ATOM      8  C   UNL     1     103.342 125.132 147.633  0.00  0.00    +0.000 A 
ATOM      9  C   UNL     1     104.178 125.223 147.811  0.00  0.00    +0.000 A 
ATOM     10  C   UNL     1     103.378 123.412 146.231  0.00  0.00    +0.000 A 
ATOM     11  C   UNL     1     102.283 124.431 146.929  0.00  0.00    +0.000 A 
ATOM     12  C   UNL     1     102.027 123.841 146.414  0.00  0.00    +0.000 A 
ATOM     13  C   UNL     1     102.574 123.331 146.065  0.00  0.00    +0.000 A 
ENDROOT
BRANCH   7  15
ATOM     14  O   UNL     1     107.345 125.626 146.706  0.00  0.00    +0.000 OA
ATOM     15  C   UNL     1     105.553 124.771 147.612  0.00  0.00    +0.000 A 
ATOM     16  C   UNL     1     106.047 125.159 147.077  0.00  0.00    +0.000 A 
ATOM     17  C   UNL     1     105.863 124.463 148.312  0.00  0.00    +0.000 A 
ATOM     18  C   UNL     1     106.851 125.238 147.241  0.00  0.00    +0.000 A 
ATOM     19  C   UNL     1     106.668 124.543 148.476  0.00  0.00    +0.000 A 
ATOM     20  C   UNL     1     107.162 124.930 147.942  0.00  0.00    +0.000 A 
BRANCH  20  21
ATOM     21  O   UNL     1     107.966 125.010 148.105  0.00  0.00    +0.000 OA
ATOM     22  C   UNL     1     108.277 124.700 148.803  0.00  0.00    +0.000 C 
ENDBRANCH  20  21
ENDBRANCH   7  15
BRANCH   9  23
ATOM     23  O   UNL     1     104.432 125.815 148.327  0.00  0.00    +0.000 OA
ATOM     24  C   UNL     1     103.881 126.310 148.689  0.00  0.00    +0.000 C 
ENDBRANCH   9  23
BRANCH  10  25
ATOM     25  O   UNL     1     103.925 122.903 145.882  0.00  0.00    +0.000 OA
ATOM     26  C   UNL     1     103.891 122.754 145.072  0.00  0.00    +0.000 C 
ENDBRANCH  10  25
BRANCH  12  27
ATOM     27  O   UNL     1     101.223 123.758 146.247  0.00  0.00    +0.000 OA
ATOM     28  C   UNL     1     100.767 123.216 146.668  0.00  0.00    +0.000 C 
ENDBRANCH  12  27
TORSDOF 5
ENDMDL
MODEL 2
REMARK VINA RESULT:      -7.8     12.984     14.289
REMARK  Name = 21599528
REMARK  5 active torsions:
REMARK  status: ('A' for Active; 'I' for Inactive)
REMARK    1  A    between atoms: O_2  and  C_14
REMARK    2  A    between atoms: O_3  and  C_15
REMARK    3  A    between atoms: O_4  and  C_18
REMARK    4  A    between atoms: O_8  and  C_24
REMARK    5  A    between atoms: C_12  and  C_17
REMARK                            x       y       z     vdW  Elec       q    Type
REMARK                         _______ _______ _______ _____ _____    ______ ____
ROOT
ATOM      1  O   UNL     1     113.398 126.730 136.623  0.00  0.00    +0.000 OA
ATOM      2  O   UNL     1     111.233 124.921 135.973  0.00  0.00    +0.000 OA
ATOM      3  O   UNL     1     113.652 123.900 137.102  0.00  0.00    +0.000 OA
ATOM      4  O   UNL     1     111.067 126.332 135.718  0.00  0.00    +0.000 OA
ATOM      5  C   UNL     1     112.303 125.812 136.294  0.00  0.00    +0.000 A 
ATOM      6  C   UNL     1     113.063 125.939 136.590  0.00  0.00    +0.000 A 
ATOM      7  C   UNL     1     112.934 127.398 136.344  0.00  0.00    +0.000 A 
ATOM      8  C   UNL     1     111.826 126.468 136.012  0.00  0.00    +0.000 A 
ATOM      9  C   UNL     1     112.142 127.266 136.036  0.00  0.00    +0.000 A 
ATOM     10  C   UNL     1     113.513 125.301 136.859  0.00  0.00    +0.000 A 
ATOM     11  C   UNL     1     111.993 125.048 136.268  0.00  0.00    +0.000 A 
ATOM     12  C   UNL     1     112.442 124.411 136.537  0.00  0.00    +0.000 A 
ATOM     13  C   UNL     1     113.203 124.538 136.833  0.00  0.00    +0.000 A 
ENDROOT
BRANCH   7  15
ATOM     14  O   UNL     1     114.524 129.464 135.174  0.00  0.00    +0.000 OA
ATOM     15  C   UNL     1     113.247 128.161 136.371  0.00  0.00    +0.000 A 
ATOM     16  C   UNL     1     113.729 128.431 135.759  0.00  0.00    +0.000 A 
ATOM     17  C   UNL     1     113.078 128.654 137.011  0.00  0.00    +0.000 A 
ATOM     18  C   UNL     1     114.042 129.194 135.786  0.00  0.00    +0.000 A 
ATOM     19  C   UNL     1     113.391 129.417 137.038  0.00  0.00    +0.000 A 
ATOM     20  C   UNL     1     113.872 129.687 136.426  0.00  0.00    +0.000 A 
BRANCH  20  21
ATOM     21  O   UNL     1     114.186 130.449 136.453  0.00  0.00    +0.000 OA
ATOM     22  C   UNL     1     113.924 130.982 137.026  0.00  0.00    +0.000 C 
ENDBRANCH  20  21
ENDBRANCH   7  15
BRANCH   9  23
ATOM     23  O   UNL     1     111.691 127.902 135.766  0.00  0.00    +0.000 OA
ATOM     24  C   UNL     1     111.094 127.777 135.211  0.00  0.00    +0.000 C 
ENDBRANCH   9  23
BRANCH  10  25
ATOM     25  O   UNL     1     114.272 125.428 137.154  0.00  0.00    +0.000 OA
ATOM     26  C   UNL     1     114.918 125.054 136.805  0.00  0.00    +0.000 C 
ENDBRANCH  10  25
BRANCH  12  27
ATOM     27  O   UNL     1     112.132 123.647 136.511  0.00  0.00    +0.000 OA
ATOM     28  C   UNL     1     111.824 123.303 137.194  0.00  0.00    +0.000 C 
ENDBRANCH  12  27
TORSDOF 5
ENDMDL
MODEL 3
REMARK VINA RESULT:      -7.8      1.620      2.299
REMARK  Name = 21599528
REMARK  5 active torsions:
REMARK  status: ('A' for Active; 'I' for Inactive)
REMARK    1  A    between atoms: O_2  and  C_14
REMARK    2  A    between atoms: O_3  and  C_15
REMARK    3  A    between atoms: O_4  and  C_18
REMARK    4  A    between atoms: O_8  and  C_24
REMARK    5  A    between atoms: C_12  and  C_17
REMARK                            x       y       z     vdW  Elec       q    Type
REMARK                         _______ _______ _______ _____ _____    ______ ____
ROOT
ATOM      1  O   UNL     1     103.496 124.481 146.341  0.00  0.00    +0.000 OA
ATOM      2  O   UNL     1     102.717 123.898 149.067  0.00  0.00    +0.000 OA
ATOM      3  O   UNL     1     100.925 123.315 146.918  0.00  0.00    +0.000 OA
ATOM      4  O   UNL     1     104.013 124.482 148.820  0.00  0.00    +0.000 OA
ATOM      5  C   UNL     1     103.100 124.185 147.721  0.00  0.00    +0.000 A 
ATOM      6  C   UNL     1     102.929 124.183 146.913  0.00  0.00    +0.000 A 
ATOM      7  C   UNL     1     104.253 124.784 146.613  0.00  0.00    +0.000 A 
ATOM      8  C   UNL     1     103.850 124.484 148.011  0.00  0.00    +0.000 A 
ATOM      9  C   UNL     1     104.432 124.786 147.455  0.00  0.00    +0.000 A 
ATOM     10  C   UNL     1     102.204 123.893 146.646  0.00  0.00    +0.000 A 
ATOM     11  C   UNL     1     102.546 123.897 148.260  0.00  0.00    +0.000 A 
ATOM     12  C   UNL     1     101.822 123.607 147.993  0.00  0.00    +0.000 A 
ATOM     13  C   UNL     1     101.650 123.605 147.185  0.00  0.00    +0.000 A 
ENDROOT
BRANCH   7  15
ATOM     14  O   UNL     1     106.360 124.313 144.741  0.00  0.00    +0.000 OA
ATOM     15  C   UNL     1     104.805 125.072 146.072  0.00  0.00    +0.000 A 
ATOM     16  C   UNL     1     105.307 124.549 145.677  0.00  0.00    +0.000 A 
ATOM     17  C   UNL     1     104.855 125.882 145.924  0.00  0.00    +0.000 A 
ATOM     18  C   UNL     1     105.858 124.836 145.136  0.00  0.00    +0.000 A 
ATOM     19  C   UNL     1     105.407 126.169 145.382  0.00  0.00    +0.000 A 
ATOM     20  C   UNL     1     105.908 125.647 144.988  0.00  0.00    +0.000 A 
BRANCH  20  21
ATOM     21  O   UNL     1     106.460 125.933 144.446  0.00  0.00    +0.000 OA
ATOM     22  C   UNL     1     106.455 126.731 144.236  0.00  0.00    +0.000 C 
ENDBRANCH  20  21
ENDBRANCH   7  15
BRANCH   9  23
ATOM     23  O   UNL     1     105.155 125.075 147.725  0.00  0.00    +0.000 OA
ATOM     24  C   UNL     1     105.401 124.917 148.497  0.00  0.00    +0.000 C 
ENDBRANCH   9  23
BRANCH  10  25
ATOM     25  O   UNL     1     102.032 123.892 145.839  0.00  0.00    +0.000 OA
ATOM     26  C   UNL     1     101.816 123.190 145.465  0.00  0.00    +0.000 C 
ENDBRANCH  10  25
BRANCH  12  27
ATOM     27  O   UNL     1     101.267 123.319 148.532  0.00  0.00    +0.000 OA
ATOM     28  C   UNL     1     100.711 123.828 148.865  0.00  0.00    +0.000 C 
ENDBRANCH  12  27
TORSDOF 5
ENDMDL
MODEL 4
REMARK VINA RESULT:      -7.7      1.354      2.521
REMARK  Name = 21599528
REMARK  5 active torsions:
REMARK  status: ('A' for Active; 'I' for Inactive)
REMARK    1  A    between atoms: O_2  and  C_14
REMARK    2  A    between atoms: O_3  and  C_15
REMARK    3  A    between atoms: O_4  and  C_18
REMARK    4  A    between atoms: O_8  and  C_24
REMARK    5  A    between atoms: C_12  and  C_17
REMARK                            x       y       z     vdW  Elec       q    Type
REMARK                         _______ _______ _______ _____ _____    ______ ____
ROOT
ATOM      1  O   UNL     1     104.555 124.962 146.949  0.00  0.00    +0.000 OA
ATOM      2  O   UNL     1     103.280 122.861 145.420  0.00  0.00    +0.000 OA
ATOM      3  O   UNL     1     102.134 123.718 147.894  0.00  0.00    +0.000 OA
ATOM      4  O   UNL     1     104.491 123.459 144.912  0.00  0.00    +0.000 OA
ATOM      5  C   UNL     1     103.908 123.898 146.176  0.00  0.00    +0.000 A 
ATOM      6  C   UNL     1     103.926 124.387 146.842  0.00  0.00    +0.000 A 
ATOM      7  C   UNL     1     105.174 125.029 146.356  0.00  0.00    +0.000 A 
ATOM      8  C   UNL     1     104.517 123.951 145.574  0.00  0.00    +0.000 A 
ATOM      9  C   UNL     1     105.155 124.520 145.663  0.00  0.00    +0.000 A 
ATOM     10  C   UNL     1     103.335 124.326 147.414  0.00  0.00    +0.000 A 
ATOM     11  C   UNL     1     103.298 123.349 146.085  0.00  0.00    +0.000 A 
ATOM     12  C   UNL     1     102.707 123.289 146.657  0.00  0.00    +0.000 A 
ATOM     13  C   UNL     1     102.726 123.778 147.322  0.00  0.00    +0.000 A 
ENDROOT
BRANCH   7  15
ATOM     14  O   UNL     1     107.803 125.676 147.269  0.00  0.00    +0.000 OA
ATOM     15  C   UNL     1     105.782 125.578 146.451  0.00  0.00    +0.000 A 
ATOM     16  C   UNL     1     106.489 125.353 146.812  0.00  0.00    +0.000 A 
ATOM     17  C   UNL     1     105.684 126.353 146.184  0.00  0.00    +0.000 A 
ATOM     18  C   UNL     1     107.097 125.902 146.907  0.00  0.00    +0.000 A 
ATOM     19  C   UNL     1     106.293 126.902 146.279  0.00  0.00    +0.000 A 
ATOM     20  C   UNL     1     106.999 126.677 146.640  0.00  0.00    +0.000 A 
BRANCH  20  21
ATOM     21  O   UNL     1     107.607 127.225 146.736  0.00  0.00    +0.000 OA
ATOM     22  C   UNL     1     107.527 127.987 146.429  0.00  0.00    +0.000 C 
ENDBRANCH  20  21
ENDBRANCH   7  15
BRANCH   9  23
ATOM     23  O   UNL     1     105.745 124.578 145.089  0.00  0.00    +0.000 OA
ATOM     24  C   UNL     1     105.573 124.400 144.302  0.00  0.00    +0.000 C 
ENDBRANCH   9  23
BRANCH  10  25
ATOM     25  O   UNL     1     103.353 124.815 148.079  0.00  0.00    +0.000 OA
ATOM     26  C   UNL     1     103.413 124.484 148.831  0.00  0.00    +0.000 C 
ENDBRANCH  10  25
BRANCH  12  27
ATOM     27  O   UNL     1     102.098 122.741 146.565  0.00  0.00    +0.000 OA
ATOM     28  C   UNL     1     101.390 122.966 146.206  0.00  0.00    +0.000 C 
ENDBRANCH  12  27
TORSDOF 5
ENDMDL
MODEL 5
REMARK VINA RESULT:      -7.5      9.216     11.214
REMARK  Name = 21599528
REMARK  5 active torsions:
REMARK  status: ('A' for Active; 'I' for Inactive)
REMARK    1  A    between atoms: O_2  and  C_14
REMARK    2  A    between atoms: O_3  and  C_15
REMARK    3  A    between atoms: O_4  and  C_18
REMARK    4  A    between atoms: O_8  and  C_24
REMARK    5  A    between atoms: C_12  and  C_17
REMARK                            x       y       z     vdW  Elec       q    Type
REMARK                         _______ _______ _______ _____ _____    ______ ____
ROOT
ATOM      1  O   UNL     1     111.591 131.633 145.223  0.00  0.00    +0.000 OA
ATOM      2  O   UNL     1     112.113 132.149 142.423  0.00  0.00    +0.000 OA
ATOM      3  O   UNL     1     111.771 129.463 143.337  0.00  0.00    +0.000 OA
ATOM      4  O   UNL     1     112.030 133.264 143.337  0.00  0.00    +0.000 OA
ATOM      5  C   UNL     1     111.855 131.893 143.805  0.00  0.00    +0.000 A 
ATOM      6  C   UNL     1     111.712 131.359 144.419  0.00  0.00    +0.000 A 
ATOM      7  C   UNL     1     111.619 132.476 145.392  0.00  0.00    +0.000 A 
ATOM      8  C   UNL     1     111.887 132.737 143.955  0.00  0.00    +0.000 A 
ATOM      9  C   UNL     1     111.768 133.032 144.754  0.00  0.00    +0.000 A 
ATOM     10  C   UNL     1     111.684 130.549 144.262  0.00  0.00    +0.000 A 
ATOM     11  C   UNL     1     111.970 131.616 143.036  0.00  0.00    +0.000 A 
ATOM     12  C   UNL     1     111.942 130.807 142.880  0.00  0.00    +0.000 A 
ATOM     13  C   UNL     1     111.799 130.273 143.494  0.00  0.00    +0.000 A 
ENDROOT
BRANCH   7  15
ATOM     14  O   UNL     1     109.910 133.591 147.392  0.00  0.00    +0.000 OA
ATOM     15  C   UNL     1     111.504 132.749 146.162  0.00  0.00    +0.000 A 
ATOM     16  C   UNL     1     110.765 133.034 146.393  0.00  0.00    +0.000 A 
ATOM     17  C   UNL     1     112.128 132.738 146.702  0.00  0.00    +0.000 A 
ATOM     18  C   UNL     1     110.649 133.307 147.162  0.00  0.00    +0.000 A 
ATOM     19  C   UNL     1     112.012 133.012 147.472  0.00  0.00    +0.000 A 
ATOM     20  C   UNL     1     111.274 133.296 147.702  0.00  0.00    +0.000 A 
BRANCH  20  21
ATOM     21  O   UNL     1     111.158 133.570 148.471  0.00  0.00    +0.000 OA
ATOM     22  C   UNL     1     111.708 133.390 149.059  0.00  0.00    +0.000 C 
ENDBRANCH  20  21
ENDBRANCH   7  15
BRANCH   9  23
ATOM     23  O   UNL     1     111.797 133.842 144.907  0.00  0.00    +0.000 OA
ATOM     24  C   UNL     1     111.947 134.373 144.293  0.00  0.00    +0.000 C 
ENDBRANCH   9  23
BRANCH  10  25
ATOM     25  O   UNL     1     111.541 130.015 144.875  0.00  0.00    +0.000 OA
ATOM     26  C   UNL     1     110.872 129.535 144.855  0.00  0.00    +0.000 C 
ENDBRANCH  10  25
BRANCH  12  27
ATOM     27  O   UNL     1     112.057 130.530 142.111  0.00  0.00    +0.000 OA
ATOM     28  C   UNL     1     112.807 130.294 141.865  0.00  0.00    +0.000 C 
ENDBRANCH  12  27
TORSDOF 5
ENDMDL
MODEL 6
REMARK VINA RESULT:      -7.5      1.698      4.657
REMARK  Name = 21599528
REMARK  5 active torsions:
REMARK  status: ('A' for Active; 'I' for Inactive)
REMARK    1  A    between atoms: O_2  and  C_14
REMARK    2  A    between atoms: O_3  and  C_15
REMARK    3  A    between atoms: O_4  and  C_18
REMARK    4  A    between atoms: O_8  and  C_24
REMARK    5  A    between atoms: C_12  and  C_17
REMARK                            x       y       z     vdW  Elec       q    Type
REMARK                         _______ _______ _______ _____ _____    ______ ____
ROOT
ATOM      1  O   UNL     1     103.916 125.069 146.797  0.00  0.00    +0.000 OA
ATOM      2  O   UNL     1     106.080 124.577 144.939  0.00  0.00    +0.000 OA
ATOM      3  O   UNL     1     105.985 127.034 146.396  0.00  0.00    +0.000 OA
ATOM      4  O   UNL     1     105.063 123.567 145.112  0.00  0.00    +0.000 OA
ATOM      5  C   UNL     1     105.013 124.821 145.857  0.00  0.00    +0.000 A 
ATOM      6  C   UNL     1     104.641 125.313 146.406  0.00  0.00    +0.000 A 
ATOM      7  C   UNL     1     103.574 124.302 146.614  0.00  0.00    +0.000 A 
ATOM      8  C   UNL     1     104.685 124.053 145.662  0.00  0.00    +0.000 A 
ATOM      9  C   UNL     1     103.961 123.790 146.042  0.00  0.00    +0.000 A 
ATOM     10  C   UNL     1     104.966 126.050 146.585  0.00  0.00    +0.000 A 
ATOM     11  C   UNL     1     105.709 125.068 145.488  0.00  0.00    +0.000 A 
ATOM     12  C   UNL     1     106.033 125.804 145.667  0.00  0.00    +0.000 A 
ATOM     13  C   UNL     1     105.661 126.296 146.217  0.00  0.00    +0.000 A 
ENDROOT
BRANCH   7  15
ATOM     14  O   UNL     1     100.721 124.155 146.669  0.00  0.00    +0.000 OA
ATOM     15  C   UNL     1     102.878 124.059 146.985  0.00  0.00    +0.000 A 
ATOM     16  C   UNL     1     102.147 124.228 146.642  0.00  0.00    +0.000 A 
ATOM     17  C   UNL     1     102.913 123.646 147.698  0.00  0.00    +0.000 A 
ATOM     18  C   UNL     1     101.452 123.985 147.012  0.00  0.00    +0.000 A 
ATOM     19  C   UNL     1     102.217 123.403 148.069  0.00  0.00    +0.000 A 
ATOM     20  C   UNL     1     101.486 123.572 147.726  0.00  0.00    +0.000 A 
BRANCH  20  21
ATOM     21  O   UNL     1     100.790 123.329 148.096  0.00  0.00    +0.000 OA
ATOM     22  C   UNL     1     100.821 122.979 148.842  0.00  0.00    +0.000 C 
ENDBRANCH  20  21
ENDBRANCH   7  15
BRANCH   9  23
ATOM     23  O   UNL     1     103.639 123.052 145.861  0.00  0.00    +0.000 OA
ATOM     24  C   UNL     1     103.727 122.739 145.103  0.00  0.00    +0.000 C 
ENDBRANCH   9  23
BRANCH  10  25
ATOM     25  O   UNL     1     104.594 126.542 147.134  0.00  0.00    +0.000 OA
ATOM     26  C   UNL     1     104.989 126.763 147.823  0.00  0.00    +0.000 C 
ENDBRANCH  10  25
BRANCH  12  27
ATOM     27  O   UNL     1     106.728 126.051 145.298  0.00  0.00    +0.000 OA
ATOM     28  C   UNL     1     106.693 126.532 144.630  0.00  0.00    +0.000 C 
ENDBRANCH  12  27
TORSDOF 5
ENDMDL
MODEL 7
REMARK VINA RESULT:      -7.5     10.642     12.507
REMARK  Name = 21599528
REMARK  5 active torsions:
REMARK  status: ('A' for Active; 'I' for Inactive)
REMARK    1  A    between atoms: O_2  and  C_14
REMARK    2  A    between atoms: O_3  and  C_15
REMARK    3  A    between atoms: O_4  and  C_18
REMARK    4  A    between atoms: O_8  and  C_24
REMARK    5  A    between atoms: C_12  and  C_17
REMARK                            x       y       z     vdW  Elec       q    Type
REMARK                         _______ _______ _______ _____ _____    ______ ____
ROOT
ATOM      1  O   UNL     1     113.452 126.205 138.433  0.00  0.00    +0.000 OA
ATOM      2  O   UNL     1     111.099 124.702 137.671  0.00  0.00    +0.000 OA
ATOM      3  O   UNL     1     113.582 124.232 136.337  0.00  0.00    +0.000 OA
ATOM      4  O   UNL     1     110.992 125.681 138.726  0.00  0.00    +0.000 OA
ATOM      5  C   UNL     1     112.261 125.443 138.046  0.00  0.00    +0.000 A 
ATOM      6  C   UNL     1     113.064 125.612 137.948  0.00  0.00    +0.000 A 
ATOM      7  C   UNL     1     112.999 126.629 139.028  0.00  0.00    +0.000 A 
ATOM      8  C   UNL     1     111.793 125.856 138.635  0.00  0.00    +0.000 A 
ATOM      9  C   UNL     1     112.163 126.453 139.130  0.00  0.00    +0.000 A 
ATOM     10  C   UNL     1     113.504 125.208 137.378  0.00  0.00    +0.000 A 
ATOM     11  C   UNL     1     111.900 124.871 137.573  0.00  0.00    +0.000 A 
ATOM     12  C   UNL     1     112.340 124.467 137.004  0.00  0.00    +0.000 A 
ATOM     13  C   UNL     1     113.143 124.636 136.907  0.00  0.00    +0.000 A 
ENDROOT
BRANCH   7  15
ATOM     14  O   UNL     1     114.655 127.312 141.254  0.00  0.00    +0.000 OA
ATOM     15  C   UNL     1     113.363 127.200 139.499  0.00  0.00    +0.000 A 
ATOM     16  C   UNL     1     113.827 126.971 140.141  0.00  0.00    +0.000 A 
ATOM     17  C   UNL     1     113.263 128.001 139.327  0.00  0.00    +0.000 A 
ATOM     18  C   UNL     1     114.191 127.541 140.612  0.00  0.00    +0.000 A 
ATOM     19  C   UNL     1     113.628 128.572 139.798  0.00  0.00    +0.000 A 
ATOM     20  C   UNL     1     114.091 128.343 140.440  0.00  0.00    +0.000 A 
BRANCH  20  21
ATOM     21  O   UNL     1     114.456 128.913 140.911  0.00  0.00    +0.000 OA
ATOM     22  C   UNL     1     114.382 129.713 140.721  0.00  0.00    +0.000 C 
ENDBRANCH  20  21
ENDBRANCH   7  15
BRANCH   9  23
ATOM     23  O   UNL     1     111.721 126.855 139.698  0.00  0.00    +0.000 OA
ATOM     24  C   UNL     1     110.998 126.548 139.951  0.00  0.00    +0.000 C 
ENDBRANCH   9  23
BRANCH  10  25
ATOM     25  O   UNL     1     114.305 125.376 137.281  0.00  0.00    +0.000 OA
ATOM     26  C   UNL     1     114.588 125.627 136.548  0.00  0.00    +0.000 C 
ENDBRANCH  10  25
BRANCH  12  27
ATOM     27  O   UNL     1     111.979 123.895 136.532  0.00  0.00    +0.000 OA
ATOM     28  C   UNL     1     111.962 123.108 136.777  0.00  0.00    +0.000 C 
ENDBRANCH  12  27
TORSDOF 5
ENDMDL
MODEL 8
REMARK VINA RESULT:      -7.5     11.029     12.543
REMARK  Name = 21599528
REMARK  5 active torsions:
REMARK  status: ('A' for Active; 'I' for Inactive)
REMARK    1  A    between atoms: O_2  and  C_14
REMARK    2  A    between atoms: O_3  and  C_15
REMARK    3  A    between atoms: O_4  and  C_18
REMARK    4  A    between atoms: O_8  and  C_24
REMARK    5  A    between atoms: C_12  and  C_17
REMARK                            x       y       z     vdW  Elec       q    Type
REMARK                         _______ _______ _______ _____ _____    ______ ____
ROOT
ATOM      1  O   UNL     1     112.107 125.936 137.820  0.00  0.00    +0.000 OA
ATOM      2  O   UNL     1     111.028 127.213 135.457  0.00  0.00    +0.000 OA
ATOM      3  O   UNL     1     110.987 124.364 135.681  0.00  0.00    +0.000 OA
ATOM      4  O   UNL     1     111.580 128.036 136.507  0.00  0.00    +0.000 OA
ATOM      5  C   UNL     1     111.560 126.581 136.623  0.00  0.00    +0.000 A 
ATOM      6  C   UNL     1     111.731 125.894 137.049  0.00  0.00    +0.000 A 
ATOM      7  C   UNL     1     112.309 126.703 138.153  0.00  0.00    +0.000 A 
ATOM      8  C   UNL     1     111.754 127.355 136.939  0.00  0.00    +0.000 A 
ATOM      9  C   UNL     1     112.131 127.418 137.709  0.00  0.00    +0.000 A 
ATOM     10  C   UNL     1     111.540 125.156 136.735  0.00  0.00    +0.000 A 
ATOM     11  C   UNL     1     111.198 126.527 135.883  0.00  0.00    +0.000 A 
ATOM     12  C   UNL     1     111.007 125.789 135.569  0.00  0.00    +0.000 A 
ATOM     13  C   UNL     1     111.178 125.103 135.996  0.00  0.00    +0.000 A 
ENDROOT
BRANCH   7  15
ATOM     14  O   UNL     1     112.116 126.746 141.003  0.00  0.00    +0.000 OA
ATOM     15  C   UNL     1     112.671 126.753 138.892  0.00  0.00    +0.000 A 
ATOM     16  C   UNL     1     112.213 126.724 139.578  0.00  0.00    +0.000 A 
ATOM     17  C   UNL     1     113.490 126.832 138.947  0.00  0.00    +0.000 A 
ATOM     18  C   UNL     1     112.574 126.774 140.317  0.00  0.00    +0.000 A 
ATOM     19  C   UNL     1     113.851 126.882 139.687  0.00  0.00    +0.000 A 
ATOM     20  C   UNL     1     113.394 126.853 140.372  0.00  0.00    +0.000 A 
BRANCH  20  21
ATOM     21  O   UNL     1     113.754 126.903 141.112  0.00  0.00    +0.000 OA
ATOM     22  C   UNL     1     114.566 127.043 141.166  0.00  0.00    +0.000 C 
ENDBRANCH  20  21
ENDBRANCH   7  15
BRANCH   9  23
ATOM     23  O   UNL     1     112.321 128.158 138.020  0.00  0.00    +0.000 OA
ATOM     24  C   UNL     1     111.913 128.829 137.768  0.00  0.00    +0.000 C 
ENDBRANCH   9  23
BRANCH  10  25
ATOM     25  O   UNL     1     111.710 124.470 137.160  0.00  0.00    +0.000 OA
ATOM     26  C   UNL     1     112.213 123.901 136.840  0.00  0.00    +0.000 C 
ENDBRANCH  10  25
BRANCH  12  27
ATOM     27  O   UNL     1     110.646 125.736 134.830  0.00  0.00    +0.000 OA
ATOM     28  C   UNL     1     109.824 125.758 134.769  0.00  0.00    +0.000 C 
ENDBRANCH  12  27
TORSDOF 5
ENDMDL
MODEL 9
REMARK VINA RESULT:      -7.5      7.735      8.773
REMARK  Name = 21599528
REMARK  5 active torsions:
REMARK  status: ('A' for Active; 'I' for Inactive)
REMARK    1  A    between atoms: O_2  and  C_14
REMARK    2  A    between atoms: O_3  and  C_15
REMARK    3  A    between atoms: O_4  and  C_18
REMARK    4  A    between atoms: O_8  and  C_24
REMARK    5  A    between atoms: C_12  and  C_17
REMARK                            x       y       z     vdW  Elec       q    Type
REMARK                         _______ _______ _______ _____ _____    ______ ____
ROOT
ATOM      1  O   UNL     1     103.598 130.211 142.299  0.00  0.00    +0.000 OA
ATOM      2  O   UNL     1     104.277 127.700 141.030  0.00  0.00    +0.000 OA
ATOM      3  O   UNL     1     105.459 128.394 143.538  0.00  0.00    +0.000 OA
ATOM      4  O   UNL     1     103.340 128.583 140.378  0.00  0.00    +0.000 OA
ATOM      5  C   UNL     1     103.943 128.939 141.658  0.00  0.00    +0.000 A 
ATOM      6  C   UNL     1     104.029 129.468 142.286  0.00  0.00    +0.000 A 
ATOM      7  C   UNL     1     103.070 130.407 141.649  0.00  0.00    +0.000 A 
ATOM      8  C   UNL     1     103.420 129.117 141.001  0.00  0.00    +0.000 A 
ATOM      9  C   UNL     1     102.980 129.855 140.995  0.00  0.00    +0.000 A 
ATOM     10  C   UNL     1     104.535 129.286 142.912  0.00  0.00    +0.000 A 
ATOM     11  C   UNL     1     104.363 128.229 141.658  0.00  0.00    +0.000 A 
ATOM     12  C   UNL     1     104.867 128.047 142.283  0.00  0.00    +0.000 A 
ATOM     13  C   UNL     1     104.954 128.576 142.912  0.00  0.00    +0.000 A 
ENDROOT
BRANCH   7  15
ATOM     14  O   UNL     1     102.906 133.183 140.995  0.00  0.00    +0.000 OA
ATOM     15  C   UNL     1     102.652 131.118 141.653  0.00  0.00    +0.000 A 
ATOM     16  C   UNL     1     102.987 131.795 141.322  0.00  0.00    +0.000 A 
ATOM     17  C   UNL     1     101.898 131.152 141.987  0.00  0.00    +0.000 A 
ATOM     18  C   UNL     1     102.570 132.506 141.325  0.00  0.00    +0.000 A 
ATOM     19  C   UNL     1     101.481 131.864 141.990  0.00  0.00    +0.000 A 
ATOM     20  C   UNL     1     101.816 132.540 141.660  0.00  0.00    +0.000 A 
BRANCH  20  21
ATOM     21  O   UNL     1     101.399 133.252 141.663  0.00  0.00    +0.000 OA
ATOM     22  C   UNL     1     100.710 133.323 142.111  0.00  0.00    +0.000 C 
ENDBRANCH  20  21
ENDBRANCH   7  15
BRANCH   9  23
ATOM     23  O   UNL     1     102.476 130.035 140.368  0.00  0.00    +0.000 OA
ATOM     24  C   UNL     1     102.227 129.438 139.855  0.00  0.00    +0.000 C 
ENDBRANCH   9  23
BRANCH  10  25
ATOM     25  O   UNL     1     104.621 129.815 143.540  0.00  0.00    +0.000 OA
ATOM     26  C   UNL     1     104.424 129.581 144.306  0.00  0.00    +0.000 C 
ENDBRANCH  10  25
BRANCH  12  27
ATOM     27  O   UNL     1     105.287 127.336 142.283  0.00  0.00    +0.000 OA
ATOM     28  C   UNL     1     106.088 127.330 142.088  0.00  0.00    +0.000 C 
ENDBRANCH  12  27
TORSDOF 5
ENDMDL
MODEL 10
REMARK VINA RESULT:      -7.4      2.702      3.773
REMARK  Name = 21599528
REMARK  5 active torsions:
REMARK  status: ('A' for Active; 'I' for Inactive)
REMARK    1  A    between atoms: O_2  and  C_14
REMARK    2  A    between atoms: O_3  and  C_15
REMARK    3  A    between atoms: O_4  and  C_18
REMARK    4  A    between atoms: O_8  and  C_24
REMARK    5  A    between atoms: C_12  and  C_17
REMARK                            x       y       z     vdW  Elec       q    Type
REMARK                         _______ _______ _______ _____ _____    ______ ____
ROOT
ATOM      1  O   UNL     1     106.327 125.187 145.729  0.00  0.00    +0.000 OA
ATOM      2  O   UNL     1     106.119 127.463 143.951  0.00  0.00    +0.000 OA
ATOM      3  O   UNL     1     105.556 124.836 142.975  0.00  0.00    +0.000 OA
ATOM      4  O   UNL     1     106.508 127.680 145.324  0.00  0.00    +0.000 OA
ATOM      5  C   UNL     1     106.221 126.338 144.827  0.00  0.00    +0.000 A 
ATOM      6  C   UNL     1     106.161 125.525 144.956  0.00  0.00    +0.000 A 
ATOM      7  C   UNL     1     106.558 125.704 146.376  0.00  0.00    +0.000 A 
ATOM      8  C   UNL     1     106.451 126.869 145.462  0.00  0.00    +0.000 A 
ATOM      9  C   UNL     1     106.621 126.551 146.242  0.00  0.00    +0.000 A 
ATOM     10  C   UNL     1     105.940 125.025 144.339  0.00  0.00    +0.000 A 
ATOM     11  C   UNL     1     106.059 126.650 144.080  0.00  0.00    +0.000 A 
ATOM     12  C   UNL     1     105.838 126.150 143.464  0.00  0.00    +0.000 A 
ATOM     13  C   UNL     1     105.778 125.336 143.593  0.00  0.00    +0.000 A 
ENDROOT
BRANCH   7  15
ATOM     14  O   UNL     1     105.642 124.725 148.899  0.00  0.00    +0.000 OA
ATOM     15  C   UNL     1     106.719 125.389 147.121  0.00  0.00    +0.000 A 
ATOM     16  C   UNL     1     106.100 125.214 147.638  0.00  0.00    +0.000 A 
ATOM     17  C   UNL     1     107.500 125.249 147.350  0.00  0.00    +0.000 A 
ATOM     18  C   UNL     1     106.261 124.900 148.383  0.00  0.00    +0.000 A 
ATOM     19  C   UNL     1     107.660 124.933 148.096  0.00  0.00    +0.000 A 
ATOM     20  C   UNL     1     107.042 124.759 148.612  0.00  0.00    +0.000 A 
BRANCH  20  21
ATOM     21  O   UNL     1     107.202 124.444 149.357  0.00  0.00    +0.000 OA
ATOM     22  C   UNL     1     107.983 124.366 149.612  0.00  0.00    +0.000 C 
ENDBRANCH  20  21
ENDBRANCH   7  15
BRANCH   9  23
ATOM     23  O   UNL     1     106.842 127.053 146.857  0.00  0.00    +0.000 OA
ATOM     24  C   UNL     1     106.677 127.861 146.810  0.00  0.00    +0.000 C 
ENDBRANCH   9  23
BRANCH  10  25
ATOM     25  O   UNL     1     105.880 124.212 144.468  0.00  0.00    +0.000 OA
ATOM     26  C   UNL     1     105.153 123.833 144.377  0.00  0.00    +0.000 C 
ENDBRANCH  10  25
BRANCH  12  27
ATOM     27  O   UNL     1     105.676 126.462 142.717  0.00  0.00    +0.000 OA
ATOM     28  C   UNL     1     106.268 126.490 142.144  0.00  0.00    +0.000 C 
ENDBRANCH  12  27
TORSDOF 5
ENDMDL
