MODEL 1
REMARK VINA RESULT:      -9.0      0.000      0.000
REMARK  Name = 5378171
REMARK  2 active torsions:
REMARK  status: ('A' for Active; 'I' for Inactive)
REMARK    1  A    between atoms: O_4  and  C_20
REMARK    2  A    between atoms: C_7  and  C_11
REMARK                            x       y       z     vdW  Elec       q    Type
REMARK                         _______ _______ _______ _____ _____    ______ ____
ROOT
ATOM      1  O   UNL     1     105.549 124.456 147.762  0.00  0.00    +0.000 OA
ATOM      2  O   UNL     1     108.092 125.585 146.987  0.00  0.00    +0.000 OA
ATOM      3  O   UNL     1     106.958 125.624 146.096  0.00  0.00    +0.000 OA
ATOM      4  C   UNL     1     106.807 125.014 147.380  0.00  0.00    +0.000 A 
ATOM      5  C   UNL     1     106.337 124.624 147.935  0.00  0.00    +0.000 A 
ATOM      6  C   UNL     1     105.229 124.676 147.034  0.00  0.00    +0.000 A 
ATOM      7  C   UNL     1     107.478 124.562 148.883  0.00  0.00    +0.000 A 
ATOM      8  C   UNL     1     106.658 124.389 148.697  0.00  0.00    +0.000 A 
ATOM      9  C   UNL     1     107.630 125.195 147.548  0.00  0.00    +0.000 A 
ATOM     10  C   UNL     1     106.488 125.234 146.652  0.00  0.00    +0.000 A 
ATOM     11  C   UNL     1     105.699 125.065 146.479  0.00  0.00    +0.000 A 
ATOM     12  C   UNL     1     107.968 124.968 148.305  0.00  0.00    +0.000 A 
ATOM     13  C   UNL     1     107.795 124.341 149.612  0.00  0.00    +0.000 C 
ENDROOT
BRANCH   6  14
ATOM     14  C   UNL     1     104.441 124.507 146.861  0.00  0.00    +0.000 A 
ATOM     15  C   UNL     1     104.250 123.852 146.397  0.00  0.00    +0.000 A 
ATOM     16  C   UNL     1     103.841 124.995 147.153  0.00  0.00    +0.000 A 
ATOM     17  C   UNL     1     103.462 123.684 146.224  0.00  0.00    +0.000 A 
ATOM     18  C   UNL     1     103.052 124.825 146.980  0.00  0.00    +0.000 A 
ATOM     19  C   UNL     1     102.862 124.171 146.516  0.00  0.00    +0.000 A 
BRANCH  19  20
ATOM     20  O   UNL     1     102.073 124.002 146.342  0.00  0.00    +0.000 OA
ATOM     21  C   UNL     1     101.506 124.018 146.941  0.00  0.00    +0.000 C 
ENDBRANCH  19  20
ENDBRANCH   6  14
TORSDOF 2
ENDMDL
MODEL 2
REMARK VINA RESULT:      -8.4      8.134      9.035
REMARK  Name = 5378171
REMARK  2 active torsions:
REMARK  status: ('A' for Active; 'I' for Inactive)
REMARK    1  A    between atoms: O_4  and  C_20
REMARK    2  A    between atoms: C_7  and  C_11
REMARK                            x       y       z     vdW  Elec       q    Type
REMARK                         _______ _______ _______ _____ _____    ______ ____
ROOT
ATOM      1  O   UNL     1     102.934 130.490 142.090  0.00  0.00    +0.000 OA
ATOM      2  O   UNL     1     103.598 128.310 140.315  0.00  0.00    +0.000 OA
ATOM      3  O   UNL     1     102.646 129.321 139.927  0.00  0.00    +0.000 OA
ATOM      4  C   UNL     1     103.263 129.412 141.213  0.00  0.00    +0.000 A 
ATOM      5  C   UNL     1     103.359 129.801 141.934  0.00  0.00    +0.000 A 
ATOM      6  C   UNL     1     102.412 130.790 141.525  0.00  0.00    +0.000 A 
ATOM      7  C   UNL     1     104.345 128.781 142.374  0.00  0.00    +0.000 A 
ATOM      8  C   UNL     1     103.899 129.498 142.530  0.00  0.00    +0.000 A 
ATOM      9  C   UNL     1     103.701 128.692 141.039  0.00  0.00    +0.000 A 
ATOM     10  C   UNL     1     102.742 129.711 140.649  0.00  0.00    +0.000 A 
ATOM     11  C   UNL     1     102.316 130.401 140.804  0.00  0.00    +0.000 A 
ATOM     12  C   UNL     1     104.245 128.376 141.623  0.00  0.00    +0.000 A 
ATOM     13  C   UNL     1     104.866 128.484 142.940  0.00  0.00    +0.000 C 
ENDROOT
BRANCH   6  14
ATOM     14  C   UNL     1     101.987 131.479 141.681  0.00  0.00    +0.000 A 
ATOM     15  C   UNL     1     101.211 131.432 141.957  0.00  0.00    +0.000 A 
ATOM     16  C   UNL     1     102.338 132.217 141.561  0.00  0.00    +0.000 A 
ATOM     17  C   UNL     1     100.785 132.121 142.113  0.00  0.00    +0.000 A 
ATOM     18  C   UNL     1     101.912 132.906 141.717  0.00  0.00    +0.000 A 
ATOM     19  C   UNL     1     101.136 132.859 141.993  0.00  0.00    +0.000 A 
BRANCH  19  20
ATOM     20  O   UNL     1     100.710 133.548 142.149  0.00  0.00    +0.000 OA
ATOM     21  C   UNL     1     100.744 134.182 141.624  0.00  0.00    +0.000 C 
ENDBRANCH  19  20
ENDBRANCH   6  14
TORSDOF 2
ENDMDL
MODEL 3
REMARK VINA RESULT:      -8.3     11.978     12.718
REMARK  Name = 5378171
REMARK  2 active torsions:
REMARK  status: ('A' for Active; 'I' for Inactive)
REMARK    1  A    between atoms: O_4  and  C_20
REMARK    2  A    between atoms: C_7  and  C_11
REMARK                            x       y       z     vdW  Elec       q    Type
REMARK                         _______ _______ _______ _____ _____    ______ ____
ROOT
ATOM      1  O   UNL     1     112.031 125.727 136.229  0.00  0.00    +0.000 OA
ATOM      2  O   UNL     1     113.190 123.277 137.228  0.00  0.00    +0.000 OA
ATOM      3  O   UNL     1     111.761 123.430 137.111  0.00  0.00    +0.000 OA
ATOM      4  C   UNL     1     112.605 124.516 136.723  0.00  0.00    +0.000 A 
ATOM      5  C   UNL     1     112.695 125.281 136.429  0.00  0.00    +0.000 A 
ATOM      6  C   UNL     1     111.275 125.408 136.323  0.00  0.00    +0.000 A 
ATOM      7  C   UNL     1     114.172 125.166 136.532  0.00  0.00    +0.000 A 
ATOM      8  C   UNL     1     113.476 125.626 136.326  0.00  0.00    +0.000 A 
ATOM      9  C   UNL     1     113.290 124.042 136.934  0.00  0.00    +0.000 A 
ATOM     10  C   UNL     1     111.851 124.196 136.817  0.00  0.00    +0.000 A 
ATOM     11  C   UNL     1     111.186 124.642 136.617  0.00  0.00    +0.000 A 
ATOM     12  C   UNL     1     114.078 124.369 136.838  0.00  0.00    +0.000 A 
ATOM     13  C   UNL     1     114.925 125.488 136.437  0.00  0.00    +0.000 C 
ENDROOT
BRANCH   6  14
ATOM     14  C   UNL     1     110.611 125.853 136.124  0.00  0.00    +0.000 A 
ATOM     15  C   UNL     1     110.297 125.808 135.362  0.00  0.00    +0.000 A 
ATOM     16  C   UNL     1     110.259 126.344 136.687  0.00  0.00    +0.000 A 
ATOM     17  C   UNL     1     109.632 126.253 135.163  0.00  0.00    +0.000 A 
ATOM     18  C   UNL     1     109.594 126.790 136.487  0.00  0.00    +0.000 A 
ATOM     19  C   UNL     1     109.281 126.745 135.726  0.00  0.00    +0.000 A 
BRANCH  19  20
ATOM     20  O   UNL     1     108.616 127.191 135.525  0.00  0.00    +0.000 OA
ATOM     21  C   UNL     1     108.567 127.983 135.748  0.00  0.00    +0.000 C 
ENDBRANCH  19  20
ENDBRANCH   6  14
TORSDOF 2
ENDMDL
MODEL 4
REMARK VINA RESULT:      -7.8     12.975     14.552
REMARK  Name = 5378171
REMARK  2 active torsions:
REMARK  status: ('A' for Active; 'I' for Inactive)
REMARK    1  A    between atoms: O_4  and  C_20
REMARK    2  A    between atoms: C_7  and  C_11
REMARK                            x       y       z     vdW  Elec       q    Type
REMARK                         _______ _______ _______ _____ _____    ______ ____
ROOT
ATOM      1  O   UNL     1     114.035 127.339 136.403  0.00  0.00    +0.000 OA
ATOM      2  O   UNL     1     111.768 125.554 136.534  0.00  0.00    +0.000 OA
ATOM      3  O   UNL     1     111.612 126.926 136.118  0.00  0.00    +0.000 OA
ATOM      4  C   UNL     1     112.915 126.455 136.468  0.00  0.00    +0.000 A 
ATOM      5  C   UNL     1     113.723 126.593 136.563  0.00  0.00    +0.000 A 
ATOM      6  C   UNL     1     113.541 127.948 136.148  0.00  0.00    +0.000 A 
ATOM      7  C   UNL     1     113.928 125.188 136.998  0.00  0.00    +0.000 A 
ATOM      8  C   UNL     1     114.248 125.967 136.829  0.00  0.00    +0.000 A 
ATOM      9  C   UNL     1     112.577 125.682 136.632  0.00  0.00    +0.000 A 
ATOM     10  C   UNL     1     112.421 127.064 136.213  0.00  0.00    +0.000 A 
ATOM     11  C   UNL     1     112.733 127.810 136.052  0.00  0.00    +0.000 A 
ATOM     12  C   UNL     1     113.087 125.045 136.899  0.00  0.00    +0.000 A 
ATOM     13  C   UNL     1     114.425 124.581 137.253  0.00  0.00    +0.000 C 
ENDROOT
BRANCH   6  14
ATOM     14  C   UNL     1     113.854 128.694 135.987  0.00  0.00    +0.000 A 
ATOM     15  C   UNL     1     113.794 129.296 136.548  0.00  0.00    +0.000 A 
ATOM     16  C   UNL     1     114.227 128.838 135.265  0.00  0.00    +0.000 A 
ATOM     17  C   UNL     1     114.107 130.042 136.388  0.00  0.00    +0.000 A 
ATOM     18  C   UNL     1     114.540 129.585 135.105  0.00  0.00    +0.000 A 
ATOM     19  C   UNL     1     114.480 130.186 135.665  0.00  0.00    +0.000 A 
BRANCH  19  20
ATOM     20  O   UNL     1     114.793 130.933 135.505  0.00  0.00    +0.000 OA
ATOM     21  C   UNL     1     115.518 131.003 135.120  0.00  0.00    +0.000 C 
ENDBRANCH  19  20
ENDBRANCH   6  14
TORSDOF 2
ENDMDL
MODEL 5
REMARK VINA RESULT:      -7.7     12.743     14.069
REMARK  Name = 5378171
REMARK  2 active torsions:
REMARK  status: ('A' for Active; 'I' for Inactive)
REMARK    1  A    between atoms: O_4  and  C_20
REMARK    2  A    between atoms: C_7  and  C_11
REMARK                            x       y       z     vdW  Elec       q    Type
REMARK                         _______ _______ _______ _____ _____    ______ ____
ROOT
ATOM      1  O   UNL     1     113.856 127.532 136.009  0.00  0.00    +0.000 OA
ATOM      2  O   UNL     1     113.379 130.116 137.208  0.00  0.00    +0.000 OA
ATOM      3  O   UNL     1     112.872 128.910 137.814  0.00  0.00    +0.000 OA
ATOM      4  C   UNL     1     113.621 128.810 136.601  0.00  0.00    +0.000 A 
ATOM      5  C   UNL     1     113.949 128.351 135.999  0.00  0.00    +0.000 A 
ATOM      6  C   UNL     1     113.435 127.171 136.620  0.00  0.00    +0.000 A 
ATOM      7  C   UNL     1     114.490 129.568 135.341  0.00  0.00    +0.000 A 
ATOM      8  C   UNL     1     114.389 128.715 135.357  0.00  0.00    +0.000 A 
ATOM      9  C   UNL     1     113.711 129.665 136.602  0.00  0.00    +0.000 A 
ATOM     10  C   UNL     1     113.200 128.450 137.211  0.00  0.00    +0.000 A 
ATOM     11  C   UNL     1     113.107 127.630 137.221  0.00  0.00    +0.000 A 
ATOM     12  C   UNL     1     114.148 130.046 135.968  0.00  0.00    +0.000 A 
ATOM     13  C   UNL     1     114.911 129.925 134.729  0.00  0.00    +0.000 C 
ENDROOT
BRANCH   6  14
ATOM     14  C   UNL     1     113.342 126.352 136.630  0.00  0.00    +0.000 A 
ATOM     15  C   UNL     1     113.959 125.869 136.888  0.00  0.00    +0.000 A 
ATOM     16  C   UNL     1     112.630 126.014 136.380  0.00  0.00    +0.000 A 
ATOM     17  C   UNL     1     113.866 125.050 136.898  0.00  0.00    +0.000 A 
ATOM     18  C   UNL     1     112.537 125.194 136.390  0.00  0.00    +0.000 A 
ATOM     19  C   UNL     1     113.154 124.712 136.649  0.00  0.00    +0.000 A 
BRANCH  19  20
ATOM     20  O   UNL     1     113.061 123.892 136.659  0.00  0.00    +0.000 OA
ATOM     21  C   UNL     1     112.350 123.560 136.911  0.00  0.00    +0.000 C 
ENDBRANCH  19  20
ENDBRANCH   6  14
TORSDOF 2
ENDMDL
MODEL 6
REMARK VINA RESULT:      -7.7     12.911     14.004
REMARK  Name = 5378171
REMARK  2 active torsions:
REMARK  status: ('A' for Active; 'I' for Inactive)
REMARK    1  A    between atoms: O_4  and  C_20
REMARK    2  A    between atoms: C_7  and  C_11
REMARK                            x       y       z     vdW  Elec       q    Type
REMARK                         _______ _______ _______ _____ _____    ______ ____
ROOT
ATOM      1  O   UNL     1     111.990 127.366 135.835  0.00  0.00    +0.000 OA
ATOM      2  O   UNL     1     111.791 124.538 136.390  0.00  0.00    +0.000 OA
ATOM      3  O   UNL     1     112.893 125.319 136.894  0.00  0.00    +0.000 OA
ATOM      4  C   UNL     1     111.891 125.968 136.109  0.00  0.00    +0.000 A 
ATOM      5  C   UNL     1     111.590 126.650 135.756  0.00  0.00    +0.000 A 
ATOM      6  C   UNL     1     112.692 127.401 136.268  0.00  0.00    +0.000 A 
ATOM      7  C   UNL     1     110.438 125.883 135.217  0.00  0.00    +0.000 A 
ATOM      8  C   UNL     1     110.859 126.626 135.303  0.00  0.00    +0.000 A 
ATOM      9  C   UNL     1     111.482 125.215 136.033  0.00  0.00    +0.000 A 
ATOM     10  C   UNL     1     112.592 126.002 136.541  0.00  0.00    +0.000 A 
ATOM     11  C   UNL     1     112.993 126.719 136.621  0.00  0.00    +0.000 A 
ATOM     12  C   UNL     1     110.751 125.173 135.584  0.00  0.00    +0.000 A 
ATOM     13  C   UNL     1     109.736 125.851 134.784  0.00  0.00    +0.000 C 
ENDROOT
BRANCH   6  14
ATOM     14  C   UNL     1     113.093 128.117 136.347  0.00  0.00    +0.000 A 
ATOM     15  C   UNL     1     113.638 128.351 135.774  0.00  0.00    +0.000 A 
ATOM     16  C   UNL     1     112.948 128.601 137.001  0.00  0.00    +0.000 A 
ATOM     17  C   UNL     1     114.039 129.067 135.853  0.00  0.00    +0.000 A 
ATOM     18  C   UNL     1     113.349 129.318 137.080  0.00  0.00    +0.000 A 
ATOM     19  C   UNL     1     113.894 129.551 136.507  0.00  0.00    +0.000 A 
BRANCH  19  20
ATOM     20  O   UNL     1     114.296 130.268 136.586  0.00  0.00    +0.000 OA
ATOM     21  C   UNL     1     113.880 130.956 136.770  0.00  0.00    +0.000 C 
ENDBRANCH  19  20
ENDBRANCH   6  14
TORSDOF 2
ENDMDL
MODEL 7
REMARK VINA RESULT:      -7.7     11.821     13.002
REMARK  Name = 5378171
REMARK  2 active torsions:
REMARK  status: ('A' for Active; 'I' for Inactive)
REMARK    1  A    between atoms: O_4  and  C_20
REMARK    2  A    between atoms: C_7  and  C_11
REMARK                            x       y       z     vdW  Elec       q    Type
REMARK                         _______ _______ _______ _____ _____    ______ ____
ROOT
ATOM      1  O   UNL     1     110.643 127.124 135.815  0.00  0.00    +0.000 OA
ATOM      2  O   UNL     1     108.090 128.476 135.803  0.00  0.00    +0.000 OA
ATOM      3  O   UNL     1     108.216 127.128 136.300  0.00  0.00    +0.000 OA
ATOM      4  C   UNL     1     109.381 127.794 135.808  0.00  0.00    +0.000 A 
ATOM      5  C   UNL     1     110.190 127.793 135.647  0.00  0.00    +0.000 A 
ATOM      6  C   UNL     1     110.288 126.457 136.145  0.00  0.00    +0.000 A 
ATOM      7  C   UNL     1     110.106 129.181 135.126  0.00  0.00    +0.000 A 
ATOM      8  C   UNL     1     110.572 128.482 135.303  0.00  0.00    +0.000 A 
ATOM      9  C   UNL     1     108.898 128.484 135.638  0.00  0.00    +0.000 A 
ATOM     10  C   UNL     1     109.026 127.127 136.138  0.00  0.00    +0.000 A 
ATOM     11  C   UNL     1     109.479 126.458 136.306  0.00  0.00    +0.000 A 
ATOM     12  C   UNL     1     109.263 129.182 135.294  0.00  0.00    +0.000 A 
ATOM     13  C   UNL     1     110.464 129.847 134.796  0.00  0.00    +0.000 C 
ENDROOT
BRANCH   6  14
ATOM     14  C   UNL     1     110.741 125.789 136.313  0.00  0.00    +0.000 A 
ATOM     15  C   UNL     1     110.894 125.234 135.721  0.00  0.00    +0.000 A 
ATOM     16  C   UNL     1     111.042 125.674 137.073  0.00  0.00    +0.000 A 
ATOM     17  C   UNL     1     111.347 124.565 135.889  0.00  0.00    +0.000 A 
ATOM     18  C   UNL     1     111.495 125.006 137.241  0.00  0.00    +0.000 A 
ATOM     19  C   UNL     1     111.648 124.451 136.650  0.00  0.00    +0.000 A 
BRANCH  19  20
ATOM     20  O   UNL     1     112.101 123.782 136.818  0.00  0.00    +0.000 OA
ATOM     21  C   UNL     1     112.922 123.839 136.857  0.00  0.00    +0.000 C 
ENDBRANCH  19  20
ENDBRANCH   6  14
TORSDOF 2
ENDMDL
MODEL 8
REMARK VINA RESULT:      -7.6     12.934     13.907
REMARK  Name = 5378171
REMARK  2 active torsions:
REMARK  status: ('A' for Active; 'I' for Inactive)
REMARK    1  A    between atoms: O_4  and  C_20
REMARK    2  A    between atoms: C_7  and  C_11
REMARK                            x       y       z     vdW  Elec       q    Type
REMARK                         _______ _______ _______ _____ _____    ______ ____
ROOT
ATOM      1  O   UNL     1     112.892 126.398 136.410  0.00  0.00    +0.000 OA
ATOM      2  O   UNL     1     114.214 124.020 137.380  0.00  0.00    +0.000 OA
ATOM      3  O   UNL     1     114.853 125.311 137.457  0.00  0.00    +0.000 OA
ATOM      4  C   UNL     1     113.544 125.222 136.889  0.00  0.00    +0.000 A 
ATOM      5  C   UNL     1     112.890 125.584 136.540  0.00  0.00    +0.000 A 
ATOM      6  C   UNL     1     113.546 126.851 136.628  0.00  0.00    +0.000 A 
ATOM      7  C   UNL     1     112.196 124.275 136.442  0.00  0.00    +0.000 A 
ATOM      8  C   UNL     1     112.202 125.123 136.308  0.00  0.00    +0.000 A 
ATOM      9  C   UNL     1     113.555 124.374 137.031  0.00  0.00    +0.000 A 
ATOM     10  C   UNL     1     114.198 125.673 137.107  0.00  0.00    +0.000 A 
ATOM     11  C   UNL     1     114.200 126.488 136.977  0.00  0.00    +0.000 A 
ATOM     12  C   UNL     1     112.877 123.898 136.805  0.00  0.00    +0.000 A 
ATOM     13  C   UNL     1     111.540 123.825 136.223  0.00  0.00    +0.000 C 
ENDROOT
BRANCH   6  14
ATOM     14  C   UNL     1     113.547 127.665 136.497  0.00  0.00    +0.000 A 
ATOM     15  C   UNL     1     113.910 127.975 135.824  0.00  0.00    +0.000 A 
ATOM     16  C   UNL     1     113.185 128.170 137.040  0.00  0.00    +0.000 A 
ATOM     17  C   UNL     1     113.911 128.789 135.693  0.00  0.00    +0.000 A 
ATOM     18  C   UNL     1     113.186 128.985 136.909  0.00  0.00    +0.000 A 
ATOM     19  C   UNL     1     113.549 129.294 136.237  0.00  0.00    +0.000 A 
BRANCH  19  20
ATOM     20  O   UNL     1     113.550 130.109 136.105  0.00  0.00    +0.000 OA
ATOM     21  C   UNL     1     114.081 130.592 136.510  0.00  0.00    +0.000 C 
ENDBRANCH  19  20
ENDBRANCH   6  14
TORSDOF 2
ENDMDL
MODEL 9
REMARK VINA RESULT:      -7.6      9.120     10.254
REMARK  Name = 5378171
REMARK  2 active torsions:
REMARK  status: ('A' for Active; 'I' for Inactive)
REMARK    1  A    between atoms: O_4  and  C_20
REMARK    2  A    between atoms: C_7  and  C_11
REMARK                            x       y       z     vdW  Elec       q    Type
REMARK                         _______ _______ _______ _____ _____    ______ ____
ROOT
ATOM      1  O   UNL     1     102.864 132.125 141.203  0.00  0.00    +0.000 OA
ATOM      2  O   UNL     1     100.784 133.881 142.169  0.00  0.00    +0.000 OA
ATOM      3  O   UNL     1     100.710 132.456 142.378  0.00  0.00    +0.000 OA
ATOM      4  C   UNL     1     101.836 132.994 141.681  0.00  0.00    +0.000 A 
ATOM      5  C   UNL     1     102.554 132.884 141.289  0.00  0.00    +0.000 A 
ATOM      6  C   UNL     1     102.457 131.475 141.509  0.00  0.00    +0.000 A 
ATOM      7  C   UNL     1     102.669 134.346 141.053  0.00  0.00    +0.000 A 
ATOM      8  C   UNL     1     102.987 133.552 140.967  0.00  0.00    +0.000 A 
ATOM      9  C   UNL     1     101.502 133.781 141.776  0.00  0.00    +0.000 A 
ATOM     10  C   UNL     1     101.429 132.346 141.986  0.00  0.00    +0.000 A 
ATOM     11  C   UNL     1     101.739 131.586 141.900  0.00  0.00    +0.000 A 
ATOM     12  C   UNL     1     101.922 134.461 141.461  0.00  0.00    +0.000 A 
ATOM     13  C   UNL     1     103.079 134.993 140.747  0.00  0.00    +0.000 C 
ENDROOT
BRANCH   6  14
ATOM     14  C   UNL     1     102.767 130.716 141.423  0.00  0.00    +0.000 A 
ATOM     15  C   UNL     1     102.594 130.273 140.748  0.00  0.00    +0.000 A 
ATOM     16  C   UNL     1     103.250 130.399 142.012  0.00  0.00    +0.000 A 
ATOM     17  C   UNL     1     102.905 129.514 140.662  0.00  0.00    +0.000 A 
ATOM     18  C   UNL     1     103.560 129.639 141.926  0.00  0.00    +0.000 A 
ATOM     19  C   UNL     1     103.388 129.197 141.252  0.00  0.00    +0.000 A 
BRANCH  19  20
ATOM     20  O   UNL     1     103.698 128.437 141.166  0.00  0.00    +0.000 OA
ATOM     21  C   UNL     1     104.419 128.243 141.515  0.00  0.00    +0.000 C 
ENDBRANCH  19  20
ENDBRANCH   6  14
TORSDOF 2
ENDMDL
MODEL 10
REMARK VINA RESULT:      -7.5      8.843      9.921
REMARK  Name = 5378171
REMARK  2 active torsions:
REMARK  status: ('A' for Active; 'I' for Inactive)
REMARK    1  A    between atoms: O_4  and  C_20
REMARK    2  A    between atoms: C_7  and  C_11
REMARK                            x       y       z     vdW  Elec       q    Type
REMARK                         _______ _______ _______ _____ _____    ______ ____
ROOT
ATOM      1  O   UNL     1     101.955 131.333 141.207  0.00  0.00    +0.000 OA
ATOM      2  O   UNL     1     103.674 129.183 142.081  0.00  0.00    +0.000 OA
ATOM      3  O   UNL     1     103.468 130.351 142.902  0.00  0.00    +0.000 OA
ATOM      4  C   UNL     1     102.805 130.270 141.638  0.00  0.00    +0.000 A 
ATOM      5  C   UNL     1     102.300 130.597 141.074  0.00  0.00    +0.000 A 
ATOM      6  C   UNL     1     102.113 131.744 141.905  0.00  0.00    +0.000 A 
ATOM      7  C   UNL     1     102.485 129.412 140.197  0.00  0.00    +0.000 A 
ATOM      8  C   UNL     1     102.128 130.180 140.342  0.00  0.00    +0.000 A 
ATOM      9  C   UNL     1     103.171 129.502 141.511  0.00  0.00    +0.000 A 
ATOM     10  C   UNL     1     102.963 130.679 142.336  0.00  0.00    +0.000 A 
ATOM     11  C   UNL     1     102.617 131.416 142.470  0.00  0.00    +0.000 A 
ATOM     12  C   UNL     1     103.010 129.071 140.786  0.00  0.00    +0.000 A 
ATOM     13  C   UNL     1     102.325 129.004 139.498  0.00  0.00    +0.000 C 
ENDROOT
BRANCH   6  14
ATOM     14  C   UNL     1     101.767 132.480 142.039  0.00  0.00    +0.000 A 
ATOM     15  C   UNL     1     101.087 132.539 142.502  0.00  0.00    +0.000 A 
ATOM     16  C   UNL     1     102.102 133.159 141.709  0.00  0.00    +0.000 A 
ATOM     17  C   UNL     1     100.741 133.276 142.636  0.00  0.00    +0.000 A 
ATOM     18  C   UNL     1     101.755 133.896 141.843  0.00  0.00    +0.000 A 
ATOM     19  C   UNL     1     101.076 133.955 142.306  0.00  0.00    +0.000 A 
BRANCH  19  20
ATOM     20  O   UNL     1     100.730 134.692 142.440  0.00  0.00    +0.000 OA
ATOM     21  C   UNL     1     100.712 135.008 143.201  0.00  0.00    +0.000 C 
ENDBRANCH  19  20
ENDBRANCH   6  14
TORSDOF 2
ENDMDL
