MODEL 1
REMARK VINA RESULT:     -10.4      0.000      0.000
REMARK  Name = 74978152
REMARK  6 active torsions:
REMARK  status: ('A' for Active; 'I' for Inactive)
REMARK    1  A    between atoms: O_2  and  C_21
REMARK    2  A    between atoms: O_2  and  C_28
REMARK    3  A    between atoms: O_7  and  C_26
REMARK    4  A    between atoms: O_7  and  C_32
REMARK    5  A    between atoms: C_20  and  C_22
REMARK    6  A    between atoms: C_29  and  C_37
REMARK                            x       y       z     vdW  Elec       q    Type
REMARK                         _______ _______ _______ _____ _____    ______ ____
ROOT
ATOM      1  O   UNL     1     112.885 128.452 138.194  0.00  0.00    +0.000 OA
ATOM      2  O   UNL     1     113.767 126.160 138.498  0.00  0.00    +0.000 OA
ATOM      3  O   UNL     1     114.057 126.425 139.886  0.00  0.00    +0.000 OA
ATOM      4  C   UNL     1     113.187 127.161 137.660  0.00  0.00    +0.000 A 
ATOM      5  C   UNL     1     112.893 127.925 137.559  0.00  0.00    +0.000 A 
ATOM      6  C   UNL     1     113.473 126.924 138.397  0.00  0.00    +0.000 A 
ATOM      7  C   UNL     1     113.465 127.450 139.032  0.00  0.00    +0.000 A 
ATOM      8  C   UNL     1     113.453 128.531 140.353  0.00  0.00    +0.000 A 
ATOM      9  C   UNL     1     113.171 128.214 138.930  0.00  0.00    +0.000 A 
ATOM     10  C   UNL     1     113.157 128.772 139.583  0.00  0.00    +0.000 A 
ATOM     11  C   UNL     1     113.765 127.191 139.794  0.00  0.00    +0.000 A 
ATOM     12  C   UNL     1     113.759 127.735 140.459  0.00  0.00    +0.000 A 
ENDROOT
BRANCH   5  15
ATOM     13  O   UNL     1     110.697 128.551 135.840  0.00  0.00    +0.000 OA
ATOM     14  O   UNL     1     111.750 128.874 134.612  0.00  0.00    +0.000 OA
ATOM     15  C   UNL     1     112.607 128.163 136.821  0.00  0.00    +0.000 A 
ATOM     16  C   UNL     1     111.795 128.238 136.700  0.00  0.00    +0.000 A 
ATOM     17  C   UNL     1     113.134 128.324 136.207  0.00  0.00    +0.000 A 
ATOM     18  C   UNL     1     111.509 128.476 135.962  0.00  0.00    +0.000 A 
ATOM     19  C   UNL     1     112.848 128.562 135.471  0.00  0.00    +0.000 A 
ATOM     20  C   UNL     1     112.036 128.637 135.348  0.00  0.00    +0.000 A 
ENDBRANCH   5  15
BRANCH   4  21
ATOM     21  O   UNL     1     113.195 126.634 137.025  0.00  0.00    +0.000 OA
BRANCH  21  30
ATOM     22  O   UNL     1     112.093 125.858 137.498  0.00  0.00    +0.000 OA
ATOM     23  O   UNL     1     113.060 123.841 136.438  0.00  0.00    +0.000 OA
ATOM     24  O   UNL     1     111.635 123.736 137.265  0.00  0.00    +0.000 OA
ATOM     25  O   UNL     1     113.840 125.290 136.318  0.00  0.00    +0.000 OA
ATOM     26  C   UNL     1     112.738 124.513 136.792  0.00  0.00    +0.000 C 
ATOM     27  C   UNL     1     112.025 124.461 137.205  0.00  0.00    +0.000 C 
ATOM     28  C   UNL     1     113.127 125.238 136.732  0.00  0.00    +0.000 C 
ATOM     29  C   UNL     1     111.703 125.133 137.558  0.00  0.00    +0.000 C 
ATOM     30  C   UNL     1     112.805 125.910 137.085  0.00  0.00    +0.000 C 
BRANCH  29  32
ATOM     31  O   UNL     1     110.328 125.493 137.705  0.00  0.00    +0.000 OA
ATOM     32  C   UNL     1     110.991 125.081 137.971  0.00  0.00    +0.000 C 
ENDBRANCH  29  32
ENDBRANCH  21  30
ENDBRANCH   4  21
BRANCH   8  33
ATOM     33  O   UNL     1     113.443 129.060 140.986  0.00  0.00    +0.000 OA
BRANCH  33  41
ATOM     34  O   UNL     1     114.678 129.670 140.605  0.00  0.00    +0.000 OA
ATOM     35  O   UNL     1     113.991 131.764 141.731  0.00  0.00    +0.000 OA
ATOM     36  O   UNL     1     112.985 130.456 141.737  0.00  0.00    +0.000 OA
ATOM     37  O   UNL     1     115.455 131.677 140.976  0.00  0.00    +0.000 OA
ATOM     38  C   UNL     1     114.220 131.066 141.356  0.00  0.00    +0.000 C 
ATOM     39  C   UNL     1     113.717 130.412 141.359  0.00  0.00    +0.000 C 
ATOM     40  C   UNL     1     114.952 131.022 140.978  0.00  0.00    +0.000 C 
ATOM     41  C   UNL     1     113.946 129.714 140.983  0.00  0.00    +0.000 C 
ATOM     42  C   UNL     1     115.181 130.325 140.603  0.00  0.00    +0.000 C 
ENDBRANCH  33  41
ENDBRANCH   8  33
TORSDOF 6
ENDMDL
MODEL 2
REMARK VINA RESULT:     -10.2      2.122      4.931
REMARK  Name = 74978152
REMARK  6 active torsions:
REMARK  status: ('A' for Active; 'I' for Inactive)
REMARK    1  A    between atoms: O_2  and  C_21
REMARK    2  A    between atoms: O_2  and  C_28
REMARK    3  A    between atoms: O_7  and  C_26
REMARK    4  A    between atoms: O_7  and  C_32
REMARK    5  A    between atoms: C_20  and  C_22
REMARK    6  A    between atoms: C_29  and  C_37
REMARK                            x       y       z     vdW  Elec       q    Type
REMARK                         _______ _______ _______ _____ _____    ______ ____
ROOT
ATOM      1  O   UNL     1     112.082 127.009 136.567  0.00  0.00    +0.000 OA
ATOM      2  O   UNL     1     112.915 128.295 138.510  0.00  0.00    +0.000 OA
ATOM      3  O   UNL     1     112.341 129.512 137.987  0.00  0.00    +0.000 OA
ATOM      4  C   UNL     1     112.787 127.057 137.809  0.00  0.00    +0.000 A 
ATOM      5  C   UNL     1     112.509 126.629 137.161  0.00  0.00    +0.000 A 
ATOM      6  C   UNL     1     112.637 127.867 137.862  0.00  0.00    +0.000 A 
ATOM      7  C   UNL     1     112.210 128.248 137.268  0.00  0.00    +0.000 A 
ATOM      8  C   UNL     1     111.326 129.046 136.045  0.00  0.00    +0.000 A 
ATOM      9  C   UNL     1     111.932 127.818 136.621  0.00  0.00    +0.000 A 
ATOM     10  C   UNL     1     111.486 128.203 135.996  0.00  0.00    +0.000 A 
ATOM     11  C   UNL     1     112.060 129.091 137.335  0.00  0.00    +0.000 A 
ATOM     12  C   UNL     1     111.615 129.493 136.720  0.00  0.00    +0.000 A 
ENDROOT
BRANCH   5  15
ATOM     13  O   UNL     1     111.593 123.926 137.317  0.00  0.00    +0.000 OA
ATOM     14  O   UNL     1     113.109 123.391 136.947  0.00  0.00    +0.000 OA
ATOM     15  C   UNL     1     112.660 125.819 137.107  0.00  0.00    +0.000 A 
ATOM     16  C   UNL     1     112.051 125.277 137.239  0.00  0.00    +0.000 A 
ATOM     17  C   UNL     1     113.418 125.551 136.922  0.00  0.00    +0.000 A 
ATOM     18  C   UNL     1     112.201 124.467 137.186  0.00  0.00    +0.000 A 
ATOM     19  C   UNL     1     113.567 124.742 136.869  0.00  0.00    +0.000 A 
ATOM     20  C   UNL     1     112.959 124.200 137.001  0.00  0.00    +0.000 A 
ENDBRANCH   5  15
BRANCH   4  21
ATOM     21  O   UNL     1     113.215 126.676 138.403  0.00  0.00    +0.000 OA
BRANCH  21  30
ATOM     22  O   UNL     1     112.143 126.655 139.347  0.00  0.00    +0.000 OA
ATOM     23  O   UNL     1     113.769 126.883 141.199  0.00  0.00    +0.000 OA
ATOM     24  O   UNL     1     112.154 126.786 141.526  0.00  0.00    +0.000 OA
ATOM     25  O   UNL     1     114.299 126.829 139.637  0.00  0.00    +0.000 OA
ATOM     26  C   UNL     1     113.227 126.807 140.582  0.00  0.00    +0.000 C 
ATOM     27  C   UNL     1     112.419 126.758 140.745  0.00  0.00    +0.000 C 
ATOM     28  C   UNL     1     113.491 126.780 139.801  0.00  0.00    +0.000 C 
ATOM     29  C   UNL     1     111.877 126.682 140.128  0.00  0.00    +0.000 C 
ATOM     30  C   UNL     1     112.949 126.704 139.184  0.00  0.00    +0.000 C 
BRANCH  29  32
ATOM     31  O   UNL     1     110.648 125.956 140.087  0.00  0.00    +0.000 OA
ATOM     32  C   UNL     1     111.070 126.633 140.292  0.00  0.00    +0.000 C 
ENDBRANCH  29  32
ENDBRANCH  21  30
ENDBRANCH   4  21
BRANCH   8  33
ATOM     33  O   UNL     1     110.898 129.424 135.449  0.00  0.00    +0.000 OA
BRANCH  33  41
ATOM     34  O   UNL     1     109.651 129.127 136.081  0.00  0.00    +0.000 OA
ATOM     35  O   UNL     1     108.577 130.970 134.826  0.00  0.00    +0.000 OA
ATOM     36  O   UNL     1     110.182 130.652 134.612  0.00  0.00    +0.000 OA
ATOM     37  O   UNL     1     107.688 130.060 135.876  0.00  0.00    +0.000 OA
ATOM     38  C   UNL     1     108.935 130.356 135.245  0.00  0.00    +0.000 C 
ATOM     39  C   UNL     1     109.738 130.197 135.138  0.00  0.00    +0.000 C 
ATOM     40  C   UNL     1     108.491 129.900 135.770  0.00  0.00    +0.000 C 
ATOM     41  C   UNL     1     110.096 129.582 135.556  0.00  0.00    +0.000 C 
ATOM     42  C   UNL     1     108.849 129.287 136.188  0.00  0.00    +0.000 C 
ENDBRANCH  33  41
ENDBRANCH   8  33
TORSDOF 6
ENDMDL
MODEL 3
REMARK VINA RESULT:     -10.2      1.543      2.923
REMARK  Name = 74978152
REMARK  6 active torsions:
REMARK  status: ('A' for Active; 'I' for Inactive)
REMARK    1  A    between atoms: O_2  and  C_21
REMARK    2  A    between atoms: O_2  and  C_28
REMARK    3  A    between atoms: O_7  and  C_26
REMARK    4  A    between atoms: O_7  and  C_32
REMARK    5  A    between atoms: C_20  and  C_22
REMARK    6  A    between atoms: C_29  and  C_37
REMARK                            x       y       z     vdW  Elec       q    Type
REMARK                         _______ _______ _______ _____ _____    ______ ____
ROOT
ATOM      1  O   UNL     1     113.324 126.229 138.722  0.00  0.00    +0.000 OA
ATOM      2  O   UNL     1     110.941 125.786 138.225  0.00  0.00    +0.000 OA
ATOM      3  O   UNL     1     110.541 126.367 139.484  0.00  0.00    +0.000 OA
ATOM      4  C   UNL     1     112.317 125.716 137.847  0.00  0.00    +0.000 A 
ATOM      5  C   UNL     1     113.112 125.864 138.014  0.00  0.00    +0.000 A 
ATOM      6  C   UNL     1     111.735 125.933 138.391  0.00  0.00    +0.000 A 
ATOM      7  C   UNL     1     111.948 126.298 139.100  0.00  0.00    +0.000 A 
ATOM      8  C   UNL     1     112.376 127.052 140.571  0.00  0.00    +0.000 A 
ATOM      9  C   UNL     1     112.743 126.445 139.265  0.00  0.00    +0.000 A 
ATOM     10  C   UNL     1     112.977 126.823 140.000  0.00  0.00    +0.000 A 
ATOM     11  C   UNL     1     111.333 126.518 139.658  0.00  0.00    +0.000 A 
ATOM     12  C   UNL     1     111.548 126.898 140.398  0.00  0.00    +0.000 A 
ENDROOT
BRANCH   5  15
ATOM     13  O   UNL     1     114.966 126.575 135.958  0.00  0.00    +0.000 OA
ATOM     14  O   UNL     1     115.438 124.998 135.839  0.00  0.00    +0.000 OA
ATOM     15  C   UNL     1     113.694 125.647 137.470  0.00  0.00    +0.000 A 
ATOM     16  C   UNL     1     114.039 126.220 136.986  0.00  0.00    +0.000 A 
ATOM     17  C   UNL     1     113.930 124.859 137.410  0.00  0.00    +0.000 A 
ATOM     18  C   UNL     1     114.621 126.003 136.442  0.00  0.00    +0.000 A 
ATOM     19  C   UNL     1     114.511 124.643 136.867  0.00  0.00    +0.000 A 
ATOM     20  C   UNL     1     114.857 125.214 136.382  0.00  0.00    +0.000 A 
ENDBRANCH   5  15
BRANCH   4  21
ATOM     21  O   UNL     1     112.104 125.352 137.138  0.00  0.00    +0.000 OA
BRANCH  21  30
ATOM     22  O   UNL     1     111.618 126.564 136.557  0.00  0.00    +0.000 OA
ATOM     23  O   UNL     1     110.077 125.259 135.126  0.00  0.00    +0.000 OA
ATOM     24  O   UNL     1     110.105 126.905 135.022  0.00  0.00    +0.000 OA
ATOM     25  O   UNL     1     111.077 124.482 136.184  0.00  0.00    +0.000 OA
ATOM     26  C   UNL     1     110.591 125.694 135.603  0.00  0.00    +0.000 C 
ATOM     27  C   UNL     1     110.605 126.518 135.551  0.00  0.00    +0.000 C 
ATOM     28  C   UNL     1     111.091 125.306 136.132  0.00  0.00    +0.000 C 
ATOM     29  C   UNL     1     111.118 126.953 136.028  0.00  0.00    +0.000 C 
ATOM     30  C   UNL     1     111.605 125.741 136.609  0.00  0.00    +0.000 C 
BRANCH  29  32
ATOM     31  O   UNL     1     111.808 128.160 135.703  0.00  0.00    +0.000 OA
ATOM     32  C   UNL     1     111.132 127.775 135.976  0.00  0.00    +0.000 C 
ENDBRANCH  29  32
ENDBRANCH  21  30
ENDBRANCH   4  21
BRANCH   8  33
ATOM     33  O   UNL     1     112.593 127.416 141.279  0.00  0.00    +0.000 OA
BRANCH  33  41
ATOM     34  O   UNL     1     112.947 128.670 140.692  0.00  0.00    +0.000 OA
ATOM     35  O   UNL     1     112.137 129.844 142.714  0.00  0.00    +0.000 OA
ATOM     36  O   UNL     1     112.052 128.199 142.627  0.00  0.00    +0.000 OA
ATOM     37  O   UNL     1     112.761 130.707 141.454  0.00  0.00    +0.000 OA
ATOM     38  C   UNL     1     112.407 129.453 142.040  0.00  0.00    +0.000 C 
ATOM     39  C   UNL     1     112.365 128.630 141.996  0.00  0.00    +0.000 C 
ATOM     40  C   UNL     1     112.719 129.884 141.410  0.00  0.00    +0.000 C 
ATOM     41  C   UNL     1     112.635 128.238 141.322  0.00  0.00    +0.000 C 
ATOM     42  C   UNL     1     112.989 129.493 140.737  0.00  0.00    +0.000 C 
ENDBRANCH  33  41
ENDBRANCH   8  33
TORSDOF 6
ENDMDL
MODEL 4
REMARK VINA RESULT:     -10.2      2.246      4.387
REMARK  Name = 74978152
REMARK  6 active torsions:
REMARK  status: ('A' for Active; 'I' for Inactive)
REMARK    1  A    between atoms: O_2  and  C_21
REMARK    2  A    between atoms: O_2  and  C_28
REMARK    3  A    between atoms: O_7  and  C_26
REMARK    4  A    between atoms: O_7  and  C_32
REMARK    5  A    between atoms: C_20  and  C_22
REMARK    6  A    between atoms: C_29  and  C_37
REMARK                            x       y       z     vdW  Elec       q    Type
REMARK                         _______ _______ _______ _____ _____    ______ ____
ROOT
ATOM      1  O   UNL     1     112.011 128.278 138.312  0.00  0.00    +0.000 OA
ATOM      2  O   UNL     1     113.728 127.263 136.847  0.00  0.00    +0.000 OA
ATOM      3  O   UNL     1     113.536 128.295 135.858  0.00  0.00    +0.000 OA
ATOM      4  C   UNL     1     112.975 127.253 138.062  0.00  0.00    +0.000 A 
ATOM      5  C   UNL     1     112.403 127.591 138.550  0.00  0.00    +0.000 A 
ATOM      6  C   UNL     1     113.156 127.601 137.335  0.00  0.00    +0.000 A 
ATOM      7  C   UNL     1     112.765 128.288 137.098  0.00  0.00    +0.000 A 
ATOM      8  C   UNL     1     111.961 129.708 136.596  0.00  0.00    +0.000 A 
ATOM      9  C   UNL     1     112.192 128.626 137.587  0.00  0.00    +0.000 A 
ATOM     10  C   UNL     1     111.778 129.340 137.351  0.00  0.00    +0.000 A 
ATOM     11  C   UNL     1     112.962 128.641 136.341  0.00  0.00    +0.000 A 
ATOM     12  C   UNL     1     112.558 129.356 136.088  0.00  0.00    +0.000 A 
ENDROOT
BRANCH   5  15
ATOM     13  O   UNL     1     110.638 126.045 140.181  0.00  0.00    +0.000 OA
ATOM     14  O   UNL     1     111.679 126.198 141.452  0.00  0.00    +0.000 OA
ATOM     15  C   UNL     1     112.222 127.243 139.276  0.00  0.00    +0.000 A 
ATOM     16  C   UNL     1     111.521 126.818 139.366  0.00  0.00    +0.000 A 
ATOM     17  C   UNL     1     112.743 127.319 139.911  0.00  0.00    +0.000 A 
ATOM     18  C   UNL     1     111.340 126.470 140.092  0.00  0.00    +0.000 A 
ATOM     19  C   UNL     1     112.562 126.971 140.636  0.00  0.00    +0.000 A 
ATOM     20  C   UNL     1     111.860 126.546 140.727  0.00  0.00    +0.000 A 
ENDBRANCH   5  15
BRANCH   4  21
ATOM     21  O   UNL     1     113.367 126.566 138.299  0.00  0.00    +0.000 OA
BRANCH  21  30
ATOM     22  O   UNL     1     112.656 125.712 137.401  0.00  0.00    +0.000 OA
ATOM     23  O   UNL     1     114.631 124.228 137.249  0.00  0.00    +0.000 OA
ATOM     24  O   UNL     1     113.262 123.868 136.402  0.00  0.00    +0.000 OA
ATOM     25  O   UNL     1     114.683 125.577 138.198  0.00  0.00    +0.000 OA
ATOM     26  C   UNL     1     113.972 124.723 137.300  0.00  0.00    +0.000 C 
ATOM     27  C   UNL     1     113.287 124.543 136.876  0.00  0.00    +0.000 C 
ATOM     28  C   UNL     1     113.998 125.397 137.774  0.00  0.00    +0.000 C 
ATOM     29  C   UNL     1     112.629 125.037 136.926  0.00  0.00    +0.000 C 
ATOM     30  C   UNL     1     113.340 125.892 137.824  0.00  0.00    +0.000 C 
BRANCH  29  32
ATOM     31  O   UNL     1     111.240 124.707 136.903  0.00  0.00    +0.000 OA
ATOM     32  C   UNL     1     111.945 124.857 136.503  0.00  0.00    +0.000 C 
ENDBRANCH  29  32
ENDBRANCH  21  30
ENDBRANCH   4  21
BRANCH   8  33
ATOM     33  O   UNL     1     111.568 130.394 136.363  0.00  0.00    +0.000 OA
BRANCH  33  41
ATOM     34  O   UNL     1     110.578 129.693 135.608  0.00  0.00    +0.000 OA
ATOM     35  O   UNL     1     108.956 131.510 136.048  0.00  0.00    +0.000 OA
ATOM     36  O   UNL     1     110.487 131.606 136.656  0.00  0.00    +0.000 OA
ATOM     37  O   UNL     1     108.506 130.204 135.146  0.00  0.00    +0.000 OA
ATOM     38  C   UNL     1     109.496 130.905 135.901  0.00  0.00    +0.000 C 
ATOM     39  C   UNL     1     110.262 130.952 136.205  0.00  0.00    +0.000 C 
ATOM     40  C   UNL     1     109.272 130.251 135.450  0.00  0.00    +0.000 C 
ATOM     41  C   UNL     1     110.803 130.347 136.058  0.00  0.00    +0.000 C 
ATOM     42  C   UNL     1     109.812 129.646 135.304  0.00  0.00    +0.000 C 
ENDBRANCH  33  41
ENDBRANCH   8  33
TORSDOF 6
ENDMDL
MODEL 5
REMARK VINA RESULT:     -10.1      2.326      5.554
REMARK  Name = 74978152
REMARK  6 active torsions:
REMARK  status: ('A' for Active; 'I' for Inactive)
REMARK    1  A    between atoms: O_2  and  C_21
REMARK    2  A    between atoms: O_2  and  C_28
REMARK    3  A    between atoms: O_7  and  C_26
REMARK    4  A    between atoms: O_7  and  C_32
REMARK    5  A    between atoms: C_20  and  C_22
REMARK    6  A    between atoms: C_29  and  C_37
REMARK                            x       y       z     vdW  Elec       q    Type
REMARK                         _______ _______ _______ _____ _____    ______ ____
ROOT
ATOM      1  O   UNL     1     110.971 128.615 136.186  0.00  0.00    +0.000 OA
ATOM      2  O   UNL     1     112.113 129.570 138.163  0.00  0.00    +0.000 OA
ATOM      3  O   UNL     1     113.042 128.466 138.195  0.00  0.00    +0.000 OA
ATOM      4  C   UNL     1     111.088 129.645 137.170  0.00  0.00    +0.000 A 
ATOM      5  C   UNL     1     110.708 129.326 136.511  0.00  0.00    +0.000 A 
ATOM      6  C   UNL     1     111.733 129.251 137.504  0.00  0.00    +0.000 A 
ATOM      7  C   UNL     1     111.996 128.540 137.179  0.00  0.00    +0.000 A 
ATOM      8  C   UNL     1     112.549 127.068 136.516  0.00  0.00    +0.000 A 
ATOM      9  C   UNL     1     111.614 128.222 136.520  0.00  0.00    +0.000 A 
ATOM     10  C   UNL     1     111.879 127.483 136.173  0.00  0.00    +0.000 A 
ATOM     11  C   UNL     1     112.667 128.141 137.536  0.00  0.00    +0.000 A 
ATOM     12  C   UNL     1     112.946 127.400 137.203  0.00  0.00    +0.000 A 
ENDROOT
BRANCH   5  15
ATOM     13  O   UNL     1     107.893 129.525 136.060  0.00  0.00    +0.000 OA
ATOM     14  O   UNL     1     108.132 130.898 135.176  0.00  0.00    +0.000 OA
ATOM     15  C   UNL     1     110.063 129.720 136.177  0.00  0.00    +0.000 A 
ATOM     16  C   UNL     1     109.300 129.426 136.286  0.00  0.00    +0.000 A 
ATOM     17  C   UNL     1     110.183 130.406 135.735  0.00  0.00    +0.000 A 
ATOM     18  C   UNL     1     108.656 129.819 135.951  0.00  0.00    +0.000 A 
ATOM     19  C   UNL     1     109.539 130.798 135.402  0.00  0.00    +0.000 A 
ATOM     20  C   UNL     1     108.775 130.506 135.509  0.00  0.00    +0.000 A 
ENDBRANCH   5  15
BRANCH   4  21
ATOM     21  O   UNL     1     110.825 130.356 137.495  0.00  0.00    +0.000 OA
BRANCH  21  30
ATOM     22  O   UNL     1     110.207 129.737 138.625  0.00  0.00    +0.000 OA
ATOM     23  O   UNL     1     110.630 131.771 139.971  0.00  0.00    +0.000 OA
ATOM     24  O   UNL     1     109.871 130.474 140.652  0.00  0.00    +0.000 OA
ATOM     25  O   UNL     1     111.107 131.712 138.392  0.00  0.00    +0.000 OA
ATOM     26  C   UNL     1     110.489 131.093 139.522  0.00  0.00    +0.000 C 
ATOM     27  C   UNL     1     110.109 130.444 139.863  0.00  0.00    +0.000 C 
ATOM     28  C   UNL     1     110.727 131.063 138.733  0.00  0.00    +0.000 C 
ATOM     29  C   UNL     1     109.968 129.766 139.415  0.00  0.00    +0.000 C 
ATOM     30  C   UNL     1     110.586 130.385 138.285  0.00  0.00    +0.000 C 
BRANCH  29  32
ATOM     31  O   UNL     1     108.861 128.866 139.463  0.00  0.00    +0.000 OA
ATOM     32  C   UNL     1     109.589 129.118 139.755  0.00  0.00    +0.000 C 
ENDBRANCH  29  32
ENDBRANCH  21  30
ENDBRANCH   4  21
BRANCH   8  33
ATOM     33  O   UNL     1     112.810 126.357 136.188  0.00  0.00    +0.000 OA
BRANCH  33  41
ATOM     34  O   UNL     1     111.745 125.570 136.728  0.00  0.00    +0.000 OA
ATOM     35  O   UNL     1     113.270 123.628 136.902  0.00  0.00    +0.000 OA
ATOM     36  O   UNL     1     113.826 125.062 136.305  0.00  0.00    +0.000 OA
ATOM     37  O   UNL     1     111.698 123.488 137.383  0.00  0.00    +0.000 OA
ATOM     38  C   UNL     1     112.762 124.276 136.844  0.00  0.00    +0.000 C 
ATOM     39  C   UNL     1     113.040 124.993 136.545  0.00  0.00    +0.000 C 
ATOM     40  C   UNL     1     111.975 124.206 137.085  0.00  0.00    +0.000 C 
ATOM     41  C   UNL     1     112.532 125.640 136.487  0.00  0.00    +0.000 C 
ATOM     42  C   UNL     1     111.468 124.853 137.026  0.00  0.00    +0.000 C 
ENDBRANCH  33  41
ENDBRANCH   8  33
TORSDOF 6
ENDMDL
MODEL 6
REMARK VINA RESULT:     -10.0      2.286      4.898
REMARK  Name = 74978152
REMARK  6 active torsions:
REMARK  status: ('A' for Active; 'I' for Inactive)
REMARK    1  A    between atoms: O_2  and  C_21
REMARK    2  A    between atoms: O_2  and  C_28
REMARK    3  A    between atoms: O_7  and  C_26
REMARK    4  A    between atoms: O_7  and  C_32
REMARK    5  A    between atoms: C_20  and  C_22
REMARK    6  A    between atoms: C_29  and  C_37
REMARK                            x       y       z     vdW  Elec       q    Type
REMARK                         _______ _______ _______ _____ _____    ______ ____
ROOT
ATOM      1  O   UNL     1     112.052 129.403 135.473  0.00  0.00    +0.000 OA
ATOM      2  O   UNL     1     111.823 127.017 136.087  0.00  0.00    +0.000 OA
ATOM      3  O   UNL     1     110.390 127.085 135.930  0.00  0.00    +0.000 OA
ATOM      4  C   UNL     1     112.646 128.163 135.861  0.00  0.00    +0.000 A 
ATOM      5  C   UNL     1     112.722 128.958 135.656  0.00  0.00    +0.000 A 
ATOM      6  C   UNL     1     111.899 127.812 135.882  0.00  0.00    +0.000 A 
ATOM      7  C   UNL     1     111.229 128.257 135.698  0.00  0.00    +0.000 A 
ATOM      8  C   UNL     1     109.835 129.168 135.321  0.00  0.00    +0.000 A 
ATOM      9  C   UNL     1     111.306 129.053 135.494  0.00  0.00    +0.000 A 
ATOM     10  C   UNL     1     110.616 129.527 135.300  0.00  0.00    +0.000 A 
ATOM     11  C   UNL     1     110.457 127.881 135.724  0.00  0.00    +0.000 A 
ATOM     12  C   UNL     1     109.756 128.339 135.534  0.00  0.00    +0.000 A 
ENDROOT
BRANCH   5  15
ATOM     13  O   UNL     1     114.673 130.698 136.811  0.00  0.00    +0.000 OA
ATOM     14  O   UNL     1     115.709 130.359 135.572  0.00  0.00    +0.000 OA
ATOM     15  C   UNL     1     113.469 129.308 135.635  0.00  0.00    +0.000 A 
ATOM     16  C   UNL     1     113.698 129.828 136.234  0.00  0.00    +0.000 A 
ATOM     17  C   UNL     1     113.987 129.139 135.016  0.00  0.00    +0.000 A 
ATOM     18  C   UNL     1     114.445 130.178 136.213  0.00  0.00    +0.000 A 
ATOM     19  C   UNL     1     114.733 129.489 134.995  0.00  0.00    +0.000 A 
ATOM     20  C   UNL     1     114.963 130.009 135.593  0.00  0.00    +0.000 A 
ENDBRANCH   5  15
BRANCH   4  21
ATOM     21  O   UNL     1     113.316 127.717 136.044  0.00  0.00    +0.000 OA
BRANCH  21  30
ATOM     22  O   UNL     1     113.070 127.707 137.452  0.00  0.00    +0.000 OA
ATOM     23  O   UNL     1     114.156 125.490 137.626  0.00  0.00    +0.000 OA
ATOM     24  O   UNL     1     113.548 126.219 138.976  0.00  0.00    +0.000 OA
ATOM     25  O   UNL     1     114.040 126.239 136.160  0.00  0.00    +0.000 OA
ATOM     26  C   UNL     1     113.794 126.229 137.568  0.00  0.00    +0.000 C 
ATOM     27  C   UNL     1     113.490 126.594 138.243  0.00  0.00    +0.000 C 
ATOM     28  C   UNL     1     113.736 126.604 136.836  0.00  0.00    +0.000 C 
ATOM     29  C   UNL     1     113.128 127.333 138.185  0.00  0.00    +0.000 C 
ATOM     30  C   UNL     1     113.374 127.343 136.778  0.00  0.00    +0.000 C 
BRANCH  29  32
ATOM     31  O   UNL     1     113.116 128.430 139.100  0.00  0.00    +0.000 OA
ATOM     32  C   UNL     1     112.824 127.697 138.860  0.00  0.00    +0.000 C 
ENDBRANCH  29  32
ENDBRANCH  21  30
ENDBRANCH   4  21
BRANCH   8  33
ATOM     33  O   UNL     1     109.168 129.616 135.136  0.00  0.00    +0.000 OA
BRANCH  33  41
ATOM     34  O   UNL     1     108.909 129.996 136.490  0.00  0.00    +0.000 OA
ATOM     35  O   UNL     1     107.927 132.128 135.704  0.00  0.00    +0.000 OA
ATOM     36  O   UNL     1     108.513 131.038 134.613  0.00  0.00    +0.000 OA
ATOM     37  O   UNL     1     107.995 131.797 137.319  0.00  0.00    +0.000 OA
ATOM     38  C   UNL     1     108.254 131.417 135.966  0.00  0.00    +0.000 C 
ATOM     39  C   UNL     1     108.547 130.872 135.420  0.00  0.00    +0.000 C 
ATOM     40  C   UNL     1     108.288 131.251 136.773  0.00  0.00    +0.000 C 
ATOM     41  C   UNL     1     108.875 130.161 135.682  0.00  0.00    +0.000 C 
ATOM     42  C   UNL     1     108.615 130.541 137.035  0.00  0.00    +0.000 C 
ENDBRANCH  33  41
ENDBRANCH   8  33
TORSDOF 6
ENDMDL
MODEL 7
REMARK VINA RESULT:      -9.9      1.550      5.456
REMARK  Name = 74978152
REMARK  6 active torsions:
REMARK  status: ('A' for Active; 'I' for Inactive)
REMARK    1  A    between atoms: O_2  and  C_21
REMARK    2  A    between atoms: O_2  and  C_28
REMARK    3  A    between atoms: O_7  and  C_26
REMARK    4  A    between atoms: O_7  and  C_32
REMARK    5  A    between atoms: C_20  and  C_22
REMARK    6  A    between atoms: C_29  and  C_37
REMARK                            x       y       z     vdW  Elec       q    Type
REMARK                         _______ _______ _______ _____ _____    ______ ____
ROOT
ATOM      1  O   UNL     1     112.770 128.615 138.165  0.00  0.00    +0.000 OA
ATOM      2  O   UNL     1     114.055 128.590 140.279  0.00  0.00    +0.000 OA
ATOM      3  O   UNL     1     113.696 127.212 140.514  0.00  0.00    +0.000 OA
ATOM      4  C   UNL     1     113.598 129.285 139.117  0.00  0.00    +0.000 A 
ATOM      5  C   UNL     1     113.169 129.293 138.413  0.00  0.00    +0.000 A 
ATOM      6  C   UNL     1     113.627 128.598 139.575  0.00  0.00    +0.000 A 
ATOM      7  C   UNL     1     113.227 127.920 139.326  0.00  0.00    +0.000 A 
ATOM      8  C   UNL     1     112.405 126.511 138.823  0.00  0.00    +0.000 A 
ATOM      9  C   UNL     1     112.799 127.929 138.621  0.00  0.00    +0.000 A 
ATOM     10  C   UNL     1     112.379 127.229 138.352  0.00  0.00    +0.000 A 
ATOM     11  C   UNL     1     113.265 127.212 139.810  0.00  0.00    +0.000 A 
ATOM     12  C   UNL     1     112.851 126.502 139.558  0.00  0.00    +0.000 A 
ENDROOT
BRANCH   5  15
ATOM     13  O   UNL     1     111.732 131.571 137.458  0.00  0.00    +0.000 OA
ATOM     14  O   UNL     1     113.053 132.039 136.586  0.00  0.00    +0.000 OA
ATOM     15  C   UNL     1     113.140 129.980 137.956  0.00  0.00    +0.000 A 
ATOM     16  C   UNL     1     112.450 130.432 137.935  0.00  0.00    +0.000 A 
ATOM     17  C   UNL     1     113.800 130.214 137.520  0.00  0.00    +0.000 A 
ATOM     18  C   UNL     1     112.421 131.119 137.478  0.00  0.00    +0.000 A 
ATOM     19  C   UNL     1     113.771 130.900 137.064  0.00  0.00    +0.000 A 
ATOM     20  C   UNL     1     113.082 131.353 137.042  0.00  0.00    +0.000 A 
ENDBRANCH   5  15
BRANCH   4  21
ATOM     21  O   UNL     1     113.997 129.963 139.366  0.00  0.00    +0.000 OA
BRANCH  21  30
ATOM     22  O   UNL     1     113.050 130.257 140.394  0.00  0.00    +0.000 OA
ATOM     23  O   UNL     1     114.812 131.420 141.685  0.00  0.00    +0.000 OA
ATOM     24  O   UNL     1     113.277 131.327 142.283  0.00  0.00    +0.000 OA
ATOM     25  O   UNL     1     115.172 130.738 140.226  0.00  0.00    +0.000 OA
ATOM     26  C   UNL     1     114.224 131.032 141.255  0.00  0.00    +0.000 C 
ATOM     27  C   UNL     1     113.456 130.986 141.554  0.00  0.00    +0.000 C 
ATOM     28  C   UNL     1     114.404 130.691 140.525  0.00  0.00    +0.000 C 
ATOM     29  C   UNL     1     112.869 130.598 141.123  0.00  0.00    +0.000 C 
ATOM     30  C   UNL     1     113.816 130.303 140.095  0.00  0.00    +0.000 C 
BRANCH  29  32
ATOM     31  O   UNL     1     111.485 130.938 141.037  0.00  0.00    +0.000 OA
ATOM     32  C   UNL     1     112.102 130.551 141.422  0.00  0.00    +0.000 C 
ENDBRANCH  29  32
ENDBRANCH  21  30
ENDBRANCH   4  21
BRANCH   8  33
ATOM     33  O   UNL     1     112.004 125.835 138.572  0.00  0.00    +0.000 OA
BRANCH  33  41
ATOM     34  O   UNL     1     113.152 125.296 137.912  0.00  0.00    +0.000 OA
ATOM     35  O   UNL     1     111.677 124.041 136.371  0.00  0.00    +0.000 OA
ATOM     36  O   UNL     1     111.021 124.998 137.545  0.00  0.00    +0.000 OA
ATOM     37  O   UNL     1     113.315 123.920 136.225  0.00  0.00    +0.000 OA
ATOM     38  C   UNL     1     112.168 124.460 136.885  0.00  0.00    +0.000 C 
ATOM     39  C   UNL     1     111.841 124.938 137.472  0.00  0.00    +0.000 C 
ATOM     40  C   UNL     1     112.988 124.399 136.812  0.00  0.00    +0.000 C 
ATOM     41  C   UNL     1     112.332 125.356 137.985  0.00  0.00    +0.000 C 
ATOM     42  C   UNL     1     113.479 124.817 137.325  0.00  0.00    +0.000 C 
ENDBRANCH  33  41
ENDBRANCH   8  33
TORSDOF 6
ENDMDL
MODEL 8
REMARK VINA RESULT:      -9.9      1.133      2.707
REMARK  Name = 74978152
REMARK  6 active torsions:
REMARK  status: ('A' for Active; 'I' for Inactive)
REMARK    1  A    between atoms: O_2  and  C_21
REMARK    2  A    between atoms: O_2  and  C_28
REMARK    3  A    between atoms: O_7  and  C_26
REMARK    4  A    between atoms: O_7  and  C_32
REMARK    5  A    between atoms: C_20  and  C_22
REMARK    6  A    between atoms: C_29  and  C_37
REMARK                            x       y       z     vdW  Elec       q    Type
REMARK                         _______ _______ _______ _____ _____    ______ ____
ROOT
ATOM      1  O   UNL     1     113.167 127.430 138.393  0.00  0.00    +0.000 OA
ATOM      2  O   UNL     1     111.718 128.958 137.092  0.00  0.00    +0.000 OA
ATOM      3  O   UNL     1     111.722 129.922 138.166  0.00  0.00    +0.000 OA
ATOM      4  C   UNL     1     112.432 127.725 137.203  0.00  0.00    +0.000 A 
ATOM      5  C   UNL     1     112.915 127.216 137.637  0.00  0.00    +0.000 A 
ATOM      6  C   UNL     1     112.201 128.449 137.526  0.00  0.00    +0.000 A 
ATOM      7  C   UNL     1     112.453 128.663 138.282  0.00  0.00    +0.000 A 
ATOM      8  C   UNL     1     112.967 129.117 139.845  0.00  0.00    +0.000 A 
ATOM      9  C   UNL     1     112.936 128.153 138.715  0.00  0.00    +0.000 A 
ATOM     10  C   UNL     1     113.205 128.364 139.503  0.00  0.00    +0.000 A 
ATOM     11  C   UNL     1     112.205 129.418 138.607  0.00  0.00    +0.000 A 
ATOM     12  C   UNL     1     112.464 129.647 139.394  0.00  0.00    +0.000 A 
ENDROOT
BRANCH   5  15
ATOM     13  O   UNL     1     112.655 124.374 137.494  0.00  0.00    +0.000 OA
ATOM     14  O   UNL     1     113.840 124.323 136.346  0.00  0.00    +0.000 OA
ATOM     15  C   UNL     1     113.147 126.493 137.314  0.00  0.00    +0.000 A 
ATOM     16  C   UNL     1     112.785 125.795 137.565  0.00  0.00    +0.000 A 
ATOM     17  C   UNL     1     113.739 126.467 136.740  0.00  0.00    +0.000 A 
ATOM     18  C   UNL     1     113.016 125.071 137.242  0.00  0.00    +0.000 A 
ATOM     19  C   UNL     1     113.970 125.744 136.418  0.00  0.00    +0.000 A 
ATOM     20  C   UNL     1     113.609 125.046 136.669  0.00  0.00    +0.000 A 
ENDBRANCH   5  15
BRANCH   4  21
ATOM     21  O   UNL     1     112.180 127.511 136.447  0.00  0.00    +0.000 OA
BRANCH  21  30
ATOM     22  O   UNL     1     110.844 127.215 136.856  0.00  0.00    +0.000 OA
ATOM     23  O   UNL     1     110.016 127.851 134.612  0.00  0.00    +0.000 OA
ATOM     24  O   UNL     1     108.955 127.343 135.769  0.00  0.00    +0.000 OA
ATOM     25  O   UNL     1     111.629 127.936 134.951  0.00  0.00    +0.000 OA
ATOM     26  C   UNL     1     110.292 127.639 135.360  0.00  0.00    +0.000 C 
ATOM     27  C   UNL     1     109.761 127.385 135.939  0.00  0.00    +0.000 C 
ATOM     28  C   UNL     1     111.098 127.681 135.530  0.00  0.00    +0.000 C 
ATOM     29  C   UNL     1     110.037 127.173 136.687  0.00  0.00    +0.000 C 
ATOM     30  C   UNL     1     111.374 127.469 136.278  0.00  0.00    +0.000 C 
BRANCH  29  32
ATOM     31  O   UNL     1     109.581 126.165 137.590  0.00  0.00    +0.000 OA
ATOM     32  C   UNL     1     109.507 126.919 137.265  0.00  0.00    +0.000 C 
ENDBRANCH  29  32
ENDBRANCH  21  30
ENDBRANCH   4  21
BRANCH   8  33
ATOM     33  O   UNL     1     113.221 129.327 140.602  0.00  0.00    +0.000 OA
BRANCH  33  41
ATOM     34  O   UNL     1     114.474 129.881 140.196  0.00  0.00    +0.000 OA
ATOM     35  O   UNL     1     114.285 131.601 141.966  0.00  0.00    +0.000 OA
ATOM     36  O   UNL     1     113.095 130.474 141.781  0.00  0.00    +0.000 OA
ATOM     37  O   UNL     1     115.601 131.583 140.972  0.00  0.00    +0.000 OA
ATOM     38  C   UNL     1     114.348 131.028 141.376  0.00  0.00    +0.000 C 
ATOM     39  C   UNL     1     113.753 130.464 141.284  0.00  0.00    +0.000 C 
ATOM     40  C   UNL     1     115.006 131.019 140.879  0.00  0.00    +0.000 C 
ATOM     41  C   UNL     1     113.816 129.891 140.694  0.00  0.00    +0.000 C 
ATOM     42  C   UNL     1     115.069 130.446 140.289  0.00  0.00    +0.000 C 
ENDBRANCH  33  41
ENDBRANCH   8  33
TORSDOF 6
ENDMDL
MODEL 9
REMARK VINA RESULT:      -9.8      2.996      5.211
REMARK  Name = 74978152
REMARK  6 active torsions:
REMARK  status: ('A' for Active; 'I' for Inactive)
REMARK    1  A    between atoms: O_2  and  C_21
REMARK    2  A    between atoms: O_2  and  C_28
REMARK    3  A    between atoms: O_7  and  C_26
REMARK    4  A    between atoms: O_7  and  C_32
REMARK    5  A    between atoms: C_20  and  C_22
REMARK    6  A    between atoms: C_29  and  C_37
REMARK                            x       y       z     vdW  Elec       q    Type
REMARK                         _______ _______ _______ _____ _____    ______ ____
ROOT
ATOM      1  O   UNL     1     109.791 127.130 137.787  0.00  0.00    +0.000 OA
ATOM      2  O   UNL     1     110.572 125.448 136.148  0.00  0.00    +0.000 OA
ATOM      3  O   UNL     1     109.927 126.157 135.070  0.00  0.00    +0.000 OA
ATOM      4  C   UNL     1     110.505 125.928 137.493  0.00  0.00    +0.000 A 
ATOM      5  C   UNL     1     110.245 126.489 138.039  0.00  0.00    +0.000 A 
ATOM      6  C   UNL     1     110.311 126.009 136.694  0.00  0.00    +0.000 A 
ATOM      7  C   UNL     1     109.858 126.650 136.443  0.00  0.00    +0.000 A 
ATOM      8  C   UNL     1     108.919 127.973 135.910  0.00  0.00    +0.000 A 
ATOM      9  C   UNL     1     109.598 127.211 136.990  0.00  0.00    +0.000 A 
ATOM     10  C   UNL     1     109.124 127.883 136.740  0.00  0.00    +0.000 A 
ATOM     11  C   UNL     1     109.662 126.723 135.610  0.00  0.00    +0.000 A 
ATOM     12  C   UNL     1     109.190 127.389 135.341  0.00  0.00    +0.000 A 
ENDROOT
BRANCH   5  15
ATOM     13  O   UNL     1     109.813 125.248 140.577  0.00  0.00    +0.000 OA
ATOM     14  O   UNL     1     111.020 126.164 141.230  0.00  0.00    +0.000 OA
ATOM     15  C   UNL     1     110.439 126.408 138.837  0.00  0.00    +0.000 A 
ATOM     16  C   UNL     1     110.029 125.869 139.308  0.00  0.00    +0.000 A 
ATOM     17  C   UNL     1     111.042 126.866 139.164  0.00  0.00    +0.000 A 
ATOM     18  C   UNL     1     110.223 125.788 140.106  0.00  0.00    +0.000 A 
ATOM     19  C   UNL     1     111.236 126.785 139.961  0.00  0.00    +0.000 A 
ATOM     20  C   UNL     1     110.826 126.246 140.433  0.00  0.00    +0.000 A 
ENDBRANCH   5  15
BRANCH   4  21
ATOM     21  O   UNL     1     110.959 125.286 137.744  0.00  0.00    +0.000 OA
BRANCH  21  30
ATOM     22  O   UNL     1     112.181 125.794 137.202  0.00  0.00    +0.000 OA
ATOM     23  O   UNL     1     112.988 123.480 136.855  0.00  0.00    +0.000 OA
ATOM     24  O   UNL     1     113.940 124.759 136.429  0.00  0.00    +0.000 OA
ATOM     25  O   UNL     1     111.498 123.744 137.513  0.00  0.00    +0.000 OA
ATOM     26  C   UNL     1     112.719 124.251 136.971  0.00  0.00    +0.000 C 
ATOM     27  C   UNL     1     113.195 124.891 136.758  0.00  0.00    +0.000 C 
ATOM     28  C   UNL     1     111.974 124.384 137.300  0.00  0.00    +0.000 C 
ATOM     29  C   UNL     1     112.926 125.663 136.874  0.00  0.00    +0.000 C 
ATOM     30  C   UNL     1     111.705 125.155 137.415  0.00  0.00    +0.000 C 
BRANCH  29  32
ATOM     31  O   UNL     1     113.633 126.851 137.230  0.00  0.00    +0.000 OA
ATOM     32  C   UNL     1     113.402 126.301 136.661  0.00  0.00    +0.000 C 
ENDBRANCH  29  32
ENDBRANCH  21  30
ENDBRANCH   4  21
BRANCH   8  33
ATOM     33  O   UNL     1     108.465 128.616 135.663  0.00  0.00    +0.000 OA
BRANCH  33  41
ATOM     34  O   UNL     1     109.580 129.449 135.340  0.00  0.00    +0.000 OA
ATOM     35  O   UNL     1     108.280 131.447 136.004  0.00  0.00    +0.000 OA
ATOM     36  O   UNL     1     107.598 129.948 136.106  0.00  0.00    +0.000 OA
ATOM     37  O   UNL     1     109.828 131.615 135.460  0.00  0.00    +0.000 OA
ATOM     38  C   UNL     1     108.713 130.781 135.783  0.00  0.00    +0.000 C 
ATOM     39  C   UNL     1     108.372 130.031 135.834  0.00  0.00    +0.000 C 
ATOM     40  C   UNL     1     109.487 130.864 135.510  0.00  0.00    +0.000 C 
ATOM     41  C   UNL     1     108.806 129.365 135.612  0.00  0.00    +0.000 C 
ATOM     42  C   UNL     1     109.920 130.199 135.289  0.00  0.00    +0.000 C 
ENDBRANCH  33  41
ENDBRANCH   8  33
TORSDOF 6
ENDMDL
MODEL 10
REMARK VINA RESULT:      -9.7      2.437      2.946
REMARK  Name = 74978152
REMARK  6 active torsions:
REMARK  status: ('A' for Active; 'I' for Inactive)
REMARK    1  A    between atoms: O_2  and  C_21
REMARK    2  A    between atoms: O_2  and  C_28
REMARK    3  A    between atoms: O_7  and  C_26
REMARK    4  A    between atoms: O_7  and  C_32
REMARK    5  A    between atoms: C_20  and  C_22
REMARK    6  A    between atoms: C_29  and  C_37
REMARK                            x       y       z     vdW  Elec       q    Type
REMARK                         _______ _______ _______ _____ _____    ______ ____
ROOT
ATOM      1  O   UNL     1     111.393 128.438 137.719  0.00  0.00    +0.000 OA
ATOM      2  O   UNL     1     111.959 126.236 138.697  0.00  0.00    +0.000 OA
ATOM      3  O   UNL     1     110.903 126.365 139.671  0.00  0.00    +0.000 OA
ATOM      4  C   UNL     1     112.203 127.261 137.731  0.00  0.00    +0.000 A 
ATOM      5  C   UNL     1     112.014 127.995 137.405  0.00  0.00    +0.000 A 
ATOM      6  C   UNL     1     111.770 126.970 138.371  0.00  0.00    +0.000 A 
ATOM      7  C   UNL     1     111.149 127.414 138.685  0.00  0.00    +0.000 A 
ATOM      8  C   UNL     1     109.863 128.322 139.343  0.00  0.00    +0.000 A 
ATOM      9  C   UNL     1     110.961 128.148 138.359  0.00  0.00    +0.000 A 
ATOM     10  C   UNL     1     110.317 128.619 138.677  0.00  0.00    +0.000 A 
ATOM     11  C   UNL     1     110.707 127.101 139.351  0.00  0.00    +0.000 A 
ATOM     12  C   UNL     1     110.059 127.557 139.683  0.00  0.00    +0.000 A 
ENDROOT
BRANCH   5  15
ATOM     13  O   UNL     1     112.194 128.632 134.625  0.00  0.00    +0.000 OA
ATOM     14  O   UNL     1     113.743 129.156 134.845  0.00  0.00    +0.000 OA
ATOM     15  C   UNL     1     112.446 128.285 136.765  0.00  0.00    +0.000 A 
ATOM     16  C   UNL     1     112.104 128.313 136.015  0.00  0.00    +0.000 A 
ATOM     17  C   UNL     1     113.221 128.548 136.875  0.00  0.00    +0.000 A 
ATOM     18  C   UNL     1     112.536 128.604 135.375  0.00  0.00    +0.000 A 
ATOM     19  C   UNL     1     113.653 128.838 136.236  0.00  0.00    +0.000 A 
ATOM     20  C   UNL     1     113.311 128.866 135.485  0.00  0.00    +0.000 A 
ENDBRANCH   5  15
BRANCH   4  21
ATOM     21  O   UNL     1     112.824 126.817 137.417  0.00  0.00    +0.000 OA
BRANCH  21  30
ATOM     22  O   UNL     1     111.979 125.877 136.752  0.00  0.00    +0.000 OA
ATOM     23  O   UNL     1     113.683 124.112 137.082  0.00  0.00    +0.000 OA
ATOM     24  O   UNL     1     112.270 123.760 136.306  0.00  0.00    +0.000 OA
ATOM     25  O   UNL     1     113.960 125.641 137.637  0.00  0.00    +0.000 OA
ATOM     26  C   UNL     1     113.115 124.700 136.972  0.00  0.00    +0.000 C 
ATOM     27  C   UNL     1     112.408 124.524 136.584  0.00  0.00    +0.000 C 
ATOM     28  C   UNL     1     113.253 125.465 137.249  0.00  0.00    +0.000 C 
ATOM     29  C   UNL     1     111.840 125.112 136.474  0.00  0.00    +0.000 C 
ATOM     30  C   UNL     1     112.685 126.053 137.139  0.00  0.00    +0.000 C 
BRANCH  29  32
ATOM     31  O   UNL     1     110.945 125.316 135.379  0.00  0.00    +0.000 OA
ATOM     32  C   UNL     1     111.134 124.936 136.086  0.00  0.00    +0.000 C 
ENDBRANCH  29  32
ENDBRANCH  21  30
ENDBRANCH   4  21
BRANCH   8  33
ATOM     33  O   UNL     1     109.242 128.768 139.654  0.00  0.00    +0.000 OA
BRANCH  33  41
ATOM     34  O   UNL     1     110.073 129.340 140.667  0.00  0.00    +0.000 OA
ATOM     35  O   UNL     1     108.530 131.266 140.846  0.00  0.00    +0.000 OA
ATOM     36  O   UNL     1     108.213 130.052 139.774  0.00  0.00    +0.000 OA
ATOM     37  O   UNL     1     109.875 131.197 141.798  0.00  0.00    +0.000 OA
ATOM     38  C   UNL     1     109.044 130.624 140.786  0.00  0.00    +0.000 C 
ATOM     39  C   UNL     1     108.886 130.017 140.250  0.00  0.00    +0.000 C 
ATOM     40  C   UNL     1     109.717 130.589 141.262  0.00  0.00    +0.000 C 
ATOM     41  C   UNL     1     109.401 129.375 140.190  0.00  0.00    +0.000 C 
ATOM     42  C   UNL     1     110.231 129.948 141.203  0.00  0.00    +0.000 C 
ENDBRANCH  33  41
ENDBRANCH   8  33
TORSDOF 6
ENDMDL
