MODEL 1
REMARK VINA RESULT:     -10.6      0.000      0.000
REMARK  Name = 44258425
REMARK  5 active torsions:
REMARK  status: ('A' for Active; 'I' for Inactive)
REMARK    1  A    between atoms: O_1  and  C_15
REMARK    2  A    between atoms: O_1  and  C_20
REMARK    3  A    between atoms: O_5  and  C_19
REMARK    4  A    between atoms: O_5  and  C_26
REMARK    5  A    between atoms: C_33  and  C_35
REMARK                            x       y       z     vdW  Elec       q    Type
REMARK                         _______ _______ _______ _____ _____    ______ ____
ROOT
ATOM      1  O   UNL     1     106.275 125.722 143.327  0.00  0.00    +0.000 OA
ENDROOT
BRANCH   1   6
ATOM      2  O   UNL     1     104.753 128.008 142.457  0.00  0.00    +0.000 OA
ATOM      3  O   UNL     1     107.414 126.713 143.993  0.00  0.00    +0.000 OA
ATOM      4  O   UNL     1     107.238 128.351 143.899  0.00  0.00    +0.000 OA
ATOM      5  O   UNL     1     106.506 129.522 143.481  0.00  0.00    +0.000 OA
ATOM      6  C   UNL     1     106.187 126.541 143.281  0.00  0.00    +0.000 A 
ATOM      7  C   UNL     1     106.757 127.037 143.613  0.00  0.00    +0.000 A 
ATOM      8  C   UNL     1     105.530 126.865 142.902  0.00  0.00    +0.000 A 
ATOM      9  C   UNL     1     105.442 127.684 142.855  0.00  0.00    +0.000 A 
ATOM     10  C   UNL     1     106.669 127.856 143.567  0.00  0.00    +0.000 A 
ATOM     11  C   UNL     1     106.011 128.179 143.187  0.00  0.00    +0.000 A 
ATOM     12  C   UNL     1     105.932 129.033 143.146  0.00  0.00    +0.000 A 
ATOM     13  C   UNL     1     104.655 128.860 142.405  0.00  0.00    +0.000 A 
ATOM     14  C   UNL     1     105.249 129.377 142.752  0.00  0.00    +0.000 A 
BRANCH  13  16
ATOM     15  O   UNL     1     102.022 130.142 140.885  0.00  0.00    +0.000 OA
ATOM     16  C   UNL     1     103.997 129.181 142.025  0.00  0.00    +0.000 A 
ATOM     17  C   UNL     1     103.560 129.778 142.390  0.00  0.00    +0.000 A 
ATOM     18  C   UNL     1     103.775 128.904 141.280  0.00  0.00    +0.000 A 
ATOM     19  C   UNL     1     102.902 130.099 142.010  0.00  0.00    +0.000 A 
ATOM     20  C   UNL     1     103.117 129.224 140.900  0.00  0.00    +0.000 A 
ATOM     21  C   UNL     1     102.680 129.821 141.265  0.00  0.00    +0.000 A 
ENDBRANCH  13  16
ENDBRANCH   1   6
BRANCH   1  29
ATOM     22  O   UNL     1     106.697 125.445 141.991  0.00  0.00    +0.000 OA
ATOM     23  O   UNL     1     105.145 123.519 141.899  0.00  0.00    +0.000 OA
ATOM     24  O   UNL     1     105.240 124.438 143.267  0.00  0.00    +0.000 OA
ATOM     25  C   UNL     1     106.132 124.344 141.276  0.00  0.00    +0.000 C 
ATOM     26  C   UNL     1     105.662 124.161 141.930  0.00  0.00    +0.000 C 
ATOM     27  C   UNL     1     106.650 124.986 141.306  0.00  0.00    +0.000 C 
ATOM     28  C   UNL     1     105.710 124.621 142.613  0.00  0.00    +0.000 C 
ATOM     29  C   UNL     1     106.228 125.263 142.643  0.00  0.00    +0.000 C 
ATOM     30  C   UNL     1     107.119 125.168 140.654  0.00  0.00    +0.000 C 
BRANCH  25  31
ATOM     31  O   UNL     1     106.084 123.884 140.593  0.00  0.00    +0.000 OA
BRANCH  31  36
ATOM     32  O   UNL     1     105.106 124.764 140.035  0.00  0.00    +0.000 OA
ATOM     33  O   UNL     1     105.695 122.740 139.470  0.00  0.00    +0.000 OA
ATOM     34  O   UNL     1     104.522 123.047 138.351  0.00  0.00    +0.000 OA
ATOM     35  O   UNL     1     103.739 124.500 138.354  0.00  0.00    +0.000 OA
ATOM     36  C   UNL     1     105.497 124.038 140.033  0.00  0.00    +0.000 C 
ATOM     37  C   UNL     1     105.303 123.466 139.472  0.00  0.00    +0.000 C 
ATOM     38  C   UNL     1     104.717 123.620 138.912  0.00  0.00    +0.000 C 
ATOM     39  C   UNL     1     104.325 124.346 138.914  0.00  0.00    +0.000 C 
ATOM     40  C   UNL     1     104.520 124.918 139.475  0.00  0.00    +0.000 C 
ENDBRANCH  31  36
ENDBRANCH  25  31
ENDBRANCH   1  29
TORSDOF 5
ENDMDL
MODEL 2
REMARK VINA RESULT:     -10.6      7.272      8.651
REMARK  Name = 44258425
REMARK  5 active torsions:
REMARK  status: ('A' for Active; 'I' for Inactive)
REMARK    1  A    between atoms: O_1  and  C_15
REMARK    2  A    between atoms: O_1  and  C_20
REMARK    3  A    between atoms: O_5  and  C_19
REMARK    4  A    between atoms: O_5  and  C_26
REMARK    5  A    between atoms: C_33  and  C_35
REMARK                            x       y       z     vdW  Elec       q    Type
REMARK                         _______ _______ _______ _____ _____    ______ ____
ROOT
ATOM      1  O   UNL     1     108.952 127.557 136.640  0.00  0.00    +0.000 OA
ENDROOT
BRANCH   1   6
ATOM      2  O   UNL     1     111.053 129.529 136.600  0.00  0.00    +0.000 OA
ATOM      3  O   UNL     1     107.972 128.560 135.771  0.00  0.00    +0.000 OA
ATOM      4  O   UNL     1     108.515 130.048 135.309  0.00  0.00    +0.000 OA
ATOM      5  O   UNL     1     109.541 131.062 135.266  0.00  0.00    +0.000 OA
ATOM      6  C   UNL     1     109.224 128.301 136.409  0.00  0.00    +0.000 A 
ATOM      7  C   UNL     1     108.734 128.803 135.974  0.00  0.00    +0.000 A 
ATOM      8  C   UNL     1     109.986 128.544 136.612  0.00  0.00    +0.000 A 
ATOM      9  C   UNL     1     110.257 129.288 136.381  0.00  0.00    +0.000 A 
ATOM     10  C   UNL     1     109.005 129.547 135.743  0.00  0.00    +0.000 A 
ATOM     11  C   UNL     1     109.767 129.789 135.947  0.00  0.00    +0.000 A 
ATOM     12  C   UNL     1     110.038 130.566 135.701  0.00  0.00    +0.000 A 
ATOM     13  C   UNL     1     111.342 130.302 136.363  0.00  0.00    +0.000 A 
ATOM     14  C   UNL     1     110.831 130.825 135.909  0.00  0.00    +0.000 A 
BRANCH  13  16
ATOM     15  O   UNL     1     114.391 131.262 137.183  0.00  0.00    +0.000 OA
ATOM     16  C   UNL     1     112.104 130.542 136.568  0.00  0.00    +0.000 A 
ATOM     17  C   UNL     1     112.758 130.205 136.193  0.00  0.00    +0.000 A 
ATOM     18  C   UNL     1     112.213 131.119 137.147  0.00  0.00    +0.000 A 
ATOM     19  C   UNL     1     113.520 130.445 136.398  0.00  0.00    +0.000 A 
ATOM     20  C   UNL     1     112.975 131.359 137.353  0.00  0.00    +0.000 A 
ATOM     21  C   UNL     1     113.628 131.022 136.978  0.00  0.00    +0.000 A 
ENDBRANCH  13  16
ENDBRANCH   1   6
BRANCH   1  29
ATOM     22  O   UNL     1     109.713 126.660 135.829  0.00  0.00    +0.000 OA
ATOM     23  O   UNL     1     110.387 125.403 137.851  0.00  0.00    +0.000 OA
ATOM     24  O   UNL     1     109.402 126.719 137.988  0.00  0.00    +0.000 OA
ATOM     25  C   UNL     1     110.431 125.583 136.434  0.00  0.00    +0.000 C 
ATOM     26  C   UNL     1     110.162 125.822 137.177  0.00  0.00    +0.000 C 
ATOM     27  C   UNL     1     110.206 126.002 135.760  0.00  0.00    +0.000 C 
ATOM     28  C   UNL     1     109.670 126.480 137.245  0.00  0.00    +0.000 C 
ATOM     29  C   UNL     1     109.445 126.899 136.571  0.00  0.00    +0.000 C 
ATOM     30  C   UNL     1     110.474 125.762 135.018  0.00  0.00    +0.000 C 
BRANCH  25  31
ATOM     31  O   UNL     1     110.923 124.924 136.366  0.00  0.00    +0.000 OA
BRANCH  31  36
ATOM     32  O   UNL     1     112.081 125.761 136.432  0.00  0.00    +0.000 OA
ATOM     33  O   UNL     1     111.873 123.593 136.586  0.00  0.00    +0.000 OA
ATOM     34  O   UNL     1     113.505 123.764 136.761  0.00  0.00    +0.000 OA
ATOM     35  O   UNL     1     114.187 125.266 136.717  0.00  0.00    +0.000 OA
ATOM     36  C   UNL     1     111.740 125.010 136.454  0.00  0.00    +0.000 C 
ATOM     37  C   UNL     1     112.214 124.344 136.564  0.00  0.00    +0.000 C 
ATOM     38  C   UNL     1     113.030 124.430 136.651  0.00  0.00    +0.000 C 
ATOM     39  C   UNL     1     113.371 125.181 136.629  0.00  0.00    +0.000 C 
ATOM     40  C   UNL     1     112.896 125.846 136.519  0.00  0.00    +0.000 C 
ENDBRANCH  31  36
ENDBRANCH  25  31
ENDBRANCH   1  29
TORSDOF 5
ENDMDL
MODEL 3
REMARK VINA RESULT:     -10.6      7.092      9.097
REMARK  Name = 44258425
REMARK  5 active torsions:
REMARK  status: ('A' for Active; 'I' for Inactive)
REMARK    1  A    between atoms: O_1  and  C_15
REMARK    2  A    between atoms: O_1  and  C_20
REMARK    3  A    between atoms: O_5  and  C_19
REMARK    4  A    between atoms: O_5  and  C_26
REMARK    5  A    between atoms: C_33  and  C_35
REMARK                            x       y       z     vdW  Elec       q    Type
REMARK                         _______ _______ _______ _____ _____    ______ ____
ROOT
ATOM      1  O   UNL     1     109.716 126.275 135.974  0.00  0.00    +0.000 OA
ENDROOT
BRANCH   1   6
ATOM      2  O   UNL     1     111.658 126.630 138.072  0.00  0.00    +0.000 OA
ATOM      3  O   UNL     1     110.575 125.000 135.373  0.00  0.00    +0.000 OA
ATOM      4  O   UNL     1     111.975 124.529 136.108  0.00  0.00    +0.000 OA
ATOM      5  O   UNL     1     112.970 124.673 137.143  0.00  0.00    +0.000 OA
ATOM      6  C   UNL     1     110.416 126.039 136.341  0.00  0.00    +0.000 A 
ATOM      7  C   UNL     1     110.846 125.401 136.041  0.00  0.00    +0.000 A 
ATOM      8  C   UNL     1     110.687 126.440 137.009  0.00  0.00    +0.000 A 
ATOM      9  C   UNL     1     111.387 126.204 137.377  0.00  0.00    +0.000 A 
ATOM     10  C   UNL     1     111.546 125.165 136.408  0.00  0.00    +0.000 A 
ATOM     11  C   UNL     1     111.816 125.567 137.076  0.00  0.00    +0.000 A 
ATOM     12  C   UNL     1     112.546 125.312 137.449  0.00  0.00    +0.000 A 
ATOM     13  C   UNL     1     112.386 126.390 138.459  0.00  0.00    +0.000 A 
ATOM     14  C   UNL     1     112.834 125.725 138.146  0.00  0.00    +0.000 A 
BRANCH  13  16
ATOM     15  O   UNL     1     113.459 128.002 141.131  0.00  0.00    +0.000 OA
ATOM     16  C   UNL     1     112.655 126.793 139.127  0.00  0.00    +0.000 A 
ATOM     17  C   UNL     1     113.169 127.433 139.044  0.00  0.00    +0.000 A 
ATOM     18  C   UNL     1     112.409 126.556 139.879  0.00  0.00    +0.000 A 
ATOM     19  C   UNL     1     113.437 127.836 139.712  0.00  0.00    +0.000 A 
ATOM     20  C   UNL     1     112.677 126.959 140.547  0.00  0.00    +0.000 A 
ATOM     21  C   UNL     1     113.191 127.599 140.464  0.00  0.00    +0.000 A 
ENDBRANCH  13  16
ENDBRANCH   1   6
BRANCH   1  29
ATOM     22  O   UNL     1     110.225 127.424 135.294  0.00  0.00    +0.000 OA
ATOM     23  O   UNL     1     108.149 128.661 135.833  0.00  0.00    +0.000 OA
ATOM     24  O   UNL     1     108.333 127.099 136.333  0.00  0.00    +0.000 OA
ATOM     25  C   UNL     1     109.442 128.617 135.223  0.00  0.00    +0.000 C 
ATOM     26  C   UNL     1     108.841 128.249 135.653  0.00  0.00    +0.000 C 
ATOM     27  C   UNL     1     110.134 128.205 135.044  0.00  0.00    +0.000 C 
ATOM     28  C   UNL     1     108.933 127.468 135.903  0.00  0.00    +0.000 C 
ATOM     29  C   UNL     1     109.625 127.056 135.723  0.00  0.00    +0.000 C 
ATOM     30  C   UNL     1     110.733 128.574 134.614  0.00  0.00    +0.000 C 
BRANCH  25  31
ATOM     31  O   UNL     1     109.350 129.398 134.974  0.00  0.00    +0.000 OA
BRANCH  31  36
ATOM     32  O   UNL     1     110.009 129.870 136.151  0.00  0.00    +0.000 OA
ATOM     33  O   UNL     1     108.864 130.937 134.629  0.00  0.00    +0.000 OA
ATOM     34  O   UNL     1     109.280 132.178 135.634  0.00  0.00    +0.000 OA
ATOM     35  O   UNL     1     110.183 131.880 136.983  0.00  0.00    +0.000 OA
ATOM     36  C   UNL     1     109.558 130.019 135.477  0.00  0.00    +0.000 C 
ATOM     37  C   UNL     1     109.315 130.788 135.304  0.00  0.00    +0.000 C 
ATOM     38  C   UNL     1     109.524 131.408 135.806  0.00  0.00    +0.000 C 
ATOM     39  C   UNL     1     109.975 131.259 136.481  0.00  0.00    +0.000 C 
ATOM     40  C   UNL     1     110.217 130.490 136.653  0.00  0.00    +0.000 C 
ENDBRANCH  31  36
ENDBRANCH  25  31
ENDBRANCH   1  29
TORSDOF 5
ENDMDL
MODEL 4
REMARK VINA RESULT:     -10.6      6.854      8.761
REMARK  Name = 44258425
REMARK  5 active torsions:
REMARK  status: ('A' for Active; 'I' for Inactive)
REMARK    1  A    between atoms: O_1  and  C_15
REMARK    2  A    between atoms: O_1  and  C_20
REMARK    3  A    between atoms: O_5  and  C_19
REMARK    4  A    between atoms: O_5  and  C_26
REMARK    5  A    between atoms: C_33  and  C_35
REMARK                            x       y       z     vdW  Elec       q    Type
REMARK                         _______ _______ _______ _____ _____    ______ ____
ROOT
ATOM      1  O   UNL     1     111.281 125.394 138.328  0.00  0.00    +0.000 OA
ENDROOT
BRANCH   1   6
ATOM      2  O   UNL     1     110.195 127.346 136.509  0.00  0.00    +0.000 OA
ATOM      3  O   UNL     1     111.419 124.302 137.100  0.00  0.00    +0.000 OA
ATOM      4  O   UNL     1     110.950 124.714 135.572  0.00  0.00    +0.000 OA
ATOM      5  O   UNL     1     110.410 125.663 134.629  0.00  0.00    +0.000 OA
ATOM      6  C   UNL     1     111.047 125.601 137.565  0.00  0.00    +0.000 A 
ATOM      7  C   UNL     1     111.116 125.054 136.950  0.00  0.00    +0.000 A 
ATOM      8  C   UNL     1     110.743 126.353 137.415  0.00  0.00    +0.000 A 
ATOM      9  C   UNL     1     110.509 126.559 136.651  0.00  0.00    +0.000 A 
ATOM     10  C   UNL     1     110.881 125.260 136.186  0.00  0.00    +0.000 A 
ATOM     11  C   UNL     1     110.578 126.013 136.037  0.00  0.00    +0.000 A 
ATOM     12  C   UNL     1     110.337 126.215 135.238  0.00  0.00    +0.000 A 
ATOM     13  C   UNL     1     109.949 127.567 135.716  0.00  0.00    +0.000 A 
ATOM     14  C   UNL     1     110.021 126.998 135.075  0.00  0.00    +0.000 A 
BRANCH  13  16
ATOM     15  O   UNL     1     108.737 130.580 135.130  0.00  0.00    +0.000 OA
ATOM     16  C   UNL     1     109.646 128.321 135.569  0.00  0.00    +0.000 A 
ATOM     17  C   UNL     1     110.081 128.861 135.123  0.00  0.00    +0.000 A 
ATOM     18  C   UNL     1     108.907 128.534 135.869  0.00  0.00    +0.000 A 
ATOM     19  C   UNL     1     109.779 129.614 134.977  0.00  0.00    +0.000 A 
ATOM     20  C   UNL     1     108.604 129.287 135.723  0.00  0.00    +0.000 A 
ATOM     21  C   UNL     1     109.039 129.827 135.277  0.00  0.00    +0.000 A 
ENDBRANCH  13  16
ENDBRANCH   1   6
BRANCH   1  29
ATOM     22  O   UNL     1     112.552 126.046 138.360  0.00  0.00    +0.000 OA
ATOM     23  O   UNL     1     112.083 126.848 140.654  0.00  0.00    +0.000 OA
ATOM     24  O   UNL     1     110.968 125.929 139.858  0.00  0.00    +0.000 OA
ATOM     25  C   UNL     1     112.954 126.773 139.523  0.00  0.00    +0.000 C 
ATOM     26  C   UNL     1     112.239 126.581 139.890  0.00  0.00    +0.000 C 
ATOM     27  C   UNL     1     113.110 126.506 138.758  0.00  0.00    +0.000 C 
ATOM     28  C   UNL     1     111.683 126.121 139.491  0.00  0.00    +0.000 C 
ATOM     29  C   UNL     1     111.839 125.854 138.726  0.00  0.00    +0.000 C 
ATOM     30  C   UNL     1     113.824 126.698 138.393  0.00  0.00    +0.000 C 
BRANCH  25  31
ATOM     31  O   UNL     1     113.511 127.233 139.922  0.00  0.00    +0.000 OA
BRANCH  31  36
ATOM     32  O   UNL     1     112.932 128.420 139.376  0.00  0.00    +0.000 OA
ATOM     33  O   UNL     1     114.477 128.151 140.894  0.00  0.00    +0.000 OA
ATOM     34  O   UNL     1     114.382 129.797 140.834  0.00  0.00    +0.000 OA
ATOM     35  O   UNL     1     113.321 130.525 139.802  0.00  0.00    +0.000 OA
ATOM     36  C   UNL     1     113.463 128.057 139.892  0.00  0.00    +0.000 C 
ATOM     37  C   UNL     1     113.947 128.515 140.378  0.00  0.00    +0.000 C 
ATOM     38  C   UNL     1     113.899 129.338 140.347  0.00  0.00    +0.000 C 
ATOM     39  C   UNL     1     113.368 129.702 139.831  0.00  0.00    +0.000 C 
ATOM     40  C   UNL     1     112.885 129.243 139.346  0.00  0.00    +0.000 C 
ENDBRANCH  31  36
ENDBRANCH  25  31
ENDBRANCH   1  29
TORSDOF 5
ENDMDL
MODEL 5
REMARK VINA RESULT:     -10.5      8.073      9.752
REMARK  Name = 44258425
REMARK  5 active torsions:
REMARK  status: ('A' for Active; 'I' for Inactive)
REMARK    1  A    between atoms: O_1  and  C_15
REMARK    2  A    between atoms: O_1  and  C_20
REMARK    3  A    between atoms: O_5  and  C_19
REMARK    4  A    between atoms: O_5  and  C_26
REMARK    5  A    between atoms: C_33  and  C_35
REMARK                            x       y       z     vdW  Elec       q    Type
REMARK                         _______ _______ _______ _____ _____    ______ ____
ROOT
ATOM      1  O   UNL     1     110.854 128.023 137.903  0.00  0.00    +0.000 OA
ENDROOT
BRANCH   1   6
ATOM      2  O   UNL     1     113.133 129.046 136.467  0.00  0.00    +0.000 OA
ATOM      3  O   UNL     1     111.432 126.484 137.757  0.00  0.00    +0.000 OA
ATOM      4  O   UNL     1     112.856 126.210 136.970  0.00  0.00    +0.000 OA
ATOM      5  O   UNL     1     114.012 126.681 136.247  0.00  0.00    +0.000 OA
ATOM      6  C   UNL     1     111.566 127.886 137.510  0.00  0.00    +0.000 A 
ATOM      7  C   UNL     1     111.856 127.116 137.436  0.00  0.00    +0.000 A 
ATOM      8  C   UNL     1     111.990 128.517 137.189  0.00  0.00    +0.000 A 
ATOM      9  C   UNL     1     112.702 128.379 136.796  0.00  0.00    +0.000 A 
ATOM     10  C   UNL     1     112.568 126.978 137.043  0.00  0.00    +0.000 A 
ATOM     11  C   UNL     1     112.990 127.611 136.723  0.00  0.00    +0.000 A 
ATOM     12  C   UNL     1     113.730 127.454 136.316  0.00  0.00    +0.000 A 
ATOM     13  C   UNL     1     113.875 128.910 136.056  0.00  0.00    +0.000 A 
ATOM     14  C   UNL     1     114.176 128.108 135.980  0.00  0.00    +0.000 A 
BRANCH  13  16
ATOM     15  O   UNL     1     115.559 131.445 134.780  0.00  0.00    +0.000 OA
ATOM     16  C   UNL     1     114.296 129.543 135.737  0.00  0.00    +0.000 A 
ATOM     17  C   UNL     1     114.486 129.550 134.934  0.00  0.00    +0.000 A 
ATOM     18  C   UNL     1     114.527 130.171 136.220  0.00  0.00    +0.000 A 
ATOM     19  C   UNL     1     114.907 130.184 134.615  0.00  0.00    +0.000 A 
ATOM     20  C   UNL     1     114.947 130.805 135.902  0.00  0.00    +0.000 A 
ATOM     21  C   UNL     1     115.138 130.811 135.099  0.00  0.00    +0.000 A 
ENDBRANCH  13  16
ENDBRANCH   1   6
BRANCH   1  29
ATOM     22  O   UNL     1     110.054 128.276 136.746  0.00  0.00    +0.000 OA
ATOM     23  O   UNL     1     108.837 130.046 137.975  0.00  0.00    +0.000 OA
ATOM     24  O   UNL     1     110.042 129.203 138.722  0.00  0.00    +0.000 OA
ATOM     25  C   UNL     1     109.045 129.287 136.781  0.00  0.00    +0.000 C 
ATOM     26  C   UNL     1     109.242 129.456 137.565  0.00  0.00    +0.000 C 
ATOM     27  C   UNL     1     109.451 128.697 136.372  0.00  0.00    +0.000 C 
ATOM     28  C   UNL     1     109.845 129.034 137.938  0.00  0.00    +0.000 C 
ATOM     29  C   UNL     1     110.251 128.444 137.529  0.00  0.00    +0.000 C 
ATOM     30  C   UNL     1     109.254 128.528 135.590  0.00  0.00    +0.000 C 
BRANCH  25  31
ATOM     31  O   UNL     1     108.442 129.708 136.408  0.00  0.00    +0.000 OA
BRANCH  31  36
ATOM     32  O   UNL     1     109.389 130.692 135.982  0.00  0.00    +0.000 OA
ATOM     33  O   UNL     1     107.213 130.636 135.817  0.00  0.00    +0.000 OA
ATOM     34  O   UNL     1     107.544 132.082 135.094  0.00  0.00    +0.000 OA
ATOM     35  O   UNL     1     109.104 132.601 134.964  0.00  0.00    +0.000 OA
ATOM     36  C   UNL     1     108.608 130.432 136.047  0.00  0.00    +0.000 C 
ATOM     37  C   UNL     1     107.993 130.895 135.751  0.00  0.00    +0.000 C 
ATOM     38  C   UNL     1     108.159 131.618 135.391  0.00  0.00    +0.000 C 
ATOM     39  C   UNL     1     108.940 131.878 135.326  0.00  0.00    +0.000 C 
ATOM     40  C   UNL     1     109.554 131.414 135.621  0.00  0.00    +0.000 C 
ENDBRANCH  31  36
ENDBRANCH  25  31
ENDBRANCH   1  29
TORSDOF 5
ENDMDL
MODEL 6
REMARK VINA RESULT:     -10.5      6.941      9.249
REMARK  Name = 44258425
REMARK  5 active torsions:
REMARK  status: ('A' for Active; 'I' for Inactive)
REMARK    1  A    between atoms: O_1  and  C_15
REMARK    2  A    between atoms: O_1  and  C_20
REMARK    3  A    between atoms: O_5  and  C_19
REMARK    4  A    between atoms: O_5  and  C_26
REMARK    5  A    between atoms: C_33  and  C_35
REMARK                            x       y       z     vdW  Elec       q    Type
REMARK                         _______ _______ _______ _____ _____    ______ ____
ROOT
ATOM      1  O   UNL     1     109.196 127.232 135.474  0.00  0.00    +0.000 OA
ENDROOT
BRANCH   1   6
ATOM      2  O   UNL     1     110.970 126.616 137.660  0.00  0.00    +0.000 OA
ATOM      3  O   UNL     1     109.642 125.845 134.700  0.00  0.00    +0.000 OA
ATOM      4  O   UNL     1     110.749 124.834 135.390  0.00  0.00    +0.000 OA
ATOM      5  O   UNL     1     111.649 124.490 136.464  0.00  0.00    +0.000 OA
ATOM      6  C   UNL     1     109.749 126.727 135.819  0.00  0.00    +0.000 A 
ATOM      7  C   UNL     1     109.973 126.032 135.432  0.00  0.00    +0.000 A 
ATOM      8  C   UNL     1     110.080 126.914 136.551  0.00  0.00    +0.000 A 
ATOM      9  C   UNL     1     110.633 126.409 136.896  0.00  0.00    +0.000 A 
ATOM     10  C   UNL     1     110.526 125.527 135.777  0.00  0.00    +0.000 A 
ATOM     11  C   UNL     1     110.856 125.716 136.509  0.00  0.00    +0.000 A 
ATOM     12  C   UNL     1     111.431 125.181 136.858  0.00  0.00    +0.000 A 
ATOM     13  C   UNL     1     111.546 126.095 138.024  0.00  0.00    +0.000 A 
ATOM     14  C   UNL     1     111.779 125.372 137.621  0.00  0.00    +0.000 A 
BRANCH  13  16
ATOM     15  O   UNL     1     112.861 126.858 140.953  0.00  0.00    +0.000 OA
ATOM     16  C   UNL     1     111.875 126.285 138.757  0.00  0.00    +0.000 A 
ATOM     17  C   UNL     1     111.401 126.293 139.432  0.00  0.00    +0.000 A 
ATOM     18  C   UNL     1     112.677 126.469 138.814  0.00  0.00    +0.000 A 
ATOM     19  C   UNL     1     111.730 126.484 140.165  0.00  0.00    +0.000 A 
ATOM     20  C   UNL     1     113.006 126.659 139.545  0.00  0.00    +0.000 A 
ATOM     21  C   UNL     1     112.533 126.667 140.221  0.00  0.00    +0.000 A 
ENDBRANCH  13  16
ENDBRANCH   1   6
BRANCH   1  29
ATOM     22  O   UNL     1     110.071 128.327 135.196  0.00  0.00    +0.000 OA
ATOM     23  O   UNL     1     108.300 129.915 135.882  0.00  0.00    +0.000 OA
ATOM     24  O   UNL     1     108.016 128.290 135.931  0.00  0.00    +0.000 OA
ATOM     25  C   UNL     1     109.623 129.669 135.400  0.00  0.00    +0.000 C 
ATOM     26  C   UNL     1     108.890 129.386 135.653  0.00  0.00    +0.000 C 
ATOM     27  C   UNL     1     110.214 129.139 135.171  0.00  0.00    +0.000 C 
ATOM     28  C   UNL     1     108.749 128.573 135.678  0.00  0.00    +0.000 C 
ATOM     29  C   UNL     1     109.339 128.044 135.449  0.00  0.00    +0.000 C 
ATOM     30  C   UNL     1     110.945 129.422 134.918  0.00  0.00    +0.000 C 
BRANCH  25  31
ATOM     31  O   UNL     1     109.765 130.481 135.376  0.00  0.00    +0.000 OA
BRANCH  31  36
ATOM     32  O   UNL     1     110.397 130.444 136.657  0.00  0.00    +0.000 OA
ATOM     33  O   UNL     1     109.601 132.118 135.504  0.00  0.00    +0.000 OA
ATOM     34  O   UNL     1     110.151 132.899 136.849  0.00  0.00    +0.000 OA
ATOM     35  O   UNL     1     110.865 132.043 138.066  0.00  0.00    +0.000 OA
ATOM     36  C   UNL     1     110.040 130.872 136.049  0.00  0.00    +0.000 C 
ATOM     37  C   UNL     1     109.958 131.690 136.112  0.00  0.00    +0.000 C 
ATOM     38  C   UNL     1     110.233 132.080 136.785  0.00  0.00    +0.000 C 
ATOM     39  C   UNL     1     110.590 131.652 137.394  0.00  0.00    +0.000 C 
ATOM     40  C   UNL     1     110.672 130.834 137.329  0.00  0.00    +0.000 C 
ENDBRANCH  31  36
ENDBRANCH  25  31
ENDBRANCH   1  29
TORSDOF 5
ENDMDL
MODEL 7
REMARK VINA RESULT:     -10.5      7.117      9.159
REMARK  Name = 44258425
REMARK  5 active torsions:
REMARK  status: ('A' for Active; 'I' for Inactive)
REMARK    1  A    between atoms: O_1  and  C_15
REMARK    2  A    between atoms: O_1  and  C_20
REMARK    3  A    between atoms: O_5  and  C_19
REMARK    4  A    between atoms: O_5  and  C_26
REMARK    5  A    between atoms: C_33  and  C_35
REMARK                            x       y       z     vdW  Elec       q    Type
REMARK                         _______ _______ _______ _____ _____    ______ ____
ROOT
ATOM      1  O   UNL     1     112.823 130.176 138.967  0.00  0.00    +0.000 OA
ENDROOT
BRANCH   1   6
ATOM      2  O   UNL     1     113.206 127.382 138.380  0.00  0.00    +0.000 OA
ATOM      3  O   UNL     1     113.301 129.931 140.527  0.00  0.00    +0.000 OA
ATOM      4  O   UNL     1     113.735 128.420 141.029  0.00  0.00    +0.000 OA
ATOM      5  O   UNL     1     113.939 127.014 140.776  0.00  0.00    +0.000 OA
ATOM      6  C   UNL     1     113.040 129.421 139.218  0.00  0.00    +0.000 A 
ATOM      7  C   UNL     1     113.279 129.298 139.999  0.00  0.00    +0.000 A 
ATOM      8  C   UNL     1     113.017 128.788 138.690  0.00  0.00    +0.000 A 
ATOM      9  C   UNL     1     113.234 128.032 138.941  0.00  0.00    +0.000 A 
ATOM     10  C   UNL     1     113.496 128.542 140.250  0.00  0.00    +0.000 A 
ATOM     11  C   UNL     1     113.473 127.910 139.720  0.00  0.00    +0.000 A 
ATOM     12  C   UNL     1     113.701 127.128 139.994  0.00  0.00    +0.000 A 
ATOM     13  C   UNL     1     113.431 126.593 138.635  0.00  0.00    +0.000 A 
ATOM     14  C   UNL     1     113.680 126.465 139.448  0.00  0.00    +0.000 A 
BRANCH  13  16
ATOM     15  O   UNL     1     113.336 124.069 136.511  0.00  0.00    +0.000 OA
ATOM     16  C   UNL     1     113.407 125.962 138.104  0.00  0.00    +0.000 A 
ATOM     17  C   UNL     1     114.105 125.681 137.766  0.00  0.00    +0.000 A 
ATOM     18  C   UNL     1     112.686 125.611 137.911  0.00  0.00    +0.000 A 
ATOM     19  C   UNL     1     114.082 125.050 137.234  0.00  0.00    +0.000 A 
ATOM     20  C   UNL     1     112.661 124.981 137.380  0.00  0.00    +0.000 A 
ATOM     21  C   UNL     1     113.359 124.700 137.042  0.00  0.00    +0.000 A 
ENDBRANCH  13  16
ENDBRANCH   1   6
BRANCH   1  29
ATOM     22  O   UNL     1     111.407 129.998 139.040  0.00  0.00    +0.000 OA
ATOM     23  O   UNL     1     111.134 131.321 136.967  0.00  0.00    +0.000 OA
ATOM     24  O   UNL     1     112.641 131.059 137.585  0.00  0.00    +0.000 OA
ATOM     25  C   UNL     1     110.562 130.570 138.040  0.00  0.00    +0.000 C 
ATOM     26  C   UNL     1     111.225 130.880 137.658  0.00  0.00    +0.000 C 
ATOM     27  C   UNL     1     110.653 130.129 138.731  0.00  0.00    +0.000 C 
ATOM     28  C   UNL     1     111.978 130.748 137.968  0.00  0.00    +0.000 C 
ATOM     29  C   UNL     1     112.069 130.307 138.659  0.00  0.00    +0.000 C 
ATOM     30  C   UNL     1     109.991 129.819 139.113  0.00  0.00    +0.000 C 
BRANCH  25  31
ATOM     31  O   UNL     1     109.809 130.702 137.731  0.00  0.00    +0.000 OA
BRANCH  31  36
ATOM     32  O   UNL     1     109.914 129.502 136.959  0.00  0.00    +0.000 OA
ATOM     33  O   UNL     1     108.364 131.040 137.008  0.00  0.00    +0.000 OA
ATOM     34  O   UNL     1     107.747 130.010 135.876  0.00  0.00    +0.000 OA
ATOM     35  O   UNL     1     108.575 128.642 135.466  0.00  0.00    +0.000 OA
ATOM     36  C   UNL     1     109.500 130.186 137.164  0.00  0.00    +0.000 C 
ATOM     37  C   UNL     1     108.778 130.356 136.803  0.00  0.00    +0.000 C 
ATOM     38  C   UNL     1     108.470 129.841 136.237  0.00  0.00    +0.000 C 
ATOM     39  C   UNL     1     108.884 129.157 136.033  0.00  0.00    +0.000 C 
ATOM     40  C   UNL     1     109.605 128.988 136.394  0.00  0.00    +0.000 C 
ENDBRANCH  31  36
ENDBRANCH  25  31
ENDBRANCH   1  29
TORSDOF 5
ENDMDL
MODEL 8
REMARK VINA RESULT:     -10.5      4.044      5.861
REMARK  Name = 44258425
REMARK  5 active torsions:
REMARK  status: ('A' for Active; 'I' for Inactive)
REMARK    1  A    between atoms: O_1  and  C_15
REMARK    2  A    between atoms: O_1  and  C_20
REMARK    3  A    between atoms: O_5  and  C_19
REMARK    4  A    between atoms: O_5  and  C_26
REMARK    5  A    between atoms: C_33  and  C_35
REMARK                            x       y       z     vdW  Elec       q    Type
REMARK                         _______ _______ _______ _____ _____    ______ ____
ROOT
ATOM      1  O   UNL     1     106.797 125.280 145.691  0.00  0.00    +0.000 OA
ENDROOT
BRANCH   1   6
ATOM      2  O   UNL     1     104.631 124.991 147.570  0.00  0.00    +0.000 OA
ATOM      3  O   UNL     1     107.890 125.279 146.927  0.00  0.00    +0.000 OA
ATOM      4  O   UNL     1     107.372 125.135 148.487  0.00  0.00    +0.000 OA
ATOM      5  O   UNL     1     106.317 124.990 149.460  0.00  0.00    +0.000 OA
ATOM      6  C   UNL     1     106.538 125.208 146.471  0.00  0.00    +0.000 A 
ATOM      7  C   UNL     1     107.085 125.208 147.090  0.00  0.00    +0.000 A 
ATOM      8  C   UNL     1     105.732 125.137 146.634  0.00  0.00    +0.000 A 
ATOM      9  C   UNL     1     105.473 125.064 147.414  0.00  0.00    +0.000 A 
ATOM     10  C   UNL     1     106.826 125.135 147.870  0.00  0.00    +0.000 A 
ATOM     11  C   UNL     1     106.020 125.064 148.031  0.00  0.00    +0.000 A 
ATOM     12  C   UNL     1     105.764 124.989 148.848  0.00  0.00    +0.000 A 
ATOM     13  C   UNL     1     104.355 124.915 148.380  0.00  0.00    +0.000 A 
ATOM     14  C   UNL     1     104.925 124.915 149.024  0.00  0.00    +0.000 A 
BRANCH  13  16
ATOM     15  O   UNL     1     101.130 124.629 149.017  0.00  0.00    +0.000 OA
ATOM     16  C   UNL     1     103.549 124.844 148.539  0.00  0.00    +0.000 A 
ATOM     17  C   UNL     1     103.087 125.520 148.641  0.00  0.00    +0.000 A 
ATOM     18  C   UNL     1     103.204 124.096 148.596  0.00  0.00    +0.000 A 
ATOM     19  C   UNL     1     102.281 125.448 148.800  0.00  0.00    +0.000 A 
ATOM     20  C   UNL     1     102.398 124.024 148.756  0.00  0.00    +0.000 A 
ATOM     21  C   UNL     1     101.937 124.700 148.858  0.00  0.00    +0.000 A 
ENDBRANCH  13  16
ENDBRANCH   1   6
BRANCH   1  29
ATOM     22  O   UNL     1     106.264 126.570 145.381  0.00  0.00    +0.000 OA
ATOM     23  O   UNL     1     105.492 125.723 143.188  0.00  0.00    +0.000 OA
ATOM     24  O   UNL     1     106.282 124.716 144.229  0.00  0.00    +0.000 OA
ATOM     25  C   UNL     1     105.612 126.792 144.130  0.00  0.00    +0.000 C 
ATOM     26  C   UNL     1     105.749 126.005 143.919  0.00  0.00    +0.000 C 
ATOM     27  C   UNL     1     105.869 127.074 144.861  0.00  0.00    +0.000 C 
ATOM     28  C   UNL     1     106.144 125.502 144.440  0.00  0.00    +0.000 C 
ATOM     29  C   UNL     1     106.402 125.784 145.171  0.00  0.00    +0.000 C 
ATOM     30  C   UNL     1     105.732 127.859 145.071  0.00  0.00    +0.000 C 
BRANCH  25  31
ATOM     31  O   UNL     1     105.217 127.295 143.609  0.00  0.00    +0.000 OA
BRANCH  31  36
ATOM     32  O   UNL     1     106.467 127.712 143.055  0.00  0.00    +0.000 OA
ATOM     33  O   UNL     1     104.417 128.135 142.436  0.00  0.00    +0.000 OA
ATOM     34  O   UNL     1     105.266 128.972 141.296  0.00  0.00    +0.000 OA
ATOM     35  O   UNL     1     106.916 128.970 141.329  0.00  0.00    +0.000 OA
ATOM     36  C   UNL     1     105.642 127.714 143.038  0.00  0.00    +0.000 C 
ATOM     37  C   UNL     1     105.241 128.133 142.452  0.00  0.00    +0.000 C 
ATOM     38  C   UNL     1     105.667 128.552 141.883  0.00  0.00    +0.000 C 
ATOM     39  C   UNL     1     106.492 128.551 141.899  0.00  0.00    +0.000 C 
ATOM     40  C   UNL     1     106.891 128.131 142.486  0.00  0.00    +0.000 C 
ENDBRANCH  31  36
ENDBRANCH  25  31
ENDBRANCH   1  29
TORSDOF 5
ENDMDL
MODEL 9
REMARK VINA RESULT:     -10.5      7.858     10.337
REMARK  Name = 44258425
REMARK  5 active torsions:
REMARK  status: ('A' for Active; 'I' for Inactive)
REMARK    1  A    between atoms: O_1  and  C_15
REMARK    2  A    between atoms: O_1  and  C_20
REMARK    3  A    between atoms: O_5  and  C_19
REMARK    4  A    between atoms: O_5  and  C_26
REMARK    5  A    between atoms: C_33  and  C_35
REMARK                            x       y       z     vdW  Elec       q    Type
REMARK                         _______ _______ _______ _____ _____    ______ ____
ROOT
ATOM      1  O   UNL     1     112.191 129.606 135.567  0.00  0.00    +0.000 OA
ENDROOT
BRANCH   1   6
ATOM      2  O   UNL     1     111.678 126.826 136.125  0.00  0.00    +0.000 OA
ATOM      3  O   UNL     1     110.762 129.723 134.750  0.00  0.00    +0.000 OA
ATOM      4  O   UNL     1     109.781 128.403 134.612  0.00  0.00    +0.000 OA
ATOM      5  O   UNL     1     109.486 127.014 134.870  0.00  0.00    +0.000 OA
ATOM      6  C   UNL     1     111.700 128.946 135.498  0.00  0.00    +0.000 A 
ATOM      7  C   UNL     1     110.985 129.004 135.089  0.00  0.00    +0.000 A 
ATOM      8  C   UNL     1     111.924 128.228 135.836  0.00  0.00    +0.000 A 
ATOM      9  C   UNL     1     111.433 127.569 135.767  0.00  0.00    +0.000 A 
ATOM     10  C   UNL     1     110.495 128.345 135.020  0.00  0.00    +0.000 A 
ATOM     11  C   UNL     1     110.719 127.627 135.359  0.00  0.00    +0.000 A 
ATOM     12  C   UNL     1     110.200 126.948 135.280  0.00  0.00    +0.000 A 
ATOM     13  C   UNL     1     111.172 126.136 136.057  0.00  0.00    +0.000 A 
ATOM     14  C   UNL     1     110.427 126.196 135.631  0.00  0.00    +0.000 A 
BRANCH  13  16
ATOM     15  O   UNL     1     112.078 123.269 137.417  0.00  0.00    +0.000 OA
ATOM     16  C   UNL     1     111.399 125.419 136.397  0.00  0.00    +0.000 A 
ATOM     17  C   UNL     1     111.723 124.823 135.926  0.00  0.00    +0.000 A 
ATOM     18  C   UNL     1     111.302 125.298 137.207  0.00  0.00    +0.000 A 
ATOM     19  C   UNL     1     111.949 124.106 136.266  0.00  0.00    +0.000 A 
ATOM     20  C   UNL     1     111.528 124.582 137.547  0.00  0.00    +0.000 A 
ATOM     21  C   UNL     1     111.852 123.986 137.077  0.00  0.00    +0.000 A 
ENDBRANCH  13  16
ENDBRANCH   1   6
BRANCH   1  29
ATOM     22  O   UNL     1     111.927 129.962 136.925  0.00  0.00    +0.000 OA
ATOM     23  O   UNL     1     114.348 130.308 137.304  0.00  0.00    +0.000 OA
ATOM     24  O   UNL     1     113.805 129.837 135.819  0.00  0.00    +0.000 OA
ATOM     25  C   UNL     1     113.005 130.313 137.794  0.00  0.00    +0.000 C 
ATOM     26  C   UNL     1     113.541 130.193 137.178  0.00  0.00    +0.000 C 
ATOM     27  C   UNL     1     112.198 130.198 137.668  0.00  0.00    +0.000 C 
ATOM     28  C   UNL     1     113.269 129.957 136.436  0.00  0.00    +0.000 C 
ATOM     29  C   UNL     1     112.462 129.842 136.309  0.00  0.00    +0.000 C 
ATOM     30  C   UNL     1     111.664 130.319 138.284  0.00  0.00    +0.000 C 
BRANCH  25  31
ATOM     31  O   UNL     1     113.278 130.549 138.537  0.00  0.00    +0.000 OA
BRANCH  31  36
ATOM     32  O   UNL     1     113.296 129.189 138.978  0.00  0.00    +0.000 OA
ATOM     33  O   UNL     1     114.110 130.999 139.888  0.00  0.00    +0.000 OA
ATOM     34  O   UNL     1     114.545 129.864 141.005  0.00  0.00    +0.000 OA
ATOM     35  O   UNL     1     114.147 128.280 140.770  0.00  0.00    +0.000 OA
ATOM     36  C   UNL     1     113.495 129.981 139.095  0.00  0.00    +0.000 C 
ATOM     37  C   UNL     1     113.911 130.207 139.771  0.00  0.00    +0.000 C 
ATOM     38  C   UNL     1     114.128 129.639 140.329  0.00  0.00    +0.000 C 
ATOM     39  C   UNL     1     113.929 128.847 140.211  0.00  0.00    +0.000 C 
ATOM     40  C   UNL     1     113.513 128.623 139.536  0.00  0.00    +0.000 C 
ENDBRANCH  31  36
ENDBRANCH  25  31
ENDBRANCH   1  29
TORSDOF 5
ENDMDL
MODEL 10
REMARK VINA RESULT:     -10.4      2.835      5.169
REMARK  Name = 44258425
REMARK  5 active torsions:
REMARK  status: ('A' for Active; 'I' for Inactive)
REMARK    1  A    between atoms: O_1  and  C_15
REMARK    2  A    between atoms: O_1  and  C_20
REMARK    3  A    between atoms: O_5  and  C_19
REMARK    4  A    between atoms: O_5  and  C_26
REMARK    5  A    between atoms: C_33  and  C_35
REMARK                            x       y       z     vdW  Elec       q    Type
REMARK                         _______ _______ _______ _____ _____    ______ ____
ROOT
ATOM      1  O   UNL     1     106.405 125.995 143.696  0.00  0.00    +0.000 OA
ENDROOT
BRANCH   1   6
ATOM      2  O   UNL     1     104.919 128.337 142.919  0.00  0.00    +0.000 OA
ATOM      3  O   UNL     1     107.601 126.379 142.627  0.00  0.00    +0.000 OA
ATOM      4  O   UNL     1     107.472 127.736 141.698  0.00  0.00    +0.000 OA
ATOM      5  O   UNL     1     106.760 128.919 141.280  0.00  0.00    +0.000 OA
ATOM      6  C   UNL     1     106.340 126.673 143.232  0.00  0.00    +0.000 A 
ATOM      7  C   UNL     1     106.939 126.866 142.696  0.00  0.00    +0.000 A 
ATOM      8  C   UNL     1     105.678 127.160 143.301  0.00  0.00    +0.000 A 
ATOM      9  C   UNL     1     105.614 127.839 142.837  0.00  0.00    +0.000 A 
ATOM     10  C   UNL     1     106.875 127.544 142.232  0.00  0.00    +0.000 A 
ATOM     11  C   UNL     1     106.212 128.030 142.302  0.00  0.00    +0.000 A 
ATOM     12  C   UNL     1     106.157 128.734 141.813  0.00  0.00    +0.000 A 
ATOM     13  C   UNL     1     104.846 129.046 142.438  0.00  0.00    +0.000 A 
ATOM     14  C   UNL     1     105.469 129.246 141.881  0.00  0.00    +0.000 A 
BRANCH  13  16
ATOM     15  O   UNL     1     102.192 130.985 142.728  0.00  0.00    +0.000 OA
ATOM     16  C   UNL     1     104.182 129.530 142.510  0.00  0.00    +0.000 A 
ATOM     17  C   UNL     1     103.613 129.542 141.913  0.00  0.00    +0.000 A 
ATOM     18  C   UNL     1     104.087 130.003 143.180  0.00  0.00    +0.000 A 
ATOM     19  C   UNL     1     102.949 130.027 141.985  0.00  0.00    +0.000 A 
ATOM     20  C   UNL     1     103.424 130.488 143.253  0.00  0.00    +0.000 A 
ATOM     21  C   UNL     1     102.855 130.500 142.656  0.00  0.00    +0.000 A 
ENDBRANCH  13  16
ENDBRANCH   1   6
BRANCH   1  29
ATOM     22  O   UNL     1     106.676 126.640 144.942  0.00  0.00    +0.000 OA
ATOM     23  O   UNL     1     105.243 124.993 146.108  0.00  0.00    +0.000 OA
ATOM     24  O   UNL     1     105.449 124.897 144.474  0.00  0.00    +0.000 OA
ATOM     25  C   UNL     1     106.095 126.140 146.148  0.00  0.00    +0.000 C 
ATOM     26  C   UNL     1     105.721 125.542 145.719  0.00  0.00    +0.000 C 
ATOM     27  C   UNL     1     106.573 126.689 145.759  0.00  0.00    +0.000 C 
ATOM     28  C   UNL     1     105.824 125.495 144.902  0.00  0.00    +0.000 C 
ATOM     29  C   UNL     1     106.302 126.044 144.514  0.00  0.00    +0.000 C 
ATOM     30  C   UNL     1     106.947 127.286 146.187  0.00  0.00    +0.000 C 
BRANCH  25  31
ATOM     31  O   UNL     1     105.992 126.188 146.965  0.00  0.00    +0.000 OA
BRANCH  31  36
ATOM     32  O   UNL     1     107.183 125.427 147.176  0.00  0.00    +0.000 OA
ATOM     33  O   UNL     1     105.602 126.019 148.559  0.00  0.00    +0.000 OA
ATOM     34  O   UNL     1     106.598 125.174 149.567  0.00  0.00    +0.000 OA
ATOM     35  O   UNL     1     107.984 124.497 148.980  0.00  0.00    +0.000 OA
ATOM     36  C   UNL     1     106.490 125.765 147.469  0.00  0.00    +0.000 C 
ATOM     37  C   UNL     1     106.295 125.681 148.266  0.00  0.00    +0.000 C 
ATOM     38  C   UNL     1     106.793 125.258 148.769  0.00  0.00    +0.000 C 
ATOM     39  C   UNL     1     107.486 124.920 148.476  0.00  0.00    +0.000 C 
ATOM     40  C   UNL     1     107.681 125.004 147.679  0.00  0.00    +0.000 C 
ENDBRANCH  31  36
ENDBRANCH  25  31
ENDBRANCH   1  29
TORSDOF 5
ENDMDL
