MODEL 1
REMARK VINA RESULT:     -10.2      0.000      0.000
REMARK  Name = 131752191
REMARK  9 active torsions:
REMARK  status: ('A' for Active; 'I' for Inactive)
REMARK    1  A    between atoms: O_1  and  C_20
REMARK    2  A    between atoms: O_1  and  C_22
REMARK    3  A    between atoms: O_5  and  C_25
REMARK    4  A    between atoms: O_5  and  C_32
REMARK    5  A    between atoms: O_17  and  C_44
REMARK    6  A    between atoms: O_18  and  C_45
REMARK    7  A    between atoms: C_28  and  C_30
REMARK    8  A    between atoms: C_29  and  C_31
REMARK    9  A    between atoms: C_39  and  C_41
REMARK                            x       y       z     vdW  Elec       q    Type
REMARK                         _______ _______ _______ _____ _____    ______ ____
ROOT
ATOM      1  O   UNL     1     113.340 129.349 138.843  0.00  0.00    +0.000 OA
ENDROOT
BRANCH   1   5
ATOM      2  O   UNL     1     111.183 129.684 136.915  0.00  0.00    +0.000 OA
ATOM      3  O   UNL     1     113.805 128.893 135.997  0.00  0.00    +0.000 OA
ATOM      4  O   UNL     1     112.714 129.068 135.070  0.00  0.00    +0.000 OA
ATOM      5  C   UNL     1     113.065 129.329 138.065  0.00  0.00    +0.000 A 
ATOM      6  C   UNL     1     112.246 129.522 137.891  0.00  0.00    +0.000 A 
ATOM      7  C   UNL     1     113.597 129.116 137.426  0.00  0.00    +0.000 A 
ATOM      8  C   UNL     1     111.970 129.498 137.077  0.00  0.00    +0.000 A 
ATOM      9  C   UNL     1     113.302 129.097 136.618  0.00  0.00    +0.000 A 
ATOM     10  C   UNL     1     112.480 129.293 136.462  0.00  0.00    +0.000 A 
ATOM     11  C   UNL     1     112.204 129.274 135.685  0.00  0.00    +0.000 A 
ATOM     12  C   UNL     1     110.906 129.665 136.138  0.00  0.00    +0.000 A 
ATOM     13  C   UNL     1     111.416 129.459 135.523  0.00  0.00    +0.000 A 
BRANCH  12  15
ATOM     14  O   UNL     1     107.757 130.407 135.489  0.00  0.00    +0.000 OA
ATOM     15  C   UNL     1     110.119 129.850 135.976  0.00  0.00    +0.000 A 
ATOM     16  C   UNL     1     109.546 129.257 135.977  0.00  0.00    +0.000 A 
ATOM     17  C   UNL     1     109.904 130.630 135.813  0.00  0.00    +0.000 A 
ATOM     18  C   UNL     1     109.117 130.816 135.651  0.00  0.00    +0.000 A 
ATOM     19  C   UNL     1     108.759 129.442 135.815  0.00  0.00    +0.000 A 
ATOM     20  C   UNL     1     108.544 130.222 135.651  0.00  0.00    +0.000 A 
BRANCH  18  21
ATOM     21  O   UNL     1     108.901 131.596 135.488  0.00  0.00    +0.000 OA
ATOM     22  C   UNL     1     109.244 132.215 135.911  0.00  0.00    +0.000 C 
ENDBRANCH  18  21
BRANCH  19  23
ATOM     23  O   UNL     1     108.186 128.848 135.815  0.00  0.00    +0.000 OA
ATOM     24  C   UNL     1     108.414 128.055 135.803  0.00  0.00    +0.000 C 
ENDBRANCH  19  23
ENDBRANCH  12  15
ENDBRANCH   1   5
BRANCH   1  31
ATOM     25  O   UNL     1     112.837 128.039 139.112  0.00  0.00    +0.000 OA
ATOM     26  O   UNL     1     114.404 127.830 141.017  0.00  0.00    +0.000 OA
ATOM     27  O   UNL     1     113.380 126.590 140.651  0.00  0.00    +0.000 OA
ATOM     28  C   UNL     1     113.872 128.590 139.930  0.00  0.00    +0.000 C 
ATOM     29  C   UNL     1     113.882 127.899 140.382  0.00  0.00    +0.000 C 
ATOM     30  C   UNL     1     113.370 127.279 140.199  0.00  0.00    +0.000 C 
ATOM     31  C   UNL     1     113.350 128.660 139.295  0.00  0.00    +0.000 C 
ATOM     32  C   UNL     1     112.848 127.349 139.564  0.00  0.00    +0.000 C 
BRANCH  32  35
ATOM     33  O   UNL     1     112.577 126.136 138.860  0.00  0.00    +0.000 OA
ATOM     34  O   UNL     1     111.583 126.702 139.718  0.00  0.00    +0.000 OA
ATOM     35  C   UNL     1     112.336 126.729 139.381  0.00  0.00    +0.000 C 
ENDBRANCH  32  35
BRANCH  28  36
ATOM     36  O   UNL     1     114.384 129.210 140.113  0.00  0.00    +0.000 OA
BRANCH  36  41
ATOM     37  O   UNL     1     113.417 129.742 141.021  0.00  0.00    +0.000 OA
ATOM     38  O   UNL     1     115.378 130.490 140.423  0.00  0.00    +0.000 OA
ATOM     39  O   UNL     1     114.907 131.661 141.486  0.00  0.00    +0.000 OA
ATOM     40  O   UNL     1     113.443 131.553 142.238  0.00  0.00    +0.000 OA
ATOM     41  C   UNL     1     114.149 129.796 140.644  0.00  0.00    +0.000 C 
ATOM     42  C   UNL     1     114.646 130.436 140.800  0.00  0.00    +0.000 C 
ATOM     43  C   UNL     1     114.411 131.022 141.331  0.00  0.00    +0.000 C 
ATOM     44  C   UNL     1     113.678 130.967 141.707  0.00  0.00    +0.000 C 
ATOM     45  C   UNL     1     113.181 130.328 141.552  0.00  0.00    +0.000 C 
BRANCH  45  48
ATOM     46  O   UNL     1     112.388 129.897 142.660  0.00  0.00    +0.000 OA
ATOM     47  O   UNL     1     111.777 130.594 141.573  0.00  0.00    +0.000 OA
ATOM     48  C   UNL     1     112.449 130.273 141.928  0.00  0.00    +0.000 C 
ENDBRANCH  45  48
ENDBRANCH  36  41
ENDBRANCH  28  36
ENDBRANCH   1  31
TORSDOF 9
ENDMDL
MODEL 2
REMARK VINA RESULT:     -10.2      2.361      4.931
REMARK  Name = 131752191
REMARK  9 active torsions:
REMARK  status: ('A' for Active; 'I' for Inactive)
REMARK    1  A    between atoms: O_1  and  C_20
REMARK    2  A    between atoms: O_1  and  C_22
REMARK    3  A    between atoms: O_5  and  C_25
REMARK    4  A    between atoms: O_5  and  C_32
REMARK    5  A    between atoms: O_17  and  C_44
REMARK    6  A    between atoms: O_18  and  C_45
REMARK    7  A    between atoms: C_28  and  C_30
REMARK    8  A    between atoms: C_29  and  C_31
REMARK    9  A    between atoms: C_39  and  C_41
REMARK                            x       y       z     vdW  Elec       q    Type
REMARK                         _______ _______ _______ _____ _____    ______ ____
ROOT
ATOM      1  O   UNL     1     111.780 129.953 137.667  0.00  0.00    +0.000 OA
ENDROOT
BRANCH   1   5
ATOM      2  O   UNL     1     112.635 127.268 136.933  0.00  0.00    +0.000 OA
ATOM      3  O   UNL     1     114.112 129.551 135.957  0.00  0.00    +0.000 OA
ATOM      4  O   UNL     1     114.507 128.207 135.613  0.00  0.00    +0.000 OA
ATOM      5  C   UNL     1     112.300 129.451 137.269  0.00  0.00    +0.000 A 
ATOM      6  C   UNL     1     112.194 128.599 137.310  0.00  0.00    +0.000 A 
ATOM      7  C   UNL     1     112.949 129.777 136.811  0.00  0.00    +0.000 A 
ATOM      8  C   UNL     1     112.741 128.084 136.891  0.00  0.00    +0.000 A 
ATOM      9  C   UNL     1     113.486 129.246 136.399  0.00  0.00    +0.000 A 
ATOM     10  C   UNL     1     113.365 128.398 136.451  0.00  0.00    +0.000 A 
ATOM     11  C   UNL     1     113.883 127.894 136.053  0.00  0.00    +0.000 A 
ATOM     12  C   UNL     1     113.153 126.764 136.536  0.00  0.00    +0.000 A 
ATOM     13  C   UNL     1     113.778 127.076 136.096  0.00  0.00    +0.000 A 
BRANCH  12  15
ATOM     14  O   UNL     1     112.731 123.496 136.705  0.00  0.00    +0.000 OA
ATOM     15  C   UNL     1     113.048 125.947 136.578  0.00  0.00    +0.000 A 
ATOM     16  C   UNL     1     112.347 125.607 136.306  0.00  0.00    +0.000 A 
ATOM     17  C   UNL     1     113.643 125.469 136.893  0.00  0.00    +0.000 A 
ATOM     18  C   UNL     1     113.537 124.652 136.935  0.00  0.00    +0.000 A 
ATOM     19  C   UNL     1     112.241 124.790 136.348  0.00  0.00    +0.000 A 
ATOM     20  C   UNL     1     112.837 124.312 136.663  0.00  0.00    +0.000 A 
BRANCH  18  21
ATOM     21  O   UNL     1     114.132 124.174 137.249  0.00  0.00    +0.000 OA
ATOM     22  C   UNL     1     114.815 124.518 137.559  0.00  0.00    +0.000 C 
ENDBRANCH  18  21
BRANCH  19  23
ATOM     23  O   UNL     1     111.540 124.450 136.076  0.00  0.00    +0.000 OA
ATOM     24  C   UNL     1     110.958 124.923 135.733  0.00  0.00    +0.000 C 
ENDBRANCH  19  23
ENDBRANCH  12  15
ENDBRANCH   1   5
BRANCH   1  31
ATOM     25  O   UNL     1     112.575 130.102 138.846  0.00  0.00    +0.000 OA
ATOM     26  O   UNL     1     110.520 130.164 140.224  0.00  0.00    +0.000 OA
ATOM     27  O   UNL     1     111.999 130.293 140.942  0.00  0.00    +0.000 OA
ATOM     28  C   UNL     1     111.149 130.059 138.945  0.00  0.00    +0.000 C 
ATOM     29  C   UNL     1     111.205 130.144 139.764  0.00  0.00    +0.000 C 
ATOM     30  C   UNL     1     111.944 130.208 140.124  0.00  0.00    +0.000 C 
ATOM     31  C   UNL     1     111.834 130.038 138.486  0.00  0.00    +0.000 C 
ATOM     32  C   UNL     1     112.629 130.187 139.664  0.00  0.00    +0.000 C 
BRANCH  32  35
ATOM     33  O   UNL     1     113.736 130.989 140.081  0.00  0.00    +0.000 OA
ATOM     34  O   UNL     1     113.742 129.580 140.324  0.00  0.00    +0.000 OA
ATOM     35  C   UNL     1     113.369 130.252 140.023  0.00  0.00    +0.000 C 
ENDBRANCH  32  35
BRANCH  28  36
ATOM     36  O   UNL     1     110.410 129.994 138.586  0.00  0.00    +0.000 OA
BRANCH  36  41
ATOM     37  O   UNL     1     110.364 131.408 138.386  0.00  0.00    +0.000 OA
ATOM     38  O   UNL     1     108.813 129.886 138.188  0.00  0.00    +0.000 OA
ATOM     39  O   UNL     1     107.968 131.247 137.789  0.00  0.00    +0.000 OA
ATOM     40  O   UNL     1     108.722 132.715 137.788  0.00  0.00    +0.000 OA
ATOM     41  C   UNL     1     109.988 130.674 138.387  0.00  0.00    +0.000 C 
ATOM     42  C   UNL     1     109.189 130.621 138.187  0.00  0.00    +0.000 C 
ATOM     43  C   UNL     1     108.767 131.301 137.988  0.00  0.00    +0.000 C 
ATOM     44  C   UNL     1     109.144 132.035 137.988  0.00  0.00    +0.000 C 
ATOM     45  C   UNL     1     109.942 132.089 138.187  0.00  0.00    +0.000 C 
BRANCH  45  48
ATOM     46  O   UNL     1     110.695 133.092 137.503  0.00  0.00    +0.000 OA
ATOM     47  O   UNL     1     110.321 133.286 138.868  0.00  0.00    +0.000 OA
ATOM     48  C   UNL     1     110.319 132.822 138.186  0.00  0.00    +0.000 C 
ENDBRANCH  45  48
ENDBRANCH  36  41
ENDBRANCH  28  36
ENDBRANCH   1  31
TORSDOF 9
ENDMDL
MODEL 3
REMARK VINA RESULT:     -10.2      2.719      4.997
REMARK  Name = 131752191
REMARK  9 active torsions:
REMARK  status: ('A' for Active; 'I' for Inactive)
REMARK    1  A    between atoms: O_1  and  C_20
REMARK    2  A    between atoms: O_1  and  C_22
REMARK    3  A    between atoms: O_5  and  C_25
REMARK    4  A    between atoms: O_5  and  C_32
REMARK    5  A    between atoms: O_17  and  C_44
REMARK    6  A    between atoms: O_18  and  C_45
REMARK    7  A    between atoms: C_28  and  C_30
REMARK    8  A    between atoms: C_29  and  C_31
REMARK    9  A    between atoms: C_39  and  C_41
REMARK                            x       y       z     vdW  Elec       q    Type
REMARK                         _______ _______ _______ _____ _____    ______ ____
ROOT
ATOM      1  O   UNL     1     110.662 130.025 138.071  0.00  0.00    +0.000 OA
ENDROOT
BRANCH   1   5
ATOM      2  O   UNL     1     111.949 127.643 137.000  0.00  0.00    +0.000 OA
ATOM      3  O   UNL     1     112.704 130.245 135.995  0.00  0.00    +0.000 OA
ATOM      4  O   UNL     1     113.321 129.044 135.488  0.00  0.00    +0.000 OA
ATOM      5  C   UNL     1     111.204 129.674 137.558  0.00  0.00    +0.000 A 
ATOM      6  C   UNL     1     111.297 128.820 137.545  0.00  0.00    +0.000 A 
ATOM      7  C   UNL     1     111.680 130.160 137.033  0.00  0.00    +0.000 A 
ATOM      8  C   UNL     1     111.865 128.463 137.007  0.00  0.00    +0.000 A 
ATOM      9  C   UNL     1     112.243 129.785 136.502  0.00  0.00    +0.000 A 
ATOM     10  C   UNL     1     112.322 128.930 136.504  0.00  0.00    +0.000 A 
ATOM     11  C   UNL     1     112.864 128.577 135.992  0.00  0.00    +0.000 A 
ATOM     12  C   UNL     1     112.491 127.289 136.488  0.00  0.00    +0.000 A 
ATOM     13  C   UNL     1     112.949 127.756 135.984  0.00  0.00    +0.000 A 
BRANCH  12  15
ATOM     14  O   UNL     1     112.830 124.007 136.455  0.00  0.00    +0.000 OA
ATOM     15  C   UNL     1     112.576 126.469 136.480  0.00  0.00    +0.000 A 
ATOM     16  C   UNL     1     111.971 125.994 136.181  0.00  0.00    +0.000 A 
ATOM     17  C   UNL     1     113.266 126.122 136.770  0.00  0.00    +0.000 A 
ATOM     18  C   UNL     1     113.351 125.302 136.762  0.00  0.00    +0.000 A 
ATOM     19  C   UNL     1     112.055 125.174 136.173  0.00  0.00    +0.000 A 
ATOM     20  C   UNL     1     112.746 124.827 136.463  0.00  0.00    +0.000 A 
BRANCH  18  21
ATOM     21  O   UNL     1     114.041 124.955 137.052  0.00  0.00    +0.000 OA
ATOM     22  C   UNL     1     114.399 125.256 137.731  0.00  0.00    +0.000 C 
ENDBRANCH  18  21
BRANCH  19  23
ATOM     23  O   UNL     1     111.449 124.700 135.874  0.00  0.00    +0.000 OA
ATOM     24  C   UNL     1     110.742 125.042 135.624  0.00  0.00    +0.000 C 
ENDBRANCH  19  23
ENDBRANCH  12  15
ENDBRANCH   1   5
BRANCH   1  31
ATOM     25  O   UNL     1     109.613 130.024 137.099  0.00  0.00    +0.000 OA
ATOM     26  O   UNL     1     108.560 131.955 138.234  0.00  0.00    +0.000 OA
ATOM     27  O   UNL     1     107.864 131.311 136.885  0.00  0.00    +0.000 OA
ATOM     28  C   UNL     1     109.611 130.991 138.153  0.00  0.00    +0.000 C 
ATOM     29  C   UNL     1     108.911 131.311 137.856  0.00  0.00    +0.000 C 
ATOM     30  C   UNL     1     108.563 130.990 137.182  0.00  0.00    +0.000 C 
ATOM     31  C   UNL     1     109.962 130.347 137.775  0.00  0.00    +0.000 C 
ATOM     32  C   UNL     1     108.914 130.346 136.803  0.00  0.00    +0.000 C 
BRANCH  32  35
ATOM     33  O   UNL     1     108.067 129.369 136.195  0.00  0.00    +0.000 OA
ATOM     34  O   UNL     1     108.717 130.354 135.388  0.00  0.00    +0.000 OA
ATOM     35  C   UNL     1     108.566 130.024 136.128  0.00  0.00    +0.000 C 
ENDBRANCH  32  35
BRANCH  28  36
ATOM     36  O   UNL     1     109.959 131.312 138.827  0.00  0.00    +0.000 OA
BRANCH  36  41
ATOM     37  O   UNL     1     109.161 130.457 139.648  0.00  0.00    +0.000 OA
ATOM     38  O   UNL     1     110.662 131.950 140.177  0.00  0.00    +0.000 OA
ATOM     39  O   UNL     1     110.215 131.414 141.672  0.00  0.00    +0.000 OA
ATOM     40  O   UNL     1     109.066 130.239 141.817  0.00  0.00    +0.000 OA
ATOM     41  C   UNL     1     109.736 131.044 139.575  0.00  0.00    +0.000 C 
ATOM     42  C   UNL     1     110.087 131.363 140.250  0.00  0.00    +0.000 C 
ATOM     43  C   UNL     1     109.864 131.095 140.998  0.00  0.00    +0.000 C 
ATOM     44  C   UNL     1     109.289 130.507 141.070  0.00  0.00    +0.000 C 
ATOM     45  C   UNL     1     108.938 130.188 140.396  0.00  0.00    +0.000 C 
BRANCH  45  48
ATOM     46  O   UNL     1     108.578 128.806 140.415  0.00  0.00    +0.000 OA
ATOM     47  O   UNL     1     107.575 129.807 140.592  0.00  0.00    +0.000 OA
ATOM     48  C   UNL     1     108.363 129.600 140.468  0.00  0.00    +0.000 C 
ENDBRANCH  45  48
ENDBRANCH  36  41
ENDBRANCH  28  36
ENDBRANCH   1  31
TORSDOF 9
ENDMDL
MODEL 4
REMARK VINA RESULT:     -10.1      7.497      9.113
REMARK  Name = 131752191
REMARK  9 active torsions:
REMARK  status: ('A' for Active; 'I' for Inactive)
REMARK    1  A    between atoms: O_1  and  C_20
REMARK    2  A    between atoms: O_1  and  C_22
REMARK    3  A    between atoms: O_5  and  C_25
REMARK    4  A    between atoms: O_5  and  C_32
REMARK    5  A    between atoms: O_17  and  C_44
REMARK    6  A    between atoms: O_18  and  C_45
REMARK    7  A    between atoms: C_28  and  C_30
REMARK    8  A    between atoms: C_29  and  C_31
REMARK    9  A    between atoms: C_39  and  C_41
REMARK                            x       y       z     vdW  Elec       q    Type
REMARK                         _______ _______ _______ _____ _____    ______ ____
ROOT
ATOM      1  O   UNL     1     105.121 128.094 142.707  0.00  0.00    +0.000 OA
ENDROOT
BRANCH   1   5
ATOM      2  O   UNL     1     103.319 130.233 141.894  0.00  0.00    +0.000 OA
ATOM      3  O   UNL     1     103.628 127.909 140.206  0.00  0.00    +0.000 OA
ATOM      4  O   UNL     1     102.744 128.986 139.834  0.00  0.00    +0.000 OA
ATOM      5  C   UNL     1     104.585 128.411 142.167  0.00  0.00    +0.000 A 
ATOM      6  C   UNL     1     104.222 129.176 142.315  0.00  0.00    +0.000 A 
ATOM      7  C   UNL     1     104.385 127.979 141.452  0.00  0.00    +0.000 A 
ATOM      8  C   UNL     1     103.664 129.498 141.746  0.00  0.00    +0.000 A 
ATOM      9  C   UNL     1     103.825 128.317 140.894  0.00  0.00    +0.000 A 
ATOM     10  C   UNL     1     103.472 129.083 141.059  0.00  0.00    +0.000 A 
ATOM     11  C   UNL     1     102.936 129.402 140.520  0.00  0.00    +0.000 A 
ATOM     12  C   UNL     1     102.783 130.552 141.355  0.00  0.00    +0.000 A 
ATOM     13  C   UNL     1     102.590 130.137 140.668  0.00  0.00    +0.000 A 
BRANCH  12  15
ATOM     14  O   UNL     1     101.402 133.490 141.944  0.00  0.00    +0.000 OA
ATOM     15  C   UNL     1     102.437 131.286 141.503  0.00  0.00    +0.000 A 
ATOM     16  C   UNL     1     102.781 131.972 141.199  0.00  0.00    +0.000 A 
ATOM     17  C   UNL     1     101.748 131.335 141.954  0.00  0.00    +0.000 A 
ATOM     18  C   UNL     1     101.403 132.070 142.101  0.00  0.00    +0.000 A 
ATOM     19  C   UNL     1     102.436 132.707 141.346  0.00  0.00    +0.000 A 
ATOM     20  C   UNL     1     101.747 132.756 141.798  0.00  0.00    +0.000 A 
BRANCH  18  21
ATOM     21  O   UNL     1     100.714 132.120 142.553  0.00  0.00    +0.000 OA
ATOM     22  C   UNL     1     100.735 131.938 143.357  0.00  0.00    +0.000 C 
ENDBRANCH  18  21
BRANCH  19  23
ATOM     23  O   UNL     1     102.780 133.393 141.042  0.00  0.00    +0.000 OA
ATOM     24  C   UNL     1     103.600 133.478 141.042  0.00  0.00    +0.000 C 
ENDBRANCH  19  23
ENDBRANCH  12  15
ENDBRANCH   1   5
BRANCH   1  31
ATOM     25  O   UNL     1     106.275 128.767 142.198  0.00  0.00    +0.000 OA
ATOM     26  O   UNL     1     107.660 126.782 142.715  0.00  0.00    +0.000 OA
ATOM     27  O   UNL     1     108.351 128.115 142.033  0.00  0.00    +0.000 OA
ATOM     28  C   UNL     1     106.391 127.438 142.711  0.00  0.00    +0.000 C 
ATOM     29  C   UNL     1     107.198 127.443 142.542  0.00  0.00    +0.000 C 
ATOM     30  C   UNL     1     107.544 128.110 142.202  0.00  0.00    +0.000 C 
ATOM     31  C   UNL     1     105.929 128.099 142.539  0.00  0.00    +0.000 C 
ATOM     32  C   UNL     1     107.082 128.771 142.029  0.00  0.00    +0.000 C 
BRANCH  32  35
ATOM     33  O   UNL     1     107.703 130.051 142.169  0.00  0.00    +0.000 OA
ATOM     34  O   UNL     1     107.498 129.494 140.868  0.00  0.00    +0.000 OA
ATOM     35  C   UNL     1     107.427 129.438 141.688  0.00  0.00    +0.000 C 
ENDBRANCH  32  35
BRANCH  28  36
ATOM     36  O   UNL     1     106.045 126.771 143.052  0.00  0.00    +0.000 OA
BRANCH  36  41
ATOM     37  O   UNL     1     106.364 127.253 144.359  0.00  0.00    +0.000 OA
ATOM     38  O   UNL     1     105.656 125.300 143.690  0.00  0.00    +0.000 OA
ATOM     39  O   UNL     1     105.781 125.047 145.316  0.00  0.00    +0.000 OA
ATOM     40  O   UNL     1     106.294 126.264 146.304  0.00  0.00    +0.000 OA
ATOM     41  C   UNL     1     106.107 126.645 143.865  0.00  0.00    +0.000 C 
ATOM     42  C   UNL     1     105.913 125.908 144.184  0.00  0.00    +0.000 C 
ATOM     43  C   UNL     1     105.975 125.782 144.997  0.00  0.00    +0.000 C 
ATOM     44  C   UNL     1     106.231 126.391 145.491  0.00  0.00    +0.000 C 
ATOM     45  C   UNL     1     106.426 127.126 145.172  0.00  0.00    +0.000 C 
BRANCH  45  48
ATOM     46  O   UNL     1     107.480 127.793 145.869  0.00  0.00    +0.000 OA
ATOM     47  O   UNL     1     106.143 128.287 145.956  0.00  0.00    +0.000 OA
ATOM     48  C   UNL     1     106.682 127.736 145.666  0.00  0.00    +0.000 C 
ENDBRANCH  45  48
ENDBRANCH  36  41
ENDBRANCH  28  36
ENDBRANCH   1  31
TORSDOF 9
ENDMDL
MODEL 5
REMARK VINA RESULT:     -10.1      2.111      4.410
REMARK  Name = 131752191
REMARK  9 active torsions:
REMARK  status: ('A' for Active; 'I' for Inactive)
REMARK    1  A    between atoms: O_1  and  C_20
REMARK    2  A    between atoms: O_1  and  C_22
REMARK    3  A    between atoms: O_5  and  C_25
REMARK    4  A    between atoms: O_5  and  C_32
REMARK    5  A    between atoms: O_17  and  C_44
REMARK    6  A    between atoms: O_18  and  C_45
REMARK    7  A    between atoms: C_28  and  C_30
REMARK    8  A    between atoms: C_29  and  C_31
REMARK    9  A    between atoms: C_39  and  C_41
REMARK                            x       y       z     vdW  Elec       q    Type
REMARK                         _______ _______ _______ _____ _____    ______ ____
ROOT
ATOM      1  O   UNL     1     112.782 127.783 137.649  0.00  0.00    +0.000 OA
ENDROOT
BRANCH   1   5
ATOM      2  O   UNL     1     110.977 130.068 137.664  0.00  0.00    +0.000 OA
ATOM      3  O   UNL     1     113.786 130.473 137.122  0.00  0.00    +0.000 OA
ATOM      4  O   UNL     1     112.864 131.582 137.137  0.00  0.00    +0.000 OA
ATOM      5  C   UNL     1     112.653 128.593 137.565  0.00  0.00    +0.000 A 
ATOM      6  C   UNL     1     111.863 128.917 137.661  0.00  0.00    +0.000 A 
ATOM      7  C   UNL     1     113.308 129.118 137.383  0.00  0.00    +0.000 A 
ATOM      8  C   UNL     1     111.738 129.763 137.571  0.00  0.00    +0.000 A 
ATOM      9  C   UNL     1     113.163 129.962 137.297  0.00  0.00    +0.000 A 
ATOM     10  C   UNL     1     112.367 130.268 137.396  0.00  0.00    +0.000 A 
ATOM     11  C   UNL     1     112.235 131.078 137.313  0.00  0.00    +0.000 A 
ATOM     12  C   UNL     1     110.845 130.878 137.581  0.00  0.00    +0.000 A 
ATOM     13  C   UNL     1     111.474 131.383 137.405  0.00  0.00    +0.000 A 
BRANCH  12  15
ATOM     14  O   UNL     1     107.803 132.101 137.950  0.00  0.00    +0.000 OA
ATOM     15  C   UNL     1     110.085 131.184 137.673  0.00  0.00    +0.000 A 
ATOM     16  C   UNL     1     109.676 131.479 137.020  0.00  0.00    +0.000 A 
ATOM     17  C   UNL     1     109.732 131.195 138.419  0.00  0.00    +0.000 A 
ATOM     18  C   UNL     1     108.972 131.500 138.511  0.00  0.00    +0.000 A 
ATOM     19  C   UNL     1     108.916 131.784 137.111  0.00  0.00    +0.000 A 
ATOM     20  C   UNL     1     108.563 131.795 137.858  0.00  0.00    +0.000 A 
BRANCH  18  21
ATOM     21  O   UNL     1     108.618 131.512 139.257  0.00  0.00    +0.000 OA
ATOM     22  C   UNL     1     108.784 130.913 139.800  0.00  0.00    +0.000 C 
ENDBRANCH  18  21
BRANCH  19  23
ATOM     23  O   UNL     1     108.508 132.079 136.458  0.00  0.00    +0.000 OA
ATOM     24  C   UNL     1     108.539 131.679 135.737  0.00  0.00    +0.000 C 
ENDBRANCH  19  23
ENDBRANCH  12  15
ENDBRANCH   1   5
BRANCH   1  31
ATOM     25  O   UNL     1     113.164 127.803 139.026  0.00  0.00    +0.000 OA
ATOM     26  O   UNL     1     111.951 125.677 139.393  0.00  0.00    +0.000 OA
ATOM     27  O   UNL     1     112.737 126.405 140.647  0.00  0.00    +0.000 OA
ATOM     28  C   UNL     1     112.367 126.729 138.521  0.00  0.00    +0.000 C 
ATOM     29  C   UNL     1     112.356 126.385 139.271  0.00  0.00    +0.000 C 
ATOM     30  C   UNL     1     112.748 126.749 139.898  0.00  0.00    +0.000 C 
ATOM     31  C   UNL     1     112.771 127.438 138.399  0.00  0.00    +0.000 C 
ATOM     32  C   UNL     1     113.152 127.458 139.775  0.00  0.00    +0.000 C 
BRANCH  32  35
ATOM     33  O   UNL     1     114.340 127.649 140.548  0.00  0.00    +0.000 OA
ATOM     34  O   UNL     1     113.146 128.360 140.884  0.00  0.00    +0.000 OA
ATOM     35  C   UNL     1     113.545 127.823 140.402  0.00  0.00    +0.000 C 
ENDBRANCH  32  35
BRANCH  28  36
ATOM     36  O   UNL     1     111.974 126.365 137.894  0.00  0.00    +0.000 OA
BRANCH  36  41
ATOM     37  O   UNL     1     113.156 125.675 137.483  0.00  0.00    +0.000 OA
ATOM     38  O   UNL     1     111.050 125.262 137.086  0.00  0.00    +0.000 OA
ATOM     39  O   UNL     1     111.770 124.022 136.271  0.00  0.00    +0.000 OA
ATOM     40  O   UNL     1     113.414 123.884 136.264  0.00  0.00    +0.000 OA
ATOM     41  C   UNL     1     112.334 125.745 137.486  0.00  0.00    +0.000 C 
ATOM     42  C   UNL     1     111.872 125.193 137.082  0.00  0.00    +0.000 C 
ATOM     43  C   UNL     1     112.232 124.573 136.675  0.00  0.00    +0.000 C 
ATOM     44  C   UNL     1     113.054 124.504 136.671  0.00  0.00    +0.000 C 
ATOM     45  C   UNL     1     113.516 125.055 137.075  0.00  0.00    +0.000 C 
BRANCH  45  48
ATOM     46  O   UNL     1     114.782 125.379 136.497  0.00  0.00    +0.000 OA
ATOM     47  O   UNL     1     114.717 124.527 137.642  0.00  0.00    +0.000 OA
ATOM     48  C   UNL     1     114.338 124.987 137.072  0.00  0.00    +0.000 C 
ENDBRANCH  45  48
ENDBRANCH  36  41
ENDBRANCH  28  36
ENDBRANCH   1  31
TORSDOF 9
ENDMDL
MODEL 6
REMARK VINA RESULT:     -10.1      2.514      4.281
REMARK  Name = 131752191
REMARK  9 active torsions:
REMARK  status: ('A' for Active; 'I' for Inactive)
REMARK    1  A    between atoms: O_1  and  C_20
REMARK    2  A    between atoms: O_1  and  C_22
REMARK    3  A    between atoms: O_5  and  C_25
REMARK    4  A    between atoms: O_5  and  C_32
REMARK    5  A    between atoms: O_17  and  C_44
REMARK    6  A    between atoms: O_18  and  C_45
REMARK    7  A    between atoms: C_28  and  C_30
REMARK    8  A    between atoms: C_29  and  C_31
REMARK    9  A    between atoms: C_39  and  C_41
REMARK                            x       y       z     vdW  Elec       q    Type
REMARK                         _______ _______ _______ _____ _____    ______ ____
ROOT
ATOM      1  O   UNL     1     111.532 129.115 139.799  0.00  0.00    +0.000 OA
ENDROOT
BRANCH   1   5
ATOM      2  O   UNL     1     111.926 127.069 137.765  0.00  0.00    +0.000 OA
ATOM      3  O   UNL     1     113.104 129.682 137.405  0.00  0.00    +0.000 OA
ATOM      4  O   UNL     1     113.279 128.645 136.418  0.00  0.00    +0.000 OA
ATOM      5  C   UNL     1     111.853 128.875 139.078  0.00  0.00    +0.000 A 
ATOM      6  C   UNL     1     111.720 128.077 138.790  0.00  0.00    +0.000 A 
ATOM      7  C   UNL     1     112.322 129.422 138.611  0.00  0.00    +0.000 A 
ATOM      8  C   UNL     1     112.058 127.836 138.036  0.00  0.00    +0.000 A 
ATOM      9  C   UNL     1     112.652 129.163 137.860  0.00  0.00    +0.000 A 
ATOM     10  C   UNL     1     112.509 128.362 137.588  0.00  0.00    +0.000 A 
ATOM     11  C   UNL     1     112.828 128.119 136.867  0.00  0.00    +0.000 A 
ATOM     12  C   UNL     1     112.246 126.827 137.044  0.00  0.00    +0.000 A 
ATOM     13  C   UNL     1     112.697 127.352 136.594  0.00  0.00    +0.000 A 
BRANCH  12  15
ATOM     14  O   UNL     1     111.722 123.756 135.955  0.00  0.00    +0.000 OA
ATOM     15  C   UNL     1     112.115 126.059 136.772  0.00  0.00    +0.000 A 
ATOM     16  C   UNL     1     112.643 125.456 136.967  0.00  0.00    +0.000 A 
ATOM     17  C   UNL     1     111.456 125.894 136.304  0.00  0.00    +0.000 A 
ATOM     18  C   UNL     1     111.324 125.126 136.031  0.00  0.00    +0.000 A 
ATOM     19  C   UNL     1     112.512 124.688 136.696  0.00  0.00    +0.000 A 
ATOM     20  C   UNL     1     111.852 124.523 136.227  0.00  0.00    +0.000 A 
BRANCH  18  21
ATOM     21  O   UNL     1     110.666 124.961 135.563  0.00  0.00    +0.000 OA
ATOM     22  C   UNL     1     110.253 125.576 135.200  0.00  0.00    +0.000 C 
ENDBRANCH  18  21
BRANCH  19  23
ATOM     23  O   UNL     1     113.040 124.085 136.891  0.00  0.00    +0.000 OA
ATOM     24  C   UNL     1     113.811 124.270 137.120  0.00  0.00    +0.000 C 
ENDBRANCH  19  23
ENDBRANCH  12  15
ENDBRANCH   1   5
BRANCH   1  31
ATOM     25  O   UNL     1     110.359 129.714 139.245  0.00  0.00    +0.000 OA
ATOM     26  O   UNL     1     109.063 129.013 141.234  0.00  0.00    +0.000 OA
ATOM     27  O   UNL     1     108.322 129.845 140.017  0.00  0.00    +0.000 OA
ATOM     28  C   UNL     1     110.298 129.064 140.517  0.00  0.00    +0.000 C 
ATOM     29  C   UNL     1     109.495 129.247 140.571  0.00  0.00    +0.000 C 
ATOM     30  C   UNL     1     109.124 129.663 139.963  0.00  0.00    +0.000 C 
ATOM     31  C   UNL     1     110.730 129.297 139.854  0.00  0.00    +0.000 C 
ATOM     32  C   UNL     1     109.557 129.896 139.300  0.00  0.00    +0.000 C 
BRANCH  32  35
ATOM     33  O   UNL     1     109.210 131.137 138.683  0.00  0.00    +0.000 OA
ATOM     34  O   UNL     1     108.794 129.904 138.091  0.00  0.00    +0.000 OA
ATOM     35  C   UNL     1     109.187 130.312 138.691  0.00  0.00    +0.000 C 
ENDBRANCH  32  35
BRANCH  28  36
ATOM     36  O   UNL     1     110.668 128.648 141.125  0.00  0.00    +0.000 OA
BRANCH  36  41
ATOM     37  O   UNL     1     111.031 129.869 141.773  0.00  0.00    +0.000 OA
ATOM     38  O   UNL     1     111.031 127.811 142.500  0.00  0.00    +0.000 OA
ATOM     39  O   UNL     1     111.575 128.613 143.835  0.00  0.00    +0.000 OA
ATOM     40  O   UNL     1     111.757 130.252 143.795  0.00  0.00    +0.000 OA
ATOM     41  C   UNL     1     110.940 129.049 141.793  0.00  0.00    +0.000 C 
ATOM     42  C   UNL     1     111.122 128.630 142.481  0.00  0.00    +0.000 C 
ATOM     43  C   UNL     1     111.394 129.031 143.148  0.00  0.00    +0.000 C 
ATOM     44  C   UNL     1     111.485 129.851 143.128  0.00  0.00    +0.000 C 
ATOM     45  C   UNL     1     111.304 130.270 142.441  0.00  0.00    +0.000 C 
BRANCH  45  48
ATOM     46  O   UNL     1     112.107 131.419 142.167  0.00  0.00    +0.000 OA
ATOM     47  O   UNL     1     110.773 131.580 142.653  0.00  0.00    +0.000 OA
ATOM     48  C   UNL     1     111.394 131.090 142.420  0.00  0.00    +0.000 C 
ENDBRANCH  45  48
ENDBRANCH  36  41
ENDBRANCH  28  36
ENDBRANCH   1  31
TORSDOF 9
ENDMDL
MODEL 7
REMARK VINA RESULT:     -10.1      2.607      4.535
REMARK  Name = 131752191
REMARK  9 active torsions:
REMARK  status: ('A' for Active; 'I' for Inactive)
REMARK    1  A    between atoms: O_1  and  C_20
REMARK    2  A    between atoms: O_1  and  C_22
REMARK    3  A    between atoms: O_5  and  C_25
REMARK    4  A    between atoms: O_5  and  C_32
REMARK    5  A    between atoms: O_17  and  C_44
REMARK    6  A    between atoms: O_18  and  C_45
REMARK    7  A    between atoms: C_28  and  C_30
REMARK    8  A    between atoms: C_29  and  C_31
REMARK    9  A    between atoms: C_39  and  C_41
REMARK                            x       y       z     vdW  Elec       q    Type
REMARK                         _______ _______ _______ _____ _____    ______ ____
ROOT
ATOM      1  O   UNL     1     111.541 129.630 138.884  0.00  0.00    +0.000 OA
ENDROOT
BRANCH   1   5
ATOM      2  O   UNL     1     112.433 127.256 137.453  0.00  0.00    +0.000 OA
ATOM      3  O   UNL     1     113.534 129.836 136.761  0.00  0.00    +0.000 OA
ATOM      4  O   UNL     1     113.953 128.639 136.073  0.00  0.00    +0.000 OA
ATOM      5  C   UNL     1     112.011 129.279 138.305  0.00  0.00    +0.000 A 
ATOM      6  C   UNL     1     111.976 128.429 138.177  0.00  0.00    +0.000 A 
ATOM      7  C   UNL     1     112.538 129.758 137.826  0.00  0.00    +0.000 A 
ATOM      8  C   UNL     1     112.471 128.072 137.571  0.00  0.00    +0.000 A 
ATOM      9  C   UNL     1     113.025 129.383 137.225  0.00  0.00    +0.000 A 
ATOM     10  C   UNL     1     112.977 128.533 137.111  0.00  0.00    +0.000 A 
ATOM     11  C   UNL     1     113.447 128.178 136.533  0.00  0.00    +0.000 A 
ATOM     12  C   UNL     1     112.902 126.902 136.875  0.00  0.00    +0.000 A 
ATOM     13  C   UNL     1     113.409 127.363 136.414  0.00  0.00    +0.000 A 
BRANCH  12  15
ATOM     14  O   UNL     1     112.753 123.640 136.400  0.00  0.00    +0.000 OA
ATOM     15  C   UNL     1     112.865 126.086 136.756  0.00  0.00    +0.000 A 
ATOM     16  C   UNL     1     112.207 125.752 136.388  0.00  0.00    +0.000 A 
ATOM     17  C   UNL     1     113.487 125.604 137.006  0.00  0.00    +0.000 A 
ATOM     18  C   UNL     1     113.449 124.789 136.887  0.00  0.00    +0.000 A 
ATOM     19  C   UNL     1     112.169 124.937 136.269  0.00  0.00    +0.000 A 
ATOM     20  C   UNL     1     112.791 124.455 136.519  0.00  0.00    +0.000 A 
BRANCH  18  21
ATOM     21  O   UNL     1     114.070 124.306 137.137  0.00  0.00    +0.000 OA
ATOM     22  C   UNL     1     114.734 124.641 137.493  0.00  0.00    +0.000 C 
ENDBRANCH  18  21
BRANCH  19  23
ATOM     23  O   UNL     1     111.511 124.604 135.900  0.00  0.00    +0.000 OA
ATOM     24  C   UNL     1     110.869 125.079 135.692  0.00  0.00    +0.000 C 
ENDBRANCH  19  23
ENDBRANCH  12  15
ENDBRANCH   1   5
BRANCH   1  31
ATOM     25  O   UNL     1     112.489 129.330 139.909  0.00  0.00    +0.000 OA
ATOM     26  O   UNL     1     111.493 131.082 141.345  0.00  0.00    +0.000 OA
ATOM     27  O   UNL     1     112.773 130.198 141.891  0.00  0.00    +0.000 OA
ATOM     28  C   UNL     1     111.516 130.357 140.115  0.00  0.00    +0.000 C 
ATOM     29  C   UNL     1     111.825 130.498 140.867  0.00  0.00    +0.000 C 
ATOM     30  C   UNL     1     112.465 130.056 141.140  0.00  0.00    +0.000 C 
ATOM     31  C   UNL     1     111.848 129.773 139.636  0.00  0.00    +0.000 C 
ATOM     32  C   UNL     1     112.797 129.472 140.661  0.00  0.00    +0.000 C 
BRANCH  32  35
ATOM     33  O   UNL     1     114.208 129.305 140.820  0.00  0.00    +0.000 OA
ATOM     34  O   UNL     1     113.309 128.313 141.321  0.00  0.00    +0.000 OA
ATOM     35  C   UNL     1     113.438 129.030 140.934  0.00  0.00    +0.000 C 
ENDBRANCH  32  35
BRANCH  28  36
ATOM     36  O   UNL     1     110.876 130.799 139.841  0.00  0.00    +0.000 OA
BRANCH  36  41
ATOM     37  O   UNL     1     109.973 129.835 140.386  0.00  0.00    +0.000 OA
ATOM     38  O   UNL     1     109.600 131.760 139.429  0.00  0.00    +0.000 OA
ATOM     39  O   UNL     1     108.059 131.277 139.769  0.00  0.00    +0.000 OA
ATOM     40  O   UNL     1     107.795 129.832 140.520  0.00  0.00    +0.000 OA
ATOM     41  C   UNL     1     110.106 130.557 140.011  0.00  0.00    +0.000 C 
ATOM     42  C   UNL     1     109.467 131.038 139.805  0.00  0.00    +0.000 C 
ATOM     43  C   UNL     1     108.697 130.796 139.975  0.00  0.00    +0.000 C 
ATOM     44  C   UNL     1     108.565 130.074 140.350  0.00  0.00    +0.000 C 
ATOM     45  C   UNL     1     109.202 129.593 140.556  0.00  0.00    +0.000 C 
BRANCH  45  48
ATOM     46  O   UNL     1     109.059 128.830 141.756  0.00  0.00    +0.000 OA
ATOM     47  O   UNL     1     108.950 128.188 140.484  0.00  0.00    +0.000 OA
ATOM     48  C   UNL     1     109.071 128.870 140.932  0.00  0.00    +0.000 C 
ENDBRANCH  45  48
ENDBRANCH  36  41
ENDBRANCH  28  36
ENDBRANCH   1  31
TORSDOF 9
ENDMDL
MODEL 8
REMARK VINA RESULT:      -9.9      1.536      6.325
REMARK  Name = 131752191
REMARK  9 active torsions:
REMARK  status: ('A' for Active; 'I' for Inactive)
REMARK    1  A    between atoms: O_1  and  C_20
REMARK    2  A    between atoms: O_1  and  C_22
REMARK    3  A    between atoms: O_5  and  C_25
REMARK    4  A    between atoms: O_5  and  C_32
REMARK    5  A    between atoms: O_17  and  C_44
REMARK    6  A    between atoms: O_18  and  C_45
REMARK    7  A    between atoms: C_28  and  C_30
REMARK    8  A    between atoms: C_29  and  C_31
REMARK    9  A    between atoms: C_39  and  C_41
REMARK                            x       y       z     vdW  Elec       q    Type
REMARK                         _______ _______ _______ _____ _____    ______ ____
ROOT
ATOM      1  O   UNL     1     112.017 127.494 137.638  0.00  0.00    +0.000 OA
ENDROOT
BRANCH   1   5
ATOM      2  O   UNL     1     112.970 128.975 139.957  0.00  0.00    +0.000 OA
ATOM      3  O   UNL     1     113.928 126.290 139.488  0.00  0.00    +0.000 OA
ATOM      4  O   UNL     1     114.379 127.053 140.626  0.00  0.00    +0.000 OA
ATOM      5  C   UNL     1     112.484 127.538 138.317  0.00  0.00    +0.000 A 
ATOM      6  C   UNL     1     112.484 128.251 138.795  0.00  0.00    +0.000 A 
ATOM      7  C   UNL     1     112.972 126.871 138.549  0.00  0.00    +0.000 A 
ATOM      8  C   UNL     1     112.974 128.288 139.501  0.00  0.00    +0.000 A 
ATOM      9  C   UNL     1     113.456 126.926 139.258  0.00  0.00    +0.000 A 
ATOM     10  C   UNL     1     113.444 127.647 139.724  0.00  0.00    +0.000 A 
ATOM     11  C   UNL     1     113.910 127.694 140.403  0.00  0.00    +0.000 A 
ATOM     12  C   UNL     1     113.436 129.022 140.636  0.00  0.00    +0.000 A 
ATOM     13  C   UNL     1     113.906 128.381 140.860  0.00  0.00    +0.000 A 
BRANCH  12  15
ATOM     14  O   UNL     1     113.422 131.771 142.461  0.00  0.00    +0.000 OA
ATOM     15  C   UNL     1     113.433 129.709 141.092  0.00  0.00    +0.000 A 
ATOM     16  C   UNL     1     112.827 129.840 141.636  0.00  0.00    +0.000 A 
ATOM     17  C   UNL     1     114.035 130.266 141.004  0.00  0.00    +0.000 A 
ATOM     18  C   UNL     1     114.032 130.953 141.461  0.00  0.00    +0.000 A 
ATOM     19  C   UNL     1     112.822 130.527 142.093  0.00  0.00    +0.000 A 
ATOM     20  C   UNL     1     113.426 131.084 142.005  0.00  0.00    +0.000 A 
BRANCH  18  21
ATOM     21  O   UNL     1     114.634 131.510 141.374  0.00  0.00    +0.000 OA
ATOM     22  C   UNL     1     115.257 131.365 140.853  0.00  0.00    +0.000 C 
ENDBRANCH  18  21
BRANCH  19  23
ATOM     23  O   UNL     1     112.216 130.658 142.637  0.00  0.00    +0.000 OA
ATOM     24  C   UNL     1     111.882 130.022 143.043  0.00  0.00    +0.000 C 
ENDBRANCH  19  23
ENDBRANCH  12  15
ENDBRANCH   1   5
BRANCH   1  31
ATOM     25  O   UNL     1     112.988 128.019 136.730  0.00  0.00    +0.000 OA
ATOM     26  O   UNL     1     111.195 129.196 135.495  0.00  0.00    +0.000 OA
ATOM     27  O   UNL     1     112.763 129.329 135.000  0.00  0.00    +0.000 OA
ATOM     28  C   UNL     1     111.605 128.345 136.566  0.00  0.00    +0.000 C 
ATOM     29  C   UNL     1     111.793 128.804 135.906  0.00  0.00    +0.000 C 
ATOM     30  C   UNL     1     112.576 128.871 135.659  0.00  0.00    +0.000 C 
ATOM     31  C   UNL     1     112.203 127.953 136.978  0.00  0.00    +0.000 C 
ATOM     32  C   UNL     1     113.173 128.478 136.071  0.00  0.00    +0.000 C 
BRANCH  32  35
ATOM     33  O   UNL     1     114.400 129.211 136.028  0.00  0.00    +0.000 OA
ATOM     34  O   UNL     1     114.300 127.945 135.372  0.00  0.00    +0.000 OA
ATOM     35  C   UNL     1     113.958 128.544 135.823  0.00  0.00    +0.000 C 
ENDBRANCH  32  35
BRANCH  28  36
ATOM     36  O   UNL     1     110.822 128.279 136.814  0.00  0.00    +0.000 OA
BRANCH  36  41
ATOM     37  O   UNL     1     110.628 127.049 136.111  0.00  0.00    +0.000 OA
ATOM     38  O   UNL     1     109.197 128.563 136.763  0.00  0.00    +0.000 OA
ATOM     39  O   UNL     1     108.192 127.477 136.035  0.00  0.00    +0.000 OA
ATOM     40  O   UNL     1     108.811 126.105 135.358  0.00  0.00    +0.000 OA
ATOM     41  C   UNL     1     110.319 127.735 136.450  0.00  0.00    +0.000 C 
ATOM     42  C   UNL     1     109.506 127.878 136.424  0.00  0.00    +0.000 C 
ATOM     43  C   UNL     1     109.003 127.334 136.060  0.00  0.00    +0.000 C 
ATOM     44  C   UNL     1     109.314 126.648 135.722  0.00  0.00    +0.000 C 
ATOM     45  C   UNL     1     110.125 126.506 135.747  0.00  0.00    +0.000 C 
BRANCH  45  48
ATOM     46  O   UNL     1     110.648 125.814 134.612  0.00  0.00    +0.000 OA
ATOM     47  O   UNL     1     110.533 125.142 135.867  0.00  0.00    +0.000 OA
ATOM     48  C   UNL     1     110.435 125.820 135.409  0.00  0.00    +0.000 C 
ENDBRANCH  45  48
ENDBRANCH  36  41
ENDBRANCH  28  36
ENDBRANCH   1  31
TORSDOF 9
ENDMDL
MODEL 9
REMARK VINA RESULT:      -9.8      2.163      5.766
REMARK  Name = 131752191
REMARK  9 active torsions:
REMARK  status: ('A' for Active; 'I' for Inactive)
REMARK    1  A    between atoms: O_1  and  C_20
REMARK    2  A    between atoms: O_1  and  C_22
REMARK    3  A    between atoms: O_5  and  C_25
REMARK    4  A    between atoms: O_5  and  C_32
REMARK    5  A    between atoms: O_17  and  C_44
REMARK    6  A    between atoms: O_18  and  C_45
REMARK    7  A    between atoms: C_28  and  C_30
REMARK    8  A    between atoms: C_29  and  C_31
REMARK    9  A    between atoms: C_39  and  C_41
REMARK                            x       y       z     vdW  Elec       q    Type
REMARK                         _______ _______ _______ _____ _____    ______ ____
ROOT
ATOM      1  O   UNL     1     111.218 129.620 138.212  0.00  0.00    +0.000 OA
ENDROOT
BRANCH   1   5
ATOM      2  O   UNL     1     112.508 127.024 137.934  0.00  0.00    +0.000 OA
ATOM      3  O   UNL     1     112.675 128.437 140.448  0.00  0.00    +0.000 OA
ATOM      4  O   UNL     1     113.302 127.149 140.275  0.00  0.00    +0.000 OA
ATOM      5  C   UNL     1     111.665 129.005 138.532  0.00  0.00    +0.000 A 
ATOM      6  C   UNL     1     111.859 128.318 138.055  0.00  0.00    +0.000 A 
ATOM      7  C   UNL     1     111.941 129.049 139.344  0.00  0.00    +0.000 A 
ATOM      8  C   UNL     1     112.325 127.682 138.397  0.00  0.00    +0.000 A 
ATOM      9  C   UNL     1     112.407 128.403 139.669  0.00  0.00    +0.000 A 
ATOM     10  C   UNL     1     112.590 127.724 139.177  0.00  0.00    +0.000 A 
ATOM     11  C   UNL     1     113.037 127.107 139.495  0.00  0.00    +0.000 A 
ATOM     12  C   UNL     1     112.955 126.408 138.251  0.00  0.00    +0.000 A 
ATOM     13  C   UNL     1     113.220 126.449 139.032  0.00  0.00    +0.000 A 
BRANCH  12  15
ATOM     14  O   UNL     1     113.685 123.775 136.401  0.00  0.00    +0.000 OA
ATOM     15  C   UNL     1     113.138 125.750 137.789  0.00  0.00    +0.000 A 
ATOM     16  C   UNL     1     112.557 125.186 137.625  0.00  0.00    +0.000 A 
ATOM     17  C   UNL     1     113.900 125.655 137.489  0.00  0.00    +0.000 A 
ATOM     18  C   UNL     1     114.083 124.996 137.026  0.00  0.00    +0.000 A 
ATOM     19  C   UNL     1     112.739 124.528 137.163  0.00  0.00    +0.000 A 
ATOM     20  C   UNL     1     113.503 124.433 136.863  0.00  0.00    +0.000 A 
BRANCH  18  21
ATOM     21  O   UNL     1     114.846 124.901 136.727  0.00  0.00    +0.000 OA
ATOM     22  C   UNL     1     115.147 125.446 136.186  0.00  0.00    +0.000 C 
ENDBRANCH  18  21
BRANCH  19  23
ATOM     23  O   UNL     1     112.159 123.965 136.999  0.00  0.00    +0.000 OA
ATOM     24  C   UNL     1     111.447 124.195 136.651  0.00  0.00    +0.000 C 
ENDBRANCH  19  23
ENDBRANCH  12  15
ENDBRANCH   1   5
BRANCH   1  31
ATOM     25  O   UNL     1     112.307 130.140 137.447  0.00  0.00    +0.000 OA
ATOM     26  O   UNL     1     111.295 132.396 137.537  0.00  0.00    +0.000 OA
ATOM     27  O   UNL     1     112.721 132.163 136.742  0.00  0.00    +0.000 OA
ATOM     28  C   UNL     1     111.256 131.009 137.875  0.00  0.00    +0.000 C 
ATOM     29  C   UNL     1     111.632 131.644 137.507  0.00  0.00    +0.000 C 
ATOM     30  C   UNL     1     112.345 131.528 137.110  0.00  0.00    +0.000 C 
ATOM     31  C   UNL     1     111.593 130.256 137.845  0.00  0.00    +0.000 C 
ATOM     32  C   UNL     1     112.683 130.776 137.080  0.00  0.00    +0.000 C 
BRANCH  32  35
ATOM     33  O   UNL     1     114.112 130.791 137.073  0.00  0.00    +0.000 OA
ATOM     34  O   UNL     1     113.395 130.410 135.896  0.00  0.00    +0.000 OA
ATOM     35  C   UNL     1     113.396 130.659 136.682  0.00  0.00    +0.000 C 
ENDBRANCH  32  35
BRANCH  28  36
ATOM     36  O   UNL     1     110.543 131.125 138.272  0.00  0.00    +0.000 OA
BRANCH  36  41
ATOM     37  O   UNL     1     109.779 130.832 137.100  0.00  0.00    +0.000 OA
ATOM     38  O   UNL     1     109.250 131.922 138.916  0.00  0.00    +0.000 OA
ATOM     39  O   UNL     1     107.840 132.029 138.065  0.00  0.00    +0.000 OA
ATOM     40  O   UNL     1     107.723 131.337 136.572  0.00  0.00    +0.000 OA
ATOM     41  C   UNL     1     109.838 131.178 137.847  0.00  0.00    +0.000 C 
ATOM     42  C   UNL     1     109.191 131.577 138.169  0.00  0.00    +0.000 C 
ATOM     43  C   UNL     1     108.486 131.630 137.744  0.00  0.00    +0.000 C 
ATOM     44  C   UNL     1     108.428 131.284 136.997  0.00  0.00    +0.000 C 
ATOM     45  C   UNL     1     109.074 130.885 136.675  0.00  0.00    +0.000 C 
BRANCH  45  48
ATOM     46  O   UNL     1     108.779 129.752 135.856  0.00  0.00    +0.000 OA
ATOM     47  O   UNL     1     109.194 130.979 135.255  0.00  0.00    +0.000 OA
ATOM     48  C   UNL     1     109.016 130.539 135.928  0.00  0.00    +0.000 C 
ENDBRANCH  45  48
ENDBRANCH  36  41
ENDBRANCH  28  36
ENDBRANCH   1  31
TORSDOF 9
ENDMDL
