MODEL 1
REMARK VINA RESULT:     -11.0      0.000      0.000
REMARK  Name = 44258786
REMARK  7 active torsions:
REMARK  status: ('A' for Active; 'I' for Inactive)
REMARK    1  A    between atoms: O_1  and  C_15
REMARK    2  A    between atoms: O_1  and  C_18
REMARK    3  A    between atoms: O_4  and  C_20
REMARK    4  A    between atoms: O_4  and  C_27
REMARK    5  A    between atoms: C_28  and  C_32
REMARK    6  A    between atoms: C_33  and  C_36
REMARK    7  A    between atoms: C_36  and  C_42
REMARK                            x       y       z     vdW  Elec       q    Type
REMARK                         _______ _______ _______ _____ _____    ______ ____
ROOT
ATOM      1  O   UNL     1     112.217 127.313 136.850  0.00  0.00    +0.000 OA
ATOM      2  O   UNL     1     109.752 127.499 136.961  0.00  0.00    +0.000 OA
ATOM      3  O   UNL     1     109.602 126.110 136.602  0.00  0.00    +0.000 OA
ATOM      4  O   UNL     1     111.992 124.502 136.120  0.00  0.00    +0.000 OA
ATOM      5  C   UNL     1     111.045 128.095 137.084  0.00  0.00    +0.000 A 
ATOM      6  C   UNL     1     111.866 128.033 137.047  0.00  0.00    +0.000 A 
ATOM      7  C   UNL     1     110.574 127.437 136.924  0.00  0.00    +0.000 A 
ATOM      8  C   UNL     1     110.924 126.717 136.727  0.00  0.00    +0.000 A 
ATOM      9  C   UNL     1     111.747 126.654 136.690  0.00  0.00    +0.000 A 
ATOM     10  C   UNL     1     112.124 125.910 136.485  0.00  0.00    +0.000 A 
ATOM     11  C   UNL     1     110.423 126.039 136.562  0.00  0.00    +0.000 A 
ATOM     12  C   UNL     1     111.638 125.221 136.317  0.00  0.00    +0.000 A 
ATOM     13  C   UNL     1     110.783 125.285 136.356  0.00  0.00    +0.000 A 
ENDROOT
BRANCH   6  15
ATOM     14  O   UNL     1     113.753 130.663 137.691  0.00  0.00    +0.000 OA
ATOM     15  C   UNL     1     112.338 128.691 137.208  0.00  0.00    +0.000 A 
ATOM     16  C   UNL     1     112.521 128.887 137.988  0.00  0.00    +0.000 A 
ATOM     17  C   UNL     1     112.627 129.152 136.589  0.00  0.00    +0.000 A 
ATOM     18  C   UNL     1     112.992 129.544 138.149  0.00  0.00    +0.000 A 
ATOM     19  C   UNL     1     113.099 129.810 136.749  0.00  0.00    +0.000 A 
ATOM     20  C   UNL     1     113.281 130.006 137.529  0.00  0.00    +0.000 A 
ENDBRANCH   6  15
BRANCH   5  21
ATOM     21  O   UNL     1     110.695 128.815 137.282  0.00  0.00    +0.000 OA
BRANCH  21  28
ATOM     22  O   UNL     1     110.260 129.129 135.957  0.00  0.00    +0.000 OA
ATOM     23  O   UNL     1     108.254 130.247 136.880  0.00  0.00    +0.000 OA
ATOM     24  O   UNL     1     108.489 130.188 135.248  0.00  0.00    +0.000 OA
ATOM     25  C   UNL     1     109.474 129.531 137.081  0.00  0.00    +0.000 C 
ATOM     26  C   UNL     1     108.923 129.874 136.572  0.00  0.00    +0.000 C 
ATOM     27  C   UNL     1     109.040 129.845 135.757  0.00  0.00    +0.000 C 
ATOM     28  C   UNL     1     110.142 129.159 136.773  0.00  0.00    +0.000 C 
ATOM     29  C   UNL     1     109.708 129.472 135.449  0.00  0.00    +0.000 C 
ATOM     30  C   UNL     1     109.826 129.443 134.633  0.00  0.00    +0.000 C 
BRANCH  25  31
ATOM     31  O   UNL     1     109.357 129.561 137.897  0.00  0.00    +0.000 OA
BRANCH  31  36
ATOM     32  O   UNL     1     109.884 130.889 137.931  0.00  0.00    +0.000 OA
ATOM     33  O   UNL     1     108.921 129.693 139.483  0.00  0.00    +0.000 OA
ATOM     34  O   UNL     1     109.228 131.087 140.310  0.00  0.00    +0.000 OA
ATOM     35  O   UNL     1     109.972 132.349 139.551  0.00  0.00    +0.000 OA
ATOM     36  C   UNL     1     109.511 130.258 138.310  0.00  0.00    +0.000 C 
ATOM     37  C   UNL     1     109.293 130.324 139.103  0.00  0.00    +0.000 C 
ATOM     38  C   UNL     1     109.447 131.022 139.517  0.00  0.00    +0.000 C 
ATOM     39  C   UNL     1     109.819 131.652 139.137  0.00  0.00    +0.000 C 
ATOM     40  C   UNL     1     110.037 131.587 138.344  0.00  0.00    +0.000 C 
ATOM     41  C   UNL     1     110.409 132.217 137.965  0.00  0.00    +0.000 C 
ENDBRANCH  31  36
ENDBRANCH  25  31
ENDBRANCH  21  28
ENDBRANCH   5  21
BRANCH  10  42
ATOM     42  C   UNL     1     112.946 125.857 136.451  0.00  0.00    +0.000 C 
BRANCH  42  43
ATOM     43  C   UNL     1     113.355 125.413 137.012  0.00  0.00    +0.000 C 
ATOM     44  C   UNL     1     114.179 125.372 136.987  0.00  0.00    +0.000 C 
ATOM     45  C   UNL     1     114.588 124.928 137.548  0.00  0.00    +0.000 C 
ATOM     46  C   UNL     1     114.594 125.776 136.398  0.00  0.00    +0.000 C 
ENDBRANCH  42  43
ENDBRANCH  10  42
TORSDOF 7
ENDMDL
MODEL 2
REMARK VINA RESULT:     -10.5      0.976      2.025
REMARK  Name = 44258786
REMARK  7 active torsions:
REMARK  status: ('A' for Active; 'I' for Inactive)
REMARK    1  A    between atoms: O_1  and  C_15
REMARK    2  A    between atoms: O_1  and  C_18
REMARK    3  A    between atoms: O_4  and  C_20
REMARK    4  A    between atoms: O_4  and  C_27
REMARK    5  A    between atoms: C_28  and  C_32
REMARK    6  A    between atoms: C_33  and  C_36
REMARK    7  A    between atoms: C_36  and  C_42
REMARK                            x       y       z     vdW  Elec       q    Type
REMARK                         _______ _______ _______ _____ _____    ______ ____
ROOT
ATOM      1  O   UNL     1     112.349 127.361 136.532  0.00  0.00    +0.000 OA
ATOM      2  O   UNL     1     109.898 127.695 136.601  0.00  0.00    +0.000 OA
ATOM      3  O   UNL     1     109.671 126.284 136.409  0.00  0.00    +0.000 OA
ATOM      4  O   UNL     1     111.968 124.500 136.141  0.00  0.00    +0.000 OA
ATOM      5  C   UNL     1     111.222 128.229 136.662  0.00  0.00    +0.000 A 
ATOM      6  C   UNL     1     112.038 128.118 136.639  0.00  0.00    +0.000 A 
ATOM      7  C   UNL     1     110.715 127.584 136.578  0.00  0.00    +0.000 A 
ATOM      8  C   UNL     1     111.025 126.827 136.471  0.00  0.00    +0.000 A 
ATOM      9  C   UNL     1     111.843 126.715 136.448  0.00  0.00    +0.000 A 
ATOM     10  C   UNL     1     112.178 125.932 136.337  0.00  0.00    +0.000 A 
ATOM     11  C   UNL     1     110.487 126.163 136.384  0.00  0.00    +0.000 A 
ATOM     12  C   UNL     1     111.655 125.256 136.248  0.00  0.00    +0.000 A 
ATOM     13  C   UNL     1     110.805 125.371 136.272  0.00  0.00    +0.000 A 
ENDROOT
BRANCH   6  15
ATOM     14  O   UNL     1     114.067 130.699 136.974  0.00  0.00    +0.000 OA
ATOM     15  C   UNL     1     112.546 128.763 136.724  0.00  0.00    +0.000 A 
ATOM     16  C   UNL     1     112.723 129.236 136.071  0.00  0.00    +0.000 A 
ATOM     17  C   UNL     1     112.876 128.936 137.459  0.00  0.00    +0.000 A 
ATOM     18  C   UNL     1     113.230 129.881 136.154  0.00  0.00    +0.000 A 
ATOM     19  C   UNL     1     113.383 129.581 137.543  0.00  0.00    +0.000 A 
ATOM     20  C   UNL     1     113.560 130.054 136.891  0.00  0.00    +0.000 A 
ENDBRANCH   6  15
BRANCH   5  21
ATOM     21  O   UNL     1     110.911 128.986 136.770  0.00  0.00    +0.000 OA
BRANCH  21  28
ATOM     22  O   UNL     1     110.527 128.790 138.132  0.00  0.00    +0.000 OA
ATOM     23  O   UNL     1     108.571 130.268 137.792  0.00  0.00    +0.000 OA
ATOM     24  O   UNL     1     108.838 129.580 139.268  0.00  0.00    +0.000 OA
ATOM     25  C   UNL     1     109.741 129.627 137.281  0.00  0.00    +0.000 C 
ATOM     26  C   UNL     1     109.223 129.776 137.906  0.00  0.00    +0.000 C 
ATOM     27  C   UNL     1     109.356 129.432 138.643  0.00  0.00    +0.000 C 
ATOM     28  C   UNL     1     110.393 129.134 137.395  0.00  0.00    +0.000 C 
ATOM     29  C   UNL     1     110.008 128.939 138.756  0.00  0.00    +0.000 C 
ATOM     30  C   UNL     1     110.142 128.594 139.494  0.00  0.00    +0.000 C 
BRANCH  25  31
ATOM     31  O   UNL     1     109.608 129.971 136.543  0.00  0.00    +0.000 OA
BRANCH  31  36
ATOM     32  O   UNL     1     110.204 131.199 136.967  0.00  0.00    +0.000 OA
ATOM     33  O   UNL     1     108.897 130.754 135.276  0.00  0.00    +0.000 OA
ATOM     34  O   UNL     1     109.138 132.372 135.066  0.00  0.00    +0.000 OA
ATOM     35  O   UNL     1     110.089 133.209 136.124  0.00  0.00    +0.000 OA
ATOM     36  C   UNL     1     109.728 130.781 136.438  0.00  0.00    +0.000 C 
ATOM     37  C   UNL     1     109.373 131.172 135.805  0.00  0.00    +0.000 C 
ATOM     38  C   UNL     1     109.493 131.982 135.700  0.00  0.00    +0.000 C 
ATOM     39  C   UNL     1     109.969 132.400 136.228  0.00  0.00    +0.000 C 
ATOM     40  C   UNL     1     110.325 132.009 136.862  0.00  0.00    +0.000 C 
ATOM     41  C   UNL     1     110.800 132.427 137.391  0.00  0.00    +0.000 C 
ENDBRANCH  31  36
ENDBRANCH  25  31
ENDBRANCH  21  28
ENDBRANCH   5  21
BRANCH  10  42
ATOM     42  C   UNL     1     112.996 125.830 136.315  0.00  0.00    +0.000 C 
BRANCH  42  43
ATOM     43  C   UNL     1     113.380 125.437 136.930  0.00  0.00    +0.000 C 
ATOM     44  C   UNL     1     114.201 125.356 136.920  0.00  0.00    +0.000 C 
ATOM     45  C   UNL     1     114.584 124.963 137.536  0.00  0.00    +0.000 C 
ATOM     46  C   UNL     1     114.639 125.669 136.295  0.00  0.00    +0.000 C 
ENDBRANCH  42  43
ENDBRANCH  10  42
TORSDOF 7
ENDMDL
MODEL 3
REMARK VINA RESULT:     -10.2      2.183      2.824
REMARK  Name = 44258786
REMARK  7 active torsions:
REMARK  status: ('A' for Active; 'I' for Inactive)
REMARK    1  A    between atoms: O_1  and  C_15
REMARK    2  A    between atoms: O_1  and  C_18
REMARK    3  A    between atoms: O_4  and  C_20
REMARK    4  A    between atoms: O_4  and  C_27
REMARK    5  A    between atoms: C_28  and  C_32
REMARK    6  A    between atoms: C_33  and  C_36
REMARK    7  A    between atoms: C_36  and  C_42
REMARK                            x       y       z     vdW  Elec       q    Type
REMARK                         _______ _______ _______ _____ _____    ______ ____
ROOT
ATOM      1  O   UNL     1     112.274 126.070 138.215  0.00  0.00    +0.000 OA
ATOM      2  O   UNL     1     109.943 126.831 137.882  0.00  0.00    +0.000 OA
ATOM      3  O   UNL     1     109.832 126.053 136.673  0.00  0.00    +0.000 OA
ATOM      4  O   UNL     1     112.123 124.475 135.783  0.00  0.00    +0.000 OA
ATOM      5  C   UNL     1     111.151 126.840 138.646  0.00  0.00    +0.000 A 
ATOM      6  C   UNL     1     111.927 126.587 138.757  0.00  0.00    +0.000 A 
ATOM      7  C   UNL     1     110.720 126.577 137.993  0.00  0.00    +0.000 A 
ATOM      8  C   UNL     1     111.067 126.061 137.451  0.00  0.00    +0.000 A 
ATOM      9  C   UNL     1     111.845 125.807 137.562  0.00  0.00    +0.000 A 
ATOM     10  C   UNL     1     112.217 125.269 137.005  0.00  0.00    +0.000 A 
ATOM     11  C   UNL     1     110.609 125.794 136.776  0.00  0.00    +0.000 A 
ATOM     12  C   UNL     1     111.773 124.992 136.323  0.00  0.00    +0.000 A 
ATOM     13  C   UNL     1     110.964 125.256 136.207  0.00  0.00    +0.000 A 
ENDROOT
BRANCH   6  15
ATOM     14  O   UNL     1     113.650 127.635 141.369  0.00  0.00    +0.000 OA
ATOM     15  C   UNL     1     112.358 126.849 139.410  0.00  0.00    +0.000 A 
ATOM     16  C   UNL     1     112.266 126.478 140.141  0.00  0.00    +0.000 A 
ATOM     17  C   UNL     1     112.881 127.482 139.332  0.00  0.00    +0.000 A 
ATOM     18  C   UNL     1     112.696 126.740 140.794  0.00  0.00    +0.000 A 
ATOM     19  C   UNL     1     113.312 127.745 139.985  0.00  0.00    +0.000 A 
ATOM     20  C   UNL     1     113.220 127.373 140.716  0.00  0.00    +0.000 A 
ENDBRANCH   6  15
BRANCH   5  21
ATOM     21  O   UNL     1     110.804 127.357 139.188  0.00  0.00    +0.000 OA
BRANCH  21  28
ATOM     22  O   UNL     1     110.915 128.527 138.375  0.00  0.00    +0.000 OA
ATOM     23  O   UNL     1     108.766 129.358 139.279  0.00  0.00    +0.000 OA
ATOM     24  O   UNL     1     109.593 130.251 138.165  0.00  0.00    +0.000 OA
ATOM     25  C   UNL     1     109.785 128.358 139.233  0.00  0.00    +0.000 C 
ATOM     26  C   UNL     1     109.482 129.081 138.978  0.00  0.00    +0.000 C 
ATOM     27  C   UNL     1     109.895 129.527 138.421  0.00  0.00    +0.000 C 
ATOM     28  C   UNL     1     110.501 128.081 138.932  0.00  0.00    +0.000 C 
ATOM     29  C   UNL     1     110.612 129.250 138.120  0.00  0.00    +0.000 C 
ATOM     30  C   UNL     1     111.025 129.697 137.562  0.00  0.00    +0.000 C 
BRANCH  25  31
ATOM     31  O   UNL     1     109.372 127.911 139.791  0.00  0.00    +0.000 OA
BRANCH  31  36
ATOM     32  O   UNL     1     109.920 128.711 140.840  0.00  0.00    +0.000 OA
ATOM     33  O   UNL     1     108.460 127.089 140.893  0.00  0.00    +0.000 OA
ATOM     34  O   UNL     1     108.552 127.478 142.494  0.00  0.00    +0.000 OA
ATOM     35  O   UNL     1     109.556 128.689 142.992  0.00  0.00    +0.000 OA
ATOM     36  C   UNL     1     109.418 128.105 140.591  0.00  0.00    +0.000 C 
ATOM     37  C   UNL     1     108.962 127.695 141.143  0.00  0.00    +0.000 C 
ATOM     38  C   UNL     1     109.009 127.889 141.943  0.00  0.00    +0.000 C 
ATOM     39  C   UNL     1     109.510 128.494 142.192  0.00  0.00    +0.000 C 
ATOM     40  C   UNL     1     109.966 128.906 141.641  0.00  0.00    +0.000 C 
ATOM     41  C   UNL     1     110.468 129.511 141.890  0.00  0.00    +0.000 C 
ENDBRANCH  31  36
ENDBRANCH  25  31
ENDBRANCH  21  28
ENDBRANCH   5  21
BRANCH  10  42
ATOM     42  C   UNL     1     112.994 125.021 137.124  0.00  0.00    +0.000 C 
BRANCH  42  43
ATOM     43  C   UNL     1     113.590 125.271 136.612  0.00  0.00    +0.000 C 
ATOM     44  C   UNL     1     114.375 125.067 136.761  0.00  0.00    +0.000 C 
ATOM     45  C   UNL     1     114.972 125.317 136.249  0.00  0.00    +0.000 C 
ATOM     46  C   UNL     1     114.565 124.614 137.425  0.00  0.00    +0.000 C 
ENDBRANCH  42  43
ENDBRANCH  10  42
TORSDOF 7
ENDMDL
MODEL 4
REMARK VINA RESULT:     -10.1      2.014      3.441
REMARK  Name = 44258786
REMARK  7 active torsions:
REMARK  status: ('A' for Active; 'I' for Inactive)
REMARK    1  A    between atoms: O_1  and  C_15
REMARK    2  A    between atoms: O_1  and  C_18
REMARK    3  A    between atoms: O_4  and  C_20
REMARK    4  A    between atoms: O_4  and  C_27
REMARK    5  A    between atoms: C_28  and  C_32
REMARK    6  A    between atoms: C_33  and  C_36
REMARK    7  A    between atoms: C_36  and  C_42
REMARK                            x       y       z     vdW  Elec       q    Type
REMARK                         _______ _______ _______ _____ _____    ______ ____
ROOT
ATOM      1  O   UNL     1     111.985 126.632 137.715  0.00  0.00    +0.000 OA
ATOM      2  O   UNL     1     111.719 128.986 137.001  0.00  0.00    +0.000 OA
ATOM      3  O   UNL     1     111.252 128.570 135.701  0.00  0.00    +0.000 OA
ATOM      4  O   UNL     1     111.050 125.716 135.113  0.00  0.00    +0.000 OA
ATOM      5  C   UNL     1     112.082 128.029 137.997  0.00  0.00    +0.000 A 
ATOM      6  C   UNL     1     112.170 127.245 138.235  0.00  0.00    +0.000 A 
ATOM      7  C   UNL     1     111.807 128.202 137.239  0.00  0.00    +0.000 A 
ATOM      8  C   UNL     1     111.622 127.589 136.718  0.00  0.00    +0.000 A 
ATOM      9  C   UNL     1     111.711 126.804 136.956  0.00  0.00    +0.000 A 
ATOM     10  C   UNL     1     111.521 126.157 136.423  0.00  0.00    +0.000 A 
ATOM     11  C   UNL     1     111.337 127.782 135.931  0.00  0.00    +0.000 A 
ATOM     12  C   UNL     1     111.235 126.331 135.632  0.00  0.00    +0.000 A 
ATOM     13  C   UNL     1     111.142 127.148 135.383  0.00  0.00    +0.000 A 
ENDROOT
BRANCH   6  15
ATOM     14  O   UNL     1     113.270 126.552 141.269  0.00  0.00    +0.000 OA
ATOM     15  C   UNL     1     112.445 127.071 138.994  0.00  0.00    +0.000 A 
ATOM     16  C   UNL     1     113.256 127.052 139.145  0.00  0.00    +0.000 A 
ATOM     17  C   UNL     1     111.909 126.918 139.602  0.00  0.00    +0.000 A 
ATOM     18  C   UNL     1     113.531 126.879 139.903  0.00  0.00    +0.000 A 
ATOM     19  C   UNL     1     112.183 126.745 140.361  0.00  0.00    +0.000 A 
ATOM     20  C   UNL     1     112.994 126.725 140.511  0.00  0.00    +0.000 A 
ENDBRANCH   6  15
BRANCH   5  21
ATOM     21  O   UNL     1     112.267 128.641 138.518  0.00  0.00    +0.000 OA
BRANCH  21  28
ATOM     22  O   UNL     1     110.910 128.996 138.791  0.00  0.00    +0.000 OA
ATOM     23  O   UNL     1     111.585 131.361 139.068  0.00  0.00    +0.000 OA
ATOM     24  O   UNL     1     110.003 130.928 139.249  0.00  0.00    +0.000 OA
ATOM     25  C   UNL     1     111.926 130.002 138.793  0.00  0.00    +0.000 C 
ATOM     26  C   UNL     1     111.360 130.573 138.976  0.00  0.00    +0.000 C 
ATOM     27  C   UNL     1     110.570 130.357 139.066  0.00  0.00    +0.000 C 
ATOM     28  C   UNL     1     111.701 129.214 138.701  0.00  0.00    +0.000 C 
ATOM     29  C   UNL     1     110.345 129.569 138.974  0.00  0.00    +0.000 C 
ATOM     30  C   UNL     1     109.553 129.352 139.064  0.00  0.00    +0.000 C 
BRANCH  25  31
ATOM     31  O   UNL     1     112.717 130.218 138.703  0.00  0.00    +0.000 OA
BRANCH  31  36
ATOM     32  O   UNL     1     112.876 130.228 140.124  0.00  0.00    +0.000 OA
ATOM     33  O   UNL     1     114.311 130.605 138.522  0.00  0.00    +0.000 OA
ATOM     34  O   UNL     1     115.266 130.809 139.851  0.00  0.00    +0.000 OA
ATOM     35  O   UNL     1     114.628 130.625 141.362  0.00  0.00    +0.000 OA
ATOM     36  C   UNL     1     113.195 130.320 139.368  0.00  0.00    +0.000 C 
ATOM     37  C   UNL     1     113.992 130.513 139.278  0.00  0.00    +0.000 C 
ATOM     38  C   UNL     1     114.469 130.615 139.943  0.00  0.00    +0.000 C 
ATOM     39  C   UNL     1     114.150 130.524 140.697  0.00  0.00    +0.000 C 
ATOM     40  C   UNL     1     113.353 130.330 140.788  0.00  0.00    +0.000 C 
ATOM     41  C   UNL     1     113.034 130.238 141.543  0.00  0.00    +0.000 C 
ENDBRANCH  31  36
ENDBRANCH  25  31
ENDBRANCH  21  28
ENDBRANCH   5  21
BRANCH  10  42
ATOM     42  C   UNL     1     111.612 125.376 136.670  0.00  0.00    +0.000 C 
BRANCH  42  43
ATOM     43  C   UNL     1     112.276 124.945 136.437  0.00  0.00    +0.000 C 
ATOM     44  C   UNL     1     112.391 124.179 136.720  0.00  0.00    +0.000 C 
ATOM     45  C   UNL     1     113.055 123.748 136.488  0.00  0.00    +0.000 C 
ATOM     46  C   UNL     1     111.842 123.843 137.237  0.00  0.00    +0.000 C 
ENDBRANCH  42  43
ENDBRANCH  10  42
TORSDOF 7
ENDMDL
MODEL 5
REMARK VINA RESULT:     -10.1      2.109      2.995
REMARK  Name = 44258786
REMARK  7 active torsions:
REMARK  status: ('A' for Active; 'I' for Inactive)
REMARK    1  A    between atoms: O_1  and  C_15
REMARK    2  A    between atoms: O_1  and  C_18
REMARK    3  A    between atoms: O_4  and  C_20
REMARK    4  A    between atoms: O_4  and  C_27
REMARK    5  A    between atoms: C_28  and  C_32
REMARK    6  A    between atoms: C_33  and  C_36
REMARK    7  A    between atoms: C_36  and  C_42
REMARK                            x       y       z     vdW  Elec       q    Type
REMARK                         _______ _______ _______ _____ _____    ______ ____
ROOT
ATOM      1  O   UNL     1     112.490 126.340 138.336  0.00  0.00    +0.000 OA
ATOM      2  O   UNL     1     110.118 127.030 138.186  0.00  0.00    +0.000 OA
ATOM      3  O   UNL     1     109.871 126.060 137.148  0.00  0.00    +0.000 OA
ATOM      4  O   UNL     1     112.066 124.360 136.243  0.00  0.00    +0.000 OA
ATOM      5  C   UNL     1     111.413 127.169 138.775  0.00  0.00    +0.000 A 
ATOM      6  C   UNL     1     112.203 126.939 138.825  0.00  0.00    +0.000 A 
ATOM      7  C   UNL     1     110.908 126.800 138.236  0.00  0.00    +0.000 A 
ATOM      8  C   UNL     1     111.195 126.200 137.747  0.00  0.00    +0.000 A 
ATOM      9  C   UNL     1     111.986 125.970 137.797  0.00  0.00    +0.000 A 
ATOM     10  C   UNL     1     112.297 125.347 137.293  0.00  0.00    +0.000 A 
ATOM     11  C   UNL     1     110.661 125.823 137.191  0.00  0.00    +0.000 A 
ATOM     12  C   UNL     1     111.777 124.959 136.731  0.00  0.00    +0.000 A 
ATOM     13  C   UNL     1     110.953 125.198 136.678  0.00  0.00    +0.000 A 
ENDROOT
BRANCH   6  15
ATOM     14  O   UNL     1     114.221 128.418 140.977  0.00  0.00    +0.000 OA
ATOM     15  C   UNL     1     112.707 127.309 139.363  0.00  0.00    +0.000 A 
ATOM     16  C   UNL     1     113.048 128.036 139.176  0.00  0.00    +0.000 A 
ATOM     17  C   UNL     1     112.871 126.951 140.088  0.00  0.00    +0.000 A 
ATOM     18  C   UNL     1     113.553 128.406 139.714  0.00  0.00    +0.000 A 
ATOM     19  C   UNL     1     113.375 127.320 140.627  0.00  0.00    +0.000 A 
ATOM     20  C   UNL     1     113.716 128.048 140.439  0.00  0.00    +0.000 A 
ENDBRANCH   6  15
BRANCH   5  21
ATOM     21  O   UNL     1     111.126 127.769 139.264  0.00  0.00    +0.000 OA
BRANCH  21  28
ATOM     22  O   UNL     1     110.417 126.900 140.150  0.00  0.00    +0.000 OA
ATOM     23  O   UNL     1     108.684 128.639 140.468  0.00  0.00    +0.000 OA
ATOM     24  O   UNL     1     108.553 127.191 141.248  0.00  0.00    +0.000 OA
ATOM     25  C   UNL     1     109.904 128.204 139.866  0.00  0.00    +0.000 C 
ATOM     26  C   UNL     1     109.262 128.059 140.362  0.00  0.00    +0.000 C 
ATOM     27  C   UNL     1     109.196 127.336 140.751  0.00  0.00    +0.000 C 
ATOM     28  C   UNL     1     110.482 127.624 139.760  0.00  0.00    +0.000 C 
ATOM     29  C   UNL     1     109.773 126.756 140.645  0.00  0.00    +0.000 C 
ATOM     30  C   UNL     1     109.708 126.032 141.036  0.00  0.00    +0.000 C 
BRANCH  25  31
ATOM     31  O   UNL     1     109.971 128.928 139.476  0.00  0.00    +0.000 OA
BRANCH  31  36
ATOM     32  O   UNL     1     110.488 129.530 140.665  0.00  0.00    +0.000 OA
ATOM     33  O   UNL     1     109.877 130.413 138.764  0.00  0.00    +0.000 OA
ATOM     34  O   UNL     1     110.346 131.758 139.596  0.00  0.00    +0.000 OA
ATOM     35  O   UNL     1     110.910 131.618 141.141  0.00  0.00    +0.000 OA
ATOM     36  C   UNL     1     110.205 129.600 139.892  0.00  0.00    +0.000 C 
ATOM     37  C   UNL     1     110.159 130.343 139.536  0.00  0.00    +0.000 C 
ATOM     38  C   UNL     1     110.394 131.016 139.953  0.00  0.00    +0.000 C 
ATOM     39  C   UNL     1     110.675 130.945 140.724  0.00  0.00    +0.000 C 
ATOM     40  C   UNL     1     110.722 130.202 141.081  0.00  0.00    +0.000 C 
ATOM     41  C   UNL     1     111.004 130.132 141.852  0.00  0.00    +0.000 C 
ENDBRANCH  31  36
ENDBRANCH  25  31
ENDBRANCH  21  28
ENDBRANCH   5  21
BRANCH  10  42
ATOM     42  C   UNL     1     113.089 125.124 137.350  0.00  0.00    +0.000 C 
BRANCH  42  43
ATOM     43  C   UNL     1     113.617 125.318 136.747  0.00  0.00    +0.000 C 
ATOM     44  C   UNL     1     114.416 125.130 136.822  0.00  0.00    +0.000 C 
ATOM     45  C   UNL     1     114.944 125.325 136.218  0.00  0.00    +0.000 C 
ATOM     46  C   UNL     1     114.688 124.748 137.500  0.00  0.00    +0.000 C 
ENDBRANCH  42  43
ENDBRANCH  10  42
TORSDOF 7
ENDMDL
MODEL 6
REMARK VINA RESULT:     -10.1      6.805      9.897
REMARK  Name = 44258786
REMARK  7 active torsions:
REMARK  status: ('A' for Active; 'I' for Inactive)
REMARK    1  A    between atoms: O_1  and  C_15
REMARK    2  A    between atoms: O_1  and  C_18
REMARK    3  A    between atoms: O_4  and  C_20
REMARK    4  A    between atoms: O_4  and  C_27
REMARK    5  A    between atoms: C_28  and  C_32
REMARK    6  A    between atoms: C_33  and  C_36
REMARK    7  A    between atoms: C_36  and  C_42
REMARK                            x       y       z     vdW  Elec       q    Type
REMARK                         _______ _______ _______ _____ _____    ______ ____
ROOT
ATOM      1  O   UNL     1     103.877 129.984 142.583  0.00  0.00    +0.000 OA
ATOM      2  O   UNL     1     104.770 127.719 142.140  0.00  0.00    +0.000 OA
ATOM      3  O   UNL     1     104.099 127.672 140.864  0.00  0.00    +0.000 OA
ATOM      4  O   UNL     1     102.493 129.961 140.020  0.00  0.00    +0.000 OA
ATOM      5  C   UNL     1     104.660 128.862 142.991  0.00  0.00    +0.000 A 
ATOM      6  C   UNL     1     104.363 129.616 143.139  0.00  0.00    +0.000 A 
ATOM      7  C   UNL     1     104.472 128.474 142.288  0.00  0.00    +0.000 A 
ATOM      8  C   UNL     1     103.986 128.841 141.732  0.00  0.00    +0.000 A 
ATOM      9  C   UNL     1     103.688 129.597 141.879  0.00  0.00    +0.000 A 
ATOM     10  C   UNL     1     103.180 129.990 141.308  0.00  0.00    +0.000 A 
ATOM     11  C   UNL     1     103.796 128.427 141.004  0.00  0.00    +0.000 A 
ATOM     12  C   UNL     1     102.980 129.591 140.574  0.00  0.00    +0.000 A 
ATOM     13  C   UNL     1     103.290 128.805 140.420  0.00  0.00    +0.000 A 
ENDROOT
BRANCH   6  15
ATOM     14  O   UNL     1     105.114 131.168 145.953  0.00  0.00    +0.000 OA
ATOM     15  C   UNL     1     104.551 130.005 143.842  0.00  0.00    +0.000 A 
ATOM     16  C   UNL     1     104.119 129.849 144.527  0.00  0.00    +0.000 A 
ATOM     17  C   UNL     1     105.171 130.548 143.861  0.00  0.00    +0.000 A 
ATOM     18  C   UNL     1     104.306 130.236 145.231  0.00  0.00    +0.000 A 
ATOM     19  C   UNL     1     105.359 130.936 144.564  0.00  0.00    +0.000 A 
ATOM     20  C   UNL     1     104.927 130.780 145.249  0.00  0.00    +0.000 A 
ENDBRANCH   6  15
BRANCH   5  21
ATOM     21  O   UNL     1     105.147 128.494 143.547  0.00  0.00    +0.000 OA
BRANCH  21  28
ATOM     22  O   UNL     1     106.371 128.728 142.847  0.00  0.00    +0.000 OA
ATOM     23  O   UNL     1     107.252 126.566 143.669  0.00  0.00    +0.000 OA
ATOM     24  O   UNL     1     108.182 127.519 142.695  0.00  0.00    +0.000 OA
ATOM     25  C   UNL     1     106.200 127.530 143.608  0.00  0.00    +0.000 C 
ATOM     26  C   UNL     1     106.959 127.286 143.395  0.00  0.00    +0.000 C 
ATOM     27  C   UNL     1     107.423 127.763 142.908  0.00  0.00    +0.000 C 
ATOM     28  C   UNL     1     105.906 128.250 143.334  0.00  0.00    +0.000 C 
ATOM     29  C   UNL     1     107.130 128.483 142.635  0.00  0.00    +0.000 C 
ATOM     30  C   UNL     1     107.595 128.961 142.147  0.00  0.00    +0.000 C 
BRANCH  25  31
ATOM     31  O   UNL     1     105.735 127.053 144.094  0.00  0.00    +0.000 OA
BRANCH  31  36
ATOM     32  O   UNL     1     106.421 127.553 145.245  0.00  0.00    +0.000 OA
ATOM     33  O   UNL     1     104.921 125.978 145.046  0.00  0.00    +0.000 OA
ATOM     34  O   UNL     1     105.200 125.940 146.672  0.00  0.00    +0.000 OA
ATOM     35  O   UNL     1     106.292 126.977 147.346  0.00  0.00    +0.000 OA
ATOM     36  C   UNL     1     105.874 127.034 144.907  0.00  0.00    +0.000 C 
ATOM     37  C   UNL     1     105.468 126.497 145.384  0.00  0.00    +0.000 C 
ATOM     38  C   UNL     1     105.607 126.478 146.197  0.00  0.00    +0.000 C 
ATOM     39  C   UNL     1     106.153 126.996 146.533  0.00  0.00    +0.000 C 
ATOM     40  C   UNL     1     106.560 127.534 146.058  0.00  0.00    +0.000 C 
ATOM     41  C   UNL     1     107.106 128.052 146.395  0.00  0.00    +0.000 C 
ENDBRANCH  31  36
ENDBRANCH  25  31
ENDBRANCH  21  28
ENDBRANCH   5  21
BRANCH  10  42
ATOM     42  C   UNL     1     102.887 130.745 141.464  0.00  0.00    +0.000 C 
BRANCH  42  43
ATOM     43  C   UNL     1     102.086 130.850 141.630  0.00  0.00    +0.000 C 
ATOM     44  C   UNL     1     101.799 131.600 141.820  0.00  0.00    +0.000 C 
ATOM     45  C   UNL     1     100.998 131.706 141.986  0.00  0.00    +0.000 C 
ATOM     46  C   UNL     1     102.313 132.245 141.844  0.00  0.00    +0.000 C 
ENDBRANCH  42  43
ENDBRANCH  10  42
TORSDOF 7
ENDMDL
MODEL 7
REMARK VINA RESULT:     -10.0      1.755      5.606
REMARK  Name = 44258786
REMARK  7 active torsions:
REMARK  status: ('A' for Active; 'I' for Inactive)
REMARK    1  A    between atoms: O_1  and  C_15
REMARK    2  A    between atoms: O_1  and  C_18
REMARK    3  A    between atoms: O_4  and  C_20
REMARK    4  A    between atoms: O_4  and  C_27
REMARK    5  A    between atoms: C_28  and  C_32
REMARK    6  A    between atoms: C_33  and  C_36
REMARK    7  A    between atoms: C_36  and  C_42
REMARK                            x       y       z     vdW  Elec       q    Type
REMARK                         _______ _______ _______ _____ _____    ______ ____
ROOT
ATOM      1  O   UNL     1     109.922 130.238 136.491  0.00  0.00    +0.000 OA
ATOM      2  O   UNL     1     112.216 130.046 137.400  0.00  0.00    +0.000 OA
ATOM      3  O   UNL     1     112.270 131.467 137.640  0.00  0.00    +0.000 OA
ATOM      4  O   UNL     1     109.961 133.114 136.946  0.00  0.00    +0.000 OA
ATOM      5  C   UNL     1     111.055 129.437 136.832  0.00  0.00    +0.000 A 
ATOM      6  C   UNL     1     110.291 129.500 136.529  0.00  0.00    +0.000 A 
ATOM      7  C   UNL     1     111.452 130.110 137.097  0.00  0.00    +0.000 A 
ATOM      8  C   UNL     1     111.083 130.847 137.059  0.00  0.00    +0.000 A 
ATOM      9  C   UNL     1     110.318 130.911 136.756  0.00  0.00    +0.000 A 
ATOM     10  C   UNL     1     109.924 131.673 136.711  0.00  0.00    +0.000 A 
ATOM     11  C   UNL     1     111.506 131.540 137.338  0.00  0.00    +0.000 A 
ATOM     12  C   UNL     1     110.331 132.378 136.985  0.00  0.00    +0.000 A 
ATOM     13  C   UNL     1     111.127 132.312 137.301  0.00  0.00    +0.000 A 
ENDROOT
BRANCH   6  15
ATOM     14  O   UNL     1     108.703 126.808 135.470  0.00  0.00    +0.000 OA
ATOM     15  C   UNL     1     109.894 128.827 136.263  0.00  0.00    +0.000 A 
ATOM     16  C   UNL     1     109.469 128.363 136.796  0.00  0.00    +0.000 A 
ATOM     17  C   UNL     1     109.922 128.619 135.466  0.00  0.00    +0.000 A 
ATOM     18  C   UNL     1     109.071 127.690 136.532  0.00  0.00    +0.000 A 
ATOM     19  C   UNL     1     109.525 127.946 135.201  0.00  0.00    +0.000 A 
ATOM     20  C   UNL     1     109.100 127.481 135.734  0.00  0.00    +0.000 A 
ENDBRANCH   6  15
BRANCH   5  21
ATOM     21  O   UNL     1     111.423 128.700 136.870  0.00  0.00    +0.000 OA
BRANCH  21  28
ATOM     22  O   UNL     1     112.327 128.945 135.791  0.00  0.00    +0.000 OA
ATOM     23  O   UNL     1     114.034 127.538 136.901  0.00  0.00    +0.000 OA
ATOM     24  O   UNL     1     114.369 128.252 135.452  0.00  0.00    +0.000 OA
ATOM     25  C   UNL     1     112.729 128.119 136.885  0.00  0.00    +0.000 C 
ATOM     26  C   UNL     1     113.465 128.007 136.531  0.00  0.00    +0.000 C 
ATOM     27  C   UNL     1     113.633 128.364 135.807  0.00  0.00    +0.000 C 
ATOM     28  C   UNL     1     112.160 128.587 136.515  0.00  0.00    +0.000 C 
ATOM     29  C   UNL     1     113.064 128.832 135.437  0.00  0.00    +0.000 C 
ATOM     30  C   UNL     1     113.231 129.190 134.712  0.00  0.00    +0.000 C 
BRANCH  25  31
ATOM     31  O   UNL     1     112.561 127.762 137.610  0.00  0.00    +0.000 OA
BRANCH  31  36
ATOM     32  O   UNL     1     112.294 126.528 136.939  0.00  0.00    +0.000 OA
ATOM     33  O   UNL     1     112.195 127.055 139.056  0.00  0.00    +0.000 OA
ATOM     34  O   UNL     1     111.744 125.469 139.108  0.00  0.00    +0.000 OA
ATOM     35  O   UNL     1     111.660 124.589 137.715  0.00  0.00    +0.000 OA
ATOM     36  C   UNL     1     112.336 126.969 137.636  0.00  0.00    +0.000 C 
ATOM     37  C   UNL     1     112.153 126.615 138.359  0.00  0.00    +0.000 C 
ATOM     38  C   UNL     1     111.927 125.822 138.385  0.00  0.00    +0.000 C 
ATOM     39  C   UNL     1     111.885 125.382 137.689  0.00  0.00    +0.000 C 
ATOM     40  C   UNL     1     112.068 125.735 136.966  0.00  0.00    +0.000 C 
ATOM     41  C   UNL     1     112.026 125.295 136.269  0.00  0.00    +0.000 C 
ENDBRANCH  31  36
ENDBRANCH  25  31
ENDBRANCH  21  28
ENDBRANCH   5  21
BRANCH  10  42
ATOM     42  C   UNL     1     109.159 131.728 136.406  0.00  0.00    +0.000 C 
BRANCH  42  43
ATOM     43  C   UNL     1     109.030 132.094 135.678  0.00  0.00    +0.000 C 
ATOM     44  C   UNL     1     108.278 132.087 135.340  0.00  0.00    +0.000 C 
ATOM     45  C   UNL     1     108.149 132.453 134.612  0.00  0.00    +0.000 C 
ATOM     46  C   UNL     1     107.654 131.713 135.731  0.00  0.00    +0.000 C 
ENDBRANCH  42  43
ENDBRANCH  10  42
TORSDOF 7
ENDMDL
MODEL 8
REMARK VINA RESULT:     -10.0      1.763      5.780
REMARK  Name = 44258786
REMARK  7 active torsions:
REMARK  status: ('A' for Active; 'I' for Inactive)
REMARK    1  A    between atoms: O_1  and  C_15
REMARK    2  A    between atoms: O_1  and  C_18
REMARK    3  A    between atoms: O_4  and  C_20
REMARK    4  A    between atoms: O_4  and  C_27
REMARK    5  A    between atoms: C_28  and  C_32
REMARK    6  A    between atoms: C_33  and  C_36
REMARK    7  A    between atoms: C_36  and  C_42
REMARK                            x       y       z     vdW  Elec       q    Type
REMARK                         _______ _______ _______ _____ _____    ______ ____
ROOT
ATOM      1  O   UNL     1     110.657 129.204 136.219  0.00  0.00    +0.000 OA
ATOM      2  O   UNL     1     112.233 128.758 138.074  0.00  0.00    +0.000 OA
ATOM      3  O   UNL     1     112.331 130.167 138.368  0.00  0.00    +0.000 OA
ATOM      4  O   UNL     1     110.805 132.063 136.754  0.00  0.00    +0.000 OA
ATOM      5  C   UNL     1     111.406 128.281 137.011  0.00  0.00    +0.000 A 
ATOM      6  C   UNL     1     110.881 128.429 136.393  0.00  0.00    +0.000 A 
ATOM      7  C   UNL     1     111.708 128.907 137.456  0.00  0.00    +0.000 A 
ATOM      8  C   UNL     1     111.485 129.682 137.281  0.00  0.00    +0.000 A 
ATOM      9  C   UNL     1     110.959 129.830 136.662  0.00  0.00    +0.000 A 
ATOM     10  C   UNL     1     110.719 130.633 136.471  0.00  0.00    +0.000 A 
ATOM     11  C   UNL     1     111.806 130.325 137.751  0.00  0.00    +0.000 A 
ATOM     12  C   UNL     1     111.030 131.289 136.930  0.00  0.00    +0.000 A 
ATOM     13  C   UNL     1     111.577 131.135 137.574  0.00  0.00    +0.000 A 
ENDROOT
BRANCH   6  15
ATOM     14  O   UNL     1     109.674 125.926 134.613  0.00  0.00    +0.000 OA
ATOM     15  C   UNL     1     110.578 127.803 135.948  0.00  0.00    +0.000 A 
ATOM     16  C   UNL     1     111.013 127.499 135.317  0.00  0.00    +0.000 A 
ATOM     17  C   UNL     1     109.842 127.482 136.134  0.00  0.00    +0.000 A 
ATOM     18  C   UNL     1     110.712 126.873 134.871  0.00  0.00    +0.000 A 
ATOM     19  C   UNL     1     109.540 126.856 135.689  0.00  0.00    +0.000 A 
ATOM     20  C   UNL     1     109.975 126.552 135.058  0.00  0.00    +0.000 A 
ENDBRANCH   6  15
BRANCH   5  21
ATOM     21  O   UNL     1     111.629 127.506 137.185  0.00  0.00    +0.000 OA
BRANCH  21  28
ATOM     22  O   UNL     1     110.818 127.377 138.354  0.00  0.00    +0.000 OA
ATOM     23  O   UNL     1     112.550 125.950 139.399  0.00  0.00    +0.000 OA
ATOM     24  O   UNL     1     111.161 126.296 140.220  0.00  0.00    +0.000 OA
ATOM     25  C   UNL     1     112.089 126.728 138.292  0.00  0.00    +0.000 C 
ATOM     26  C   UNL     1     111.972 126.426 139.051  0.00  0.00    +0.000 C 
ATOM     27  C   UNL     1     111.278 126.599 139.461  0.00  0.00    +0.000 C 
ATOM     28  C   UNL     1     111.512 127.203 137.944  0.00  0.00    +0.000 C 
ATOM     29  C   UNL     1     110.701 127.074 139.113  0.00  0.00    +0.000 C 
ATOM     30  C   UNL     1     110.006 127.247 139.523  0.00  0.00    +0.000 C 
BRANCH  25  31
ATOM     31  O   UNL     1     112.784 126.555 137.881  0.00  0.00    +0.000 OA
BRANCH  31  36
ATOM     32  O   UNL     1     112.248 125.282 137.514  0.00  0.00    +0.000 OA
ATOM     33  O   UNL     1     114.191 126.188 137.102  0.00  0.00    +0.000 OA
ATOM     34  O   UNL     1     114.359 124.732 136.344  0.00  0.00    +0.000 OA
ATOM     35  O   UNL     1     113.120 123.643 136.366  0.00  0.00    +0.000 OA
ATOM     36  C   UNL     1     112.868 125.827 137.503  0.00  0.00    +0.000 C 
ATOM     37  C   UNL     1     113.571 125.643 137.113  0.00  0.00    +0.000 C 
ATOM     38  C   UNL     1     113.655 124.915 136.734  0.00  0.00    +0.000 C 
ATOM     39  C   UNL     1     113.036 124.371 136.745  0.00  0.00    +0.000 C 
ATOM     40  C   UNL     1     112.332 124.554 137.135  0.00  0.00    +0.000 C 
ATOM     41  C   UNL     1     111.713 124.009 137.146  0.00  0.00    +0.000 C 
ENDBRANCH  31  36
ENDBRANCH  25  31
ENDBRANCH  21  28
ENDBRANCH   5  21
BRANCH  10  42
ATOM     42  C   UNL     1     110.193 130.772 135.851  0.00  0.00    +0.000 C 
BRANCH  42  43
ATOM     43  C   UNL     1     109.435 131.056 136.009  0.00  0.00    +0.000 C 
ATOM     44  C   UNL     1     108.903 131.178 135.390  0.00  0.00    +0.000 C 
ATOM     45  C   UNL     1     108.144 131.462 135.548  0.00  0.00    +0.000 C 
ATOM     46  C   UNL     1     109.129 131.014 134.613  0.00  0.00    +0.000 C 
ENDBRANCH  42  43
ENDBRANCH  10  42
TORSDOF 7
ENDMDL
MODEL 9
REMARK VINA RESULT:      -9.9      2.110      2.902
REMARK  Name = 44258786
REMARK  7 active torsions:
REMARK  status: ('A' for Active; 'I' for Inactive)
REMARK    1  A    between atoms: O_1  and  C_15
REMARK    2  A    between atoms: O_1  and  C_18
REMARK    3  A    between atoms: O_4  and  C_20
REMARK    4  A    between atoms: O_4  and  C_27
REMARK    5  A    between atoms: C_28  and  C_32
REMARK    6  A    between atoms: C_33  and  C_36
REMARK    7  A    between atoms: C_36  and  C_42
REMARK                            x       y       z     vdW  Elec       q    Type
REMARK                         _______ _______ _______ _____ _____    ______ ____
ROOT
ATOM      1  O   UNL     1     112.088 126.472 137.785  0.00  0.00    +0.000 OA
ATOM      2  O   UNL     1     110.593 128.436 137.611  0.00  0.00    +0.000 OA
ATOM      3  O   UNL     1     109.987 127.906 136.415  0.00  0.00    +0.000 OA
ATOM      4  O   UNL     1     110.912 125.338 135.374  0.00  0.00    +0.000 OA
ATOM      5  C   UNL     1     111.632 127.728 138.290  0.00  0.00    +0.000 A 
ATOM      6  C   UNL     1     112.130 127.074 138.348  0.00  0.00    +0.000 A 
ATOM      7  C   UNL     1     111.091 127.782 137.669  0.00  0.00    +0.000 A 
ATOM      8  C   UNL     1     111.049 127.180 137.106  0.00  0.00    +0.000 A 
ATOM      9  C   UNL     1     111.548 126.525 137.164  0.00  0.00    +0.000 A 
ATOM     10  C   UNL     1     111.513 125.892 136.584  0.00  0.00    +0.000 A 
ATOM     11  C   UNL     1     110.482 127.247 136.465  0.00  0.00    +0.000 A 
ATOM     12  C   UNL     1     110.952 125.942 135.935  0.00  0.00    +0.000 A 
ATOM     13  C   UNL     1     110.433 126.623 135.875  0.00  0.00    +0.000 A 
ENDROOT
BRANCH   6  15
ATOM     14  O   UNL     1     114.292 126.857 140.832  0.00  0.00    +0.000 OA
ATOM     15  C   UNL     1     112.671 127.020 138.969  0.00  0.00    +0.000 A 
ATOM     16  C   UNL     1     112.426 126.742 139.706  0.00  0.00    +0.000 A 
ATOM     17  C   UNL     1     113.456 127.243 138.853  0.00  0.00    +0.000 A 
ATOM     18  C   UNL     1     112.966 126.688 140.327  0.00  0.00    +0.000 A 
ATOM     19  C   UNL     1     113.997 127.190 139.474  0.00  0.00    +0.000 A 
ATOM     20  C   UNL     1     113.752 126.912 140.211  0.00  0.00    +0.000 A 
ENDBRANCH   6  15
BRANCH   5  21
ATOM     21  O   UNL     1     111.675 128.330 138.853  0.00  0.00    +0.000 OA
BRANCH  21  28
ATOM     22  O   UNL     1     112.350 129.254 137.998  0.00  0.00    +0.000 OA
ATOM     23  O   UNL     1     111.225 131.137 139.145  0.00  0.00    +0.000 OA
ATOM     24  O   UNL     1     112.275 131.434 137.907  0.00  0.00    +0.000 OA
ATOM     25  C   UNL     1     111.450 129.734 138.999  0.00  0.00    +0.000 C 
ATOM     26  C   UNL     1     111.600 130.509 138.762  0.00  0.00    +0.000 C 
ATOM     27  C   UNL     1     112.124 130.658 138.144  0.00  0.00    +0.000 C 
ATOM     28  C   UNL     1     111.825 129.106 138.616  0.00  0.00    +0.000 C 
ATOM     29  C   UNL     1     112.499 130.030 137.762  0.00  0.00    +0.000 C 
ATOM     30  C   UNL     1     113.025 130.179 137.143  0.00  0.00    +0.000 C 
BRANCH  25  31
ATOM     31  O   UNL     1     110.925 129.585 139.617  0.00  0.00    +0.000 OA
BRANCH  31  36
ATOM     32  O   UNL     1     111.944 129.919 140.562  0.00  0.00    +0.000 OA
ATOM     33  O   UNL     1     109.862 129.330 140.854  0.00  0.00    +0.000 OA
ATOM     34  O   UNL     1     110.350 129.537 142.417  0.00  0.00    +0.000 OA
ATOM     35  O   UNL     1     111.900 129.999 142.743  0.00  0.00    +0.000 OA
ATOM     36  C   UNL     1     111.169 129.688 140.399  0.00  0.00    +0.000 C 
ATOM     37  C   UNL     1     110.638 129.561 141.017  0.00  0.00    +0.000 C 
ATOM     38  C   UNL     1     110.882 129.665 141.799  0.00  0.00    +0.000 C 
ATOM     39  C   UNL     1     111.656 129.895 141.961  0.00  0.00    +0.000 C 
ATOM     40  C   UNL     1     112.188 130.023 141.343  0.00  0.00    +0.000 C 
ATOM     41  C   UNL     1     112.963 130.253 141.506  0.00  0.00    +0.000 C 
ENDBRANCH  31  36
ENDBRANCH  25  31
ENDBRANCH  21  28
ENDBRANCH   5  21
BRANCH  10  42
ATOM     42  C   UNL     1     112.015 125.241 136.650  0.00  0.00    +0.000 C 
BRANCH  42  43
ATOM     43  C   UNL     1     111.710 124.504 136.864  0.00  0.00    +0.000 C 
ATOM     44  C   UNL     1     112.216 123.859 136.956  0.00  0.00    +0.000 C 
ATOM     45  C   UNL     1     111.912 123.123 137.169  0.00  0.00    +0.000 C 
ATOM     46  C   UNL     1     113.028 123.950 136.834  0.00  0.00    +0.000 C 
ENDBRANCH  42  43
ENDBRANCH  10  42
TORSDOF 7
ENDMDL
MODEL 10
REMARK VINA RESULT:      -9.9      1.626      5.490
REMARK  Name = 44258786
REMARK  7 active torsions:
REMARK  status: ('A' for Active; 'I' for Inactive)
REMARK    1  A    between atoms: O_1  and  C_15
REMARK    2  A    between atoms: O_1  and  C_18
REMARK    3  A    between atoms: O_4  and  C_20
REMARK    4  A    between atoms: O_4  and  C_27
REMARK    5  A    between atoms: C_28  and  C_32
REMARK    6  A    between atoms: C_33  and  C_36
REMARK    7  A    between atoms: C_36  and  C_42
REMARK                            x       y       z     vdW  Elec       q    Type
REMARK                         _______ _______ _______ _____ _____    ______ ____
ROOT
ATOM      1  O   UNL     1     111.029 130.210 137.719  0.00  0.00    +0.000 OA
ATOM      2  O   UNL     1     110.110 128.321 139.025  0.00  0.00    +0.000 OA
ATOM      3  O   UNL     1     109.056 129.156 139.547  0.00  0.00    +0.000 OA
ATOM      4  O   UNL     1     108.931 131.957 138.732  0.00  0.00    +0.000 OA
ATOM      5  C   UNL     1     111.086 128.841 138.121  0.00  0.00    +0.000 A 
ATOM      6  C   UNL     1     111.393 129.471 137.686  0.00  0.00    +0.000 A 
ATOM      7  C   UNL     1     110.416 128.950 138.590  0.00  0.00    +0.000 A 
ATOM      8  C   UNL     1     110.053 129.690 138.624  0.00  0.00    +0.000 A 
ATOM      9  C   UNL     1     110.360 130.321 138.188  0.00  0.00    +0.000 A 
ATOM     10  C   UNL     1     109.990 131.096 138.215  0.00  0.00    +0.000 A 
ATOM     11  C   UNL     1     109.356 129.792 139.115  0.00  0.00    +0.000 A 
ATOM     12  C   UNL     1     109.292 131.216 138.701  0.00  0.00    +0.000 A 
ATOM     13  C   UNL     1     108.973 130.561 139.154  0.00  0.00    +0.000 A 
ENDROOT
BRANCH   6  15
ATOM     14  O   UNL     1     114.071 129.033 135.808  0.00  0.00    +0.000 OA
ATOM     15  C   UNL     1     112.063 129.361 137.217  0.00  0.00    +0.000 A 
ATOM     16  C   UNL     1     111.988 129.043 136.460  0.00  0.00    +0.000 A 
ATOM     17  C   UNL     1     112.807 129.570 137.504  0.00  0.00    +0.000 A 
ATOM     18  C   UNL     1     112.657 128.933 135.990  0.00  0.00    +0.000 A 
ATOM     19  C   UNL     1     113.477 129.461 137.035  0.00  0.00    +0.000 A 
ATOM     20  C   UNL     1     113.402 129.142 136.278  0.00  0.00    +0.000 A 
ENDBRANCH   6  15
BRANCH   5  21
ATOM     21  O   UNL     1     111.450 128.101 138.088  0.00  0.00    +0.000 OA
BRANCH  21  28
ATOM     22  O   UNL     1     112.063 128.183 139.376  0.00  0.00    +0.000 OA
ATOM     23  O   UNL     1     111.762 125.745 139.675  0.00  0.00    +0.000 OA
ATOM     24  O   UNL     1     112.476 126.640 140.863  0.00  0.00    +0.000 OA
ATOM     25  C   UNL     1     111.606 126.923 138.882  0.00  0.00    +0.000 C 
ATOM     26  C   UNL     1     111.863 126.558 139.575  0.00  0.00    +0.000 C 
ATOM     27  C   UNL     1     112.219 127.005 140.169  0.00  0.00    +0.000 C 
ATOM     28  C   UNL     1     111.706 127.735 138.782  0.00  0.00    +0.000 C 
ATOM     29  C   UNL     1     112.319 127.818 140.069  0.00  0.00    +0.000 C 
ATOM     30  C   UNL     1     112.676 128.266 140.664  0.00  0.00    +0.000 C 
BRANCH  25  31
ATOM     31  O   UNL     1     111.249 126.475 138.287  0.00  0.00    +0.000 OA
BRANCH  31  36
ATOM     32  O   UNL     1     112.536 126.048 137.835  0.00  0.00    +0.000 OA
ATOM     33  O   UNL     1     110.531 125.485 137.180  0.00  0.00    +0.000 OA
ATOM     34  O   UNL     1     111.458 124.563 136.174  0.00  0.00    +0.000 OA
ATOM     35  O   UNL     1     113.104 124.630 136.275  0.00  0.00    +0.000 OA
ATOM     36  C   UNL     1     111.713 126.014 137.784  0.00  0.00    +0.000 C 
ATOM     37  C   UNL     1     111.354 125.519 137.230  0.00  0.00    +0.000 C 
ATOM     38  C   UNL     1     111.818 125.058 136.727  0.00  0.00    +0.000 C 
ATOM     39  C   UNL     1     112.640 125.092 136.778  0.00  0.00    +0.000 C 
ATOM     40  C   UNL     1     113.000 125.587 137.332  0.00  0.00    +0.000 C 
ATOM     41  C   UNL     1     113.822 125.621 137.382  0.00  0.00    +0.000 C 
ENDBRANCH  31  36
ENDBRANCH  25  31
ENDBRANCH  21  28
ENDBRANCH   5  21
BRANCH  10  42
ATOM     42  C   UNL     1     110.304 131.720 137.776  0.00  0.00    +0.000 C 
BRANCH  42  43
ATOM     43  C   UNL     1     109.900 132.004 137.115  0.00  0.00    +0.000 C 
ATOM     44  C   UNL     1     110.218 132.621 136.670  0.00  0.00    +0.000 C 
ATOM     45  C   UNL     1     109.814 132.905 136.009  0.00  0.00    +0.000 C 
ATOM     46  C   UNL     1     110.942 132.955 136.886  0.00  0.00    +0.000 C 
ENDBRANCH  42  43
ENDBRANCH  10  42
TORSDOF 7
ENDMDL
