MODEL 1
REMARK VINA RESULT:     -10.0      0.000      0.000
REMARK  Name = 131752225
REMARK  8 active torsions:
REMARK  status: ('A' for Active; 'I' for Inactive)
REMARK    1  A    between atoms: O_2  and  C_21
REMARK    2  A    between atoms: O_2  and  C_25
REMARK    3  A    between atoms: O_8  and  C_26
REMARK    4  A    between atoms: O_8  and  C_29
REMARK    5  A    between atoms: O_15  and  C_41
REMARK    6  A    between atoms: C_17  and  C_27
REMARK    7  A    between atoms: C_20  and  C_25
REMARK    8  A    between atoms: C_30  and  C_33
REMARK                            x       y       z     vdW  Elec       q    Type
REMARK                         _______ _______ _______ _____ _____    ______ ____
ROOT
ATOM      1  O   UNL     1     111.589 127.155 135.927  0.00  0.00    +0.000 OA
ENDROOT
BRANCH   1   6
ATOM      2  O   UNL     1     113.558 126.791 136.796  0.00  0.00    +0.000 OA
ATOM      3  O   UNL     1     111.599 125.506 135.997  0.00  0.00    +0.000 OA
ATOM      4  O   UNL     1     112.245 124.260 136.327  0.00  0.00    +0.000 OA
ATOM      5  O   UNL     1     114.925 124.314 137.488  0.00  0.00    +0.000 OA
ATOM      6  C   UNL     1     112.247 126.759 136.228  0.00  0.00    +0.000 A 
ATOM      7  C   UNL     1     112.900 127.187 136.495  0.00  0.00    +0.000 A 
ATOM      8  C   UNL     1     112.252 125.935 136.264  0.00  0.00    +0.000 A 
ATOM      9  C   UNL     1     112.910 125.539 136.565  0.00  0.00    +0.000 A 
ATOM     10  C   UNL     1     113.563 125.966 136.831  0.00  0.00    +0.000 A 
ATOM     11  C   UNL     1     112.903 124.680 136.596  0.00  0.00    +0.000 A 
ATOM     12  C   UNL     1     114.254 125.565 137.147  0.00  0.00    +0.000 A 
ATOM     13  C   UNL     1     113.585 124.261 136.908  0.00  0.00    +0.000 A 
ATOM     14  C   UNL     1     114.265 124.707 137.186  0.00  0.00    +0.000 A 
BRANCH   7  16
ATOM     15  O   UNL     1     112.879 130.484 136.352  0.00  0.00    +0.000 OA
ATOM     16  C   UNL     1     112.895 128.011 136.460  0.00  0.00    +0.000 A 
ATOM     17  C   UNL     1     112.792 128.453 137.149  0.00  0.00    +0.000 A 
ATOM     18  C   UNL     1     112.992 128.393 135.734  0.00  0.00    +0.000 A 
ATOM     19  C   UNL     1     112.787 129.278 137.112  0.00  0.00    +0.000 A 
ATOM     20  C   UNL     1     112.987 129.217 135.699  0.00  0.00    +0.000 A 
ATOM     21  C   UNL     1     112.884 129.660 136.388  0.00  0.00    +0.000 A 
BRANCH  19  22
ATOM     22  O   UNL     1     112.684 129.720 137.801  0.00  0.00    +0.000 OA
ATOM     23  C   UNL     1     112.986 129.444 138.518  0.00  0.00    +0.000 C 
ENDBRANCH  19  22
ENDBRANCH   7  16
ENDBRANCH   1   6
BRANCH   1  32
ATOM     24  O   UNL     1     110.775 126.938 137.082  0.00  0.00    +0.000 OA
ATOM     25  O   UNL     1     108.617 126.685 137.282  0.00  0.00    +0.000 OA
ATOM     26  O   UNL     1     108.757 126.884 135.650  0.00  0.00    +0.000 OA
ATOM     27  O   UNL     1     110.243 127.119 134.973  0.00  0.00    +0.000 OA
ATOM     28  C   UNL     1     110.033 126.820 137.420  0.00  0.00    +0.000 C 
ATOM     29  C   UNL     1     109.360 126.802 136.943  0.00  0.00    +0.000 C 
ATOM     30  C   UNL     1     109.430 126.902 136.127  0.00  0.00    +0.000 C 
ATOM     31  C   UNL     1     110.174 127.020 135.789  0.00  0.00    +0.000 C 
ATOM     32  C   UNL     1     110.846 127.037 136.266  0.00  0.00    +0.000 C 
BRANCH  28  33
ATOM     33  C   UNL     1     109.962 126.720 138.237  0.00  0.00    +0.000 C 
BRANCH  33  34
ATOM     34  O   UNL     1     110.609 126.863 138.728  0.00  0.00    +0.000 OA
BRANCH  34  41
ATOM     35  O   UNL     1     109.879 127.006 139.996  0.00  0.00    +0.000 OA
ATOM     36  O   UNL     1     111.169 126.218 141.504  0.00  0.00    +0.000 OA
ATOM     37  O   UNL     1     111.833 126.160 139.837  0.00  0.00    +0.000 OA
ATOM     38  C   UNL     1     110.039 126.823 140.785  0.00  0.00    +0.000 C 
ATOM     39  C   UNL     1     110.790 126.484 140.821  0.00  0.00    +0.000 C 
ATOM     40  C   UNL     1     111.094 126.458 140.055  0.00  0.00    +0.000 C 
ATOM     41  C   UNL     1     110.533 126.780 139.545  0.00  0.00    +0.000 C 
BRANCH  38  43
ATOM     42  O   UNL     1     109.080 126.337 141.726  0.00  0.00    +0.000 OA
ATOM     43  C   UNL     1     109.535 126.956 141.424  0.00  0.00    +0.000 C 
ATOM     44  C   UNL     1     109.486 127.706 141.762  0.00  0.00    +0.000 C 
ENDBRANCH  38  43
ENDBRANCH  34  41
ENDBRANCH  33  34
ENDBRANCH  28  33
ENDBRANCH   1  32
TORSDOF 8
ENDMDL
MODEL 2
REMARK VINA RESULT:      -9.7      2.078      4.589
REMARK  Name = 131752225
REMARK  8 active torsions:
REMARK  status: ('A' for Active; 'I' for Inactive)
REMARK    1  A    between atoms: O_2  and  C_21
REMARK    2  A    between atoms: O_2  and  C_25
REMARK    3  A    between atoms: O_8  and  C_26
REMARK    4  A    between atoms: O_8  and  C_29
REMARK    5  A    between atoms: O_15  and  C_41
REMARK    6  A    between atoms: C_17  and  C_27
REMARK    7  A    between atoms: C_20  and  C_25
REMARK    8  A    between atoms: C_30  and  C_33
REMARK                            x       y       z     vdW  Elec       q    Type
REMARK                         _______ _______ _______ _____ _____    ______ ____
ROOT
ATOM      1  O   UNL     1     112.013 127.218 137.819  0.00  0.00    +0.000 OA
ENDROOT
BRANCH   1   6
ATOM      2  O   UNL     1     113.014 127.613 135.919  0.00  0.00    +0.000 OA
ATOM      3  O   UNL     1     112.658 128.708 138.111  0.00  0.00    +0.000 OA
ATOM      4  O   UNL     1     113.425 129.857 137.693  0.00  0.00    +0.000 OA
ATOM      5  O   UNL     1     114.573 129.898 135.008  0.00  0.00    +0.000 OA
ATOM      6  C   UNL     1     112.454 127.598 137.234  0.00  0.00    +0.000 A 
ATOM      7  C   UNL     1     112.572 127.233 136.503  0.00  0.00    +0.000 A 
ATOM      8  C   UNL     1     112.777 128.343 137.380  0.00  0.00    +0.000 A 
ATOM      9  C   UNL     1     113.218 128.723 136.795  0.00  0.00    +0.000 A 
ATOM     10  C   UNL     1     113.336 128.359 136.065  0.00  0.00    +0.000 A 
ATOM     11  C   UNL     1     113.549 129.499 136.960  0.00  0.00    +0.000 A 
ATOM     12  C   UNL     1     113.793 128.744 135.449  0.00  0.00    +0.000 A 
ATOM     13  C   UNL     1     114.009 129.901 136.356  0.00  0.00    +0.000 A 
ATOM     14  C   UNL     1     114.133 129.521 135.595  0.00  0.00    +0.000 A 
BRANCH   7  16
ATOM     15  O   UNL     1     111.282 124.252 135.923  0.00  0.00    +0.000 OA
ATOM     16  C   UNL     1     112.250 126.488 136.358  0.00  0.00    +0.000 A 
ATOM     17  C   UNL     1     111.594 126.411 135.862  0.00  0.00    +0.000 A 
ATOM     18  C   UNL     1     112.582 125.819 136.709  0.00  0.00    +0.000 A 
ATOM     19  C   UNL     1     111.272 125.666 135.717  0.00  0.00    +0.000 A 
ATOM     20  C   UNL     1     112.260 125.074 136.563  0.00  0.00    +0.000 A 
ATOM     21  C   UNL     1     111.604 124.997 136.068  0.00  0.00    +0.000 A 
BRANCH  19  22
ATOM     22  O   UNL     1     110.617 125.589 135.222  0.00  0.00    +0.000 OA
ATOM     23  C   UNL     1     110.421 126.198 134.700  0.00  0.00    +0.000 C 
ENDBRANCH  19  22
ENDBRANCH   7  16
ENDBRANCH   1   6
BRANCH   1  32
ATOM     24  O   UNL     1     110.850 128.034 137.671  0.00  0.00    +0.000 OA
ATOM     25  O   UNL     1     109.386 128.716 139.139  0.00  0.00    +0.000 OA
ATOM     26  O   UNL     1     110.399 127.832 140.096  0.00  0.00    +0.000 OA
ATOM     27  O   UNL     1     111.712 127.083 139.435  0.00  0.00    +0.000 OA
ATOM     28  C   UNL     1     110.193 128.409 138.000  0.00  0.00    +0.000 C 
ATOM     29  C   UNL     1     110.043 128.341 138.809  0.00  0.00    +0.000 C 
ATOM     30  C   UNL     1     110.549 127.899 139.287  0.00  0.00    +0.000 C 
ATOM     31  C   UNL     1     111.206 127.524 138.957  0.00  0.00    +0.000 C 
ATOM     32  C   UNL     1     111.357 127.592 138.148  0.00  0.00    +0.000 C 
BRANCH  28  33
ATOM     33  C   UNL     1     109.686 128.851 137.523  0.00  0.00    +0.000 C 
BRANCH  33  34
ATOM     34  O   UNL     1     109.914 129.056 136.757  0.00  0.00    +0.000 OA
BRANCH  34  41
ATOM     35  O   UNL     1     108.805 130.009 136.599  0.00  0.00    +0.000 OA
ATOM     36  O   UNL     1     108.974 130.774 134.613  0.00  0.00    +0.000 OA
ATOM     37  O   UNL     1     110.227 129.573 135.067  0.00  0.00    +0.000 OA
ATOM     38  C   UNL     1     108.539 130.497 135.989  0.00  0.00    +0.000 C 
ATOM     39  C   UNL     1     109.039 130.393 135.342  0.00  0.00    +0.000 C 
ATOM     40  C   UNL     1     109.615 129.840 135.551  0.00  0.00    +0.000 C 
ATOM     41  C   UNL     1     109.471 129.603 136.327  0.00  0.00    +0.000 C 
BRANCH  38  43
ATOM     42  O   UNL     1     107.165 130.762 135.699  0.00  0.00    +0.000 OA
ATOM     43  C   UNL     1     107.886 131.000 136.023  0.00  0.00    +0.000 C 
ATOM     44  C   UNL     1     107.953 131.740 136.379  0.00  0.00    +0.000 C 
ENDBRANCH  38  43
ENDBRANCH  34  41
ENDBRANCH  33  34
ENDBRANCH  28  33
ENDBRANCH   1  32
TORSDOF 8
ENDMDL
MODEL 3
REMARK VINA RESULT:      -9.6      1.356      4.274
REMARK  Name = 131752225
REMARK  8 active torsions:
REMARK  status: ('A' for Active; 'I' for Inactive)
REMARK    1  A    between atoms: O_2  and  C_21
REMARK    2  A    between atoms: O_2  and  C_25
REMARK    3  A    between atoms: O_8  and  C_26
REMARK    4  A    between atoms: O_8  and  C_29
REMARK    5  A    between atoms: O_15  and  C_41
REMARK    6  A    between atoms: C_17  and  C_27
REMARK    7  A    between atoms: C_20  and  C_25
REMARK    8  A    between atoms: C_30  and  C_33
REMARK                            x       y       z     vdW  Elec       q    Type
REMARK                         _______ _______ _______ _____ _____    ______ ____
ROOT
ATOM      1  O   UNL     1     112.952 126.426 137.668  0.00  0.00    +0.000 OA
ENDROOT
BRANCH   1   6
ATOM      2  O   UNL     1     112.950 128.539 138.221  0.00  0.00    +0.000 OA
ATOM      3  O   UNL     1     113.533 127.112 136.284  0.00  0.00    +0.000 OA
ATOM      4  O   UNL     1     113.929 128.267 135.516  0.00  0.00    +0.000 OA
ATOM      5  O   UNL     1     113.733 130.915 136.732  0.00  0.00    +0.000 OA
ATOM      6  C   UNL     1     113.048 127.244 137.622  0.00  0.00    +0.000 A 
ATOM      7  C   UNL     1     112.854 127.720 138.268  0.00  0.00    +0.000 A 
ATOM      8  C   UNL     1     113.338 127.588 136.930  0.00  0.00    +0.000 A 
ATOM      9  C   UNL     1     113.435 128.406 136.883  0.00  0.00    +0.000 A 
ATOM     10  C   UNL     1     113.241 128.881 137.529  0.00  0.00    +0.000 A 
ATOM     11  C   UNL     1     113.738 128.750 136.157  0.00  0.00    +0.000 A 
ATOM     12  C   UNL     1     113.337 129.734 137.493  0.00  0.00    +0.000 A 
ATOM     13  C   UNL     1     113.840 129.601 136.102  0.00  0.00    +0.000 A 
ATOM     14  C   UNL     1     113.638 130.097 136.774  0.00  0.00    +0.000 A 
BRANCH   7  16
ATOM     15  O   UNL     1     111.696 126.347 141.036  0.00  0.00    +0.000 OA
ATOM     16  C   UNL     1     112.564 127.377 138.959  0.00  0.00    +0.000 A 
ATOM     17  C   UNL     1     111.763 127.440 139.147  0.00  0.00    +0.000 A 
ATOM     18  C   UNL     1     113.076 126.971 139.464  0.00  0.00    +0.000 A 
ATOM     19  C   UNL     1     111.474 127.096 139.840  0.00  0.00    +0.000 A 
ATOM     20  C   UNL     1     112.786 126.628 140.156  0.00  0.00    +0.000 A 
ATOM     21  C   UNL     1     111.985 126.690 140.343  0.00  0.00    +0.000 A 
BRANCH  19  22
ATOM     22  O   UNL     1     110.673 127.159 140.028  0.00  0.00    +0.000 OA
ATOM     23  C   UNL     1     110.233 127.800 139.749  0.00  0.00    +0.000 C 
ENDBRANCH  19  22
ENDBRANCH   7  16
ENDBRANCH   1   6
BRANCH   1  32
ATOM     24  O   UNL     1     111.818 126.451 136.799  0.00  0.00    +0.000 OA
ATOM     25  O   UNL     1     110.924 124.882 135.572  0.00  0.00    +0.000 OA
ATOM     26  O   UNL     1     112.178 124.061 136.263  0.00  0.00    +0.000 OA
ATOM     27  O   UNL     1     113.192 124.833 137.311  0.00  0.00    +0.000 OA
ATOM     28  C   UNL     1     111.311 126.065 136.275  0.00  0.00    +0.000 C 
ATOM     29  C   UNL     1     111.431 125.269 136.097  0.00  0.00    +0.000 C 
ATOM     30  C   UNL     1     112.058 124.858 136.441  0.00  0.00    +0.000 C 
ATOM     31  C   UNL     1     112.565 125.244 136.966  0.00  0.00    +0.000 C 
ATOM     32  C   UNL     1     112.445 126.041 137.144  0.00  0.00    +0.000 C 
BRANCH  28  33
ATOM     33  C   UNL     1     110.684 126.475 135.929  0.00  0.00    +0.000 C 
BRANCH  33  34
ATOM     34  O   UNL     1     110.103 126.817 136.404  0.00  0.00    +0.000 OA
BRANCH  34  41
ATOM     35  O   UNL     1     110.071 128.181 135.856  0.00  0.00    +0.000 OA
ATOM     36  O   UNL     1     108.008 128.722 135.758  0.00  0.00    +0.000 OA
ATOM     37  O   UNL     1     108.327 127.077 136.402  0.00  0.00    +0.000 OA
ATOM     38  C   UNL     1     109.475 128.722 135.673  0.00  0.00    +0.000 C 
ATOM     39  C   UNL     1     108.750 128.374 135.855  0.00  0.00    +0.000 C 
ATOM     40  C   UNL     1     108.897 127.618 136.151  0.00  0.00    +0.000 C 
ATOM     41  C   UNL     1     109.712 127.499 136.152  0.00  0.00    +0.000 C 
BRANCH  38  43
ATOM     42  O   UNL     1     109.279 129.668 134.620  0.00  0.00    +0.000 OA
ATOM     43  C   UNL     1     109.587 129.478 135.362  0.00  0.00    +0.000 C 
ATOM     44  C   UNL     1     110.005 130.043 135.791  0.00  0.00    +0.000 C 
ENDBRANCH  38  43
ENDBRANCH  34  41
ENDBRANCH  33  34
ENDBRANCH  28  33
ENDBRANCH   1  32
TORSDOF 8
ENDMDL
MODEL 4
REMARK VINA RESULT:      -9.6      9.385     11.934
REMARK  Name = 131752225
REMARK  8 active torsions:
REMARK  status: ('A' for Active; 'I' for Inactive)
REMARK    1  A    between atoms: O_2  and  C_21
REMARK    2  A    between atoms: O_2  and  C_25
REMARK    3  A    between atoms: O_8  and  C_26
REMARK    4  A    between atoms: O_8  and  C_29
REMARK    5  A    between atoms: O_15  and  C_41
REMARK    6  A    between atoms: C_17  and  C_27
REMARK    7  A    between atoms: C_20  and  C_25
REMARK    8  A    between atoms: C_30  and  C_33
REMARK                            x       y       z     vdW  Elec       q    Type
REMARK                         _______ _______ _______ _____ _____    ______ ____
ROOT
ATOM      1  O   UNL     1     105.397 125.232 145.766  0.00  0.00    +0.000 OA
ENDROOT
BRANCH   1   6
ATOM      2  O   UNL     1     105.595 124.446 147.793  0.00  0.00    +0.000 OA
ATOM      3  O   UNL     1     106.981 125.573 146.079  0.00  0.00    +0.000 OA
ATOM      4  O   UNL     1     108.130 125.550 146.952  0.00  0.00    +0.000 OA
ATOM      5  O   UNL     1     107.871 124.366 149.609  0.00  0.00    +0.000 OA
ATOM      6  C   UNL     1     105.727 125.027 146.494  0.00  0.00    +0.000 A 
ATOM      7  C   UNL     1     105.265 124.651 147.066  0.00  0.00    +0.000 A 
ATOM      8  C   UNL     1     106.519 125.197 146.651  0.00  0.00    +0.000 A 
ATOM      9  C   UNL     1     106.849 124.992 147.379  0.00  0.00    +0.000 A 
ATOM     10  C   UNL     1     106.387 124.617 147.949  0.00  0.00    +0.000 A 
ATOM     11  C   UNL     1     107.675 125.175 147.529  0.00  0.00    +0.000 A 
ATOM     12  C   UNL     1     106.720 124.398 148.711  0.00  0.00    +0.000 A 
ATOM     13  C   UNL     1     108.025 124.964 148.285  0.00  0.00    +0.000 A 
ATOM     14  C   UNL     1     107.544 124.572 148.880  0.00  0.00    +0.000 A 
BRANCH   7  16
ATOM     15  O   UNL     1     102.098 123.970 146.436  0.00  0.00    +0.000 OA
ATOM     16  C   UNL     1     104.473 124.481 146.909  0.00  0.00    +0.000 A 
ATOM     17  C   UNL     1     103.877 124.935 147.255  0.00  0.00    +0.000 A 
ATOM     18  C   UNL     1     104.278 123.857 146.405  0.00  0.00    +0.000 A 
ATOM     19  C   UNL     1     103.085 124.764 147.097  0.00  0.00    +0.000 A 
ATOM     20  C   UNL     1     103.486 123.687 146.248  0.00  0.00    +0.000 A 
ATOM     21  C   UNL     1     102.890 124.141 146.594  0.00  0.00    +0.000 A 
BRANCH  19  22
ATOM     22  O   UNL     1     102.489 125.217 147.443  0.00  0.00    +0.000 OA
ATOM     23  C   UNL     1     102.338 125.152 148.252  0.00  0.00    +0.000 C 
ENDBRANCH  19  22
ENDBRANCH   7  16
ENDBRANCH   1   6
BRANCH   1  32
ATOM     24  O   UNL     1     105.340 126.629 146.063  0.00  0.00    +0.000 OA
ATOM     25  O   UNL     1     105.454 128.374 144.756  0.00  0.00    +0.000 OA
ATOM     26  O   UNL     1     105.597 127.151 143.657  0.00  0.00    +0.000 OA
ATOM     27  O   UNL     1     105.569 125.580 144.162  0.00  0.00    +0.000 OA
ATOM     28  C   UNL     1     105.354 127.414 145.811  0.00  0.00    +0.000 C 
ATOM     29  C   UNL     1     105.439 127.588 145.009  0.00  0.00    +0.000 C 
ATOM     30  C   UNL     1     105.511 126.977 144.459  0.00  0.00    +0.000 C 
ATOM     31  C   UNL     1     105.497 126.191 144.712  0.00  0.00    +0.000 C 
ATOM     32  C   UNL     1     105.411 126.017 145.514  0.00  0.00    +0.000 C 
BRANCH  28  33
ATOM     33  C   UNL     1     105.282 128.026 146.360  0.00  0.00    +0.000 C 
BRANCH  33  34
ATOM     34  O   UNL     1     104.947 127.880 147.099  0.00  0.00    +0.000 OA
BRANCH  34  41
ATOM     35  O   UNL     1     104.822 129.295 147.478  0.00  0.00    +0.000 OA
ATOM     36  O   UNL     1     104.762 129.325 149.612  0.00  0.00    +0.000 OA
ATOM     37  O   UNL     1     104.914 127.691 148.884  0.00  0.00    +0.000 OA
ATOM     38  C   UNL     1     104.770 129.705 148.192  0.00  0.00    +0.000 C 
ATOM     39  C   UNL     1     104.798 129.155 148.805  0.00  0.00    +0.000 C 
ATOM     40  C   UNL     1     104.867 128.404 148.470  0.00  0.00    +0.000 C 
ATOM     41  C   UNL     1     104.883 128.490 147.651  0.00  0.00    +0.000 C 
BRANCH  38  43
ATOM     42  O   UNL     1     105.376 130.999 148.243  0.00  0.00    +0.000 OA
ATOM     43  C   UNL     1     104.702 130.523 148.277  0.00  0.00    +0.000 C 
ATOM     44  C   UNL     1     103.962 130.866 148.396  0.00  0.00    +0.000 C 
ENDBRANCH  38  43
ENDBRANCH  34  41
ENDBRANCH  33  34
ENDBRANCH  28  33
ENDBRANCH   1  32
TORSDOF 8
ENDMDL
MODEL 5
REMARK VINA RESULT:      -9.5      1.739      3.755
REMARK  Name = 131752225
REMARK  8 active torsions:
REMARK  status: ('A' for Active; 'I' for Inactive)
REMARK    1  A    between atoms: O_2  and  C_21
REMARK    2  A    between atoms: O_2  and  C_25
REMARK    3  A    between atoms: O_8  and  C_26
REMARK    4  A    between atoms: O_8  and  C_29
REMARK    5  A    between atoms: O_15  and  C_41
REMARK    6  A    between atoms: C_17  and  C_27
REMARK    7  A    between atoms: C_20  and  C_25
REMARK    8  A    between atoms: C_30  and  C_33
REMARK                            x       y       z     vdW  Elec       q    Type
REMARK                         _______ _______ _______ _____ _____    ______ ____
ROOT
ATOM      1  O   UNL     1     111.898 126.174 139.338  0.00  0.00    +0.000 OA
ENDROOT
BRANCH   1   6
ATOM      2  O   UNL     1     113.865 126.320 138.402  0.00  0.00    +0.000 OA
ATOM      3  O   UNL     1     111.764 125.033 138.154  0.00  0.00    +0.000 OA
ATOM      4  O   UNL     1     112.312 124.299 137.039  0.00  0.00    +0.000 OA
ATOM      5  O   UNL     1     115.036 124.878 136.159  0.00  0.00    +0.000 OA
ATOM      6  C   UNL     1     112.531 126.033 138.829  0.00  0.00    +0.000 A 
ATOM      7  C   UNL     1     113.232 126.462 138.911  0.00  0.00    +0.000 A 
ATOM      8  C   UNL     1     112.465 125.462 138.237  0.00  0.00    +0.000 A 
ATOM      9  C   UNL     1     113.098 125.320 137.727  0.00  0.00    +0.000 A 
ATOM     10  C   UNL     1     113.797 125.749 137.810  0.00  0.00    +0.000 A 
ATOM     11  C   UNL     1     113.016 124.723 137.115  0.00  0.00    +0.000 A 
ATOM     12  C   UNL     1     114.464 125.610 137.286  0.00  0.00    +0.000 A 
ATOM     13  C   UNL     1     113.671 124.571 136.581  0.00  0.00    +0.000 A 
ATOM     14  C   UNL     1     114.401 125.017 136.667  0.00  0.00    +0.000 A 
BRANCH   7  16
ATOM     15  O   UNL     1     113.496 128.742 141.282  0.00  0.00    +0.000 OA
ATOM     16  C   UNL     1     113.298 127.032 139.504  0.00  0.00    +0.000 A 
ATOM     17  C   UNL     1     113.253 127.833 139.312  0.00  0.00    +0.000 A 
ATOM     18  C   UNL     1     113.408 126.801 140.288  0.00  0.00    +0.000 A 
ATOM     19  C   UNL     1     113.320 128.403 139.905  0.00  0.00    +0.000 A 
ATOM     20  C   UNL     1     113.475 127.371 140.881  0.00  0.00    +0.000 A 
ATOM     21  C   UNL     1     113.430 128.172 140.689  0.00  0.00    +0.000 A 
BRANCH  19  22
ATOM     22  O   UNL     1     113.275 129.204 139.714  0.00  0.00    +0.000 OA
ATOM     23  C   UNL     1     113.531 129.467 138.974  0.00  0.00    +0.000 C 
ENDBRANCH  19  22
ENDBRANCH   7  16
ENDBRANCH   1   6
BRANCH   1  32
ATOM     24  O   UNL     1     111.117 126.866 138.362  0.00  0.00    +0.000 OA
ATOM     25  O   UNL     1     108.954 127.028 138.114  0.00  0.00    +0.000 OA
ATOM     26  O   UNL     1     109.044 126.072 139.456  0.00  0.00    +0.000 OA
ATOM     27  O   UNL     1     110.516 125.645 140.068  0.00  0.00    +0.000 OA
ATOM     28  C   UNL     1     110.382 127.079 138.056  0.00  0.00    +0.000 C 
ATOM     29  C   UNL     1     109.691 126.814 138.421  0.00  0.00    +0.000 C 
ATOM     30  C   UNL     1     109.735 126.336 139.091  0.00  0.00    +0.000 C 
ATOM     31  C   UNL     1     110.472 126.123 139.397  0.00  0.00    +0.000 C 
ATOM     32  C   UNL     1     111.163 126.388 139.033  0.00  0.00    +0.000 C 
BRANCH  28  33
ATOM     33  C   UNL     1     110.336 127.557 137.385  0.00  0.00    +0.000 C 
BRANCH  33  34
ATOM     34  O   UNL     1     110.998 127.978 137.132  0.00  0.00    +0.000 OA
BRANCH  34  41
ATOM     35  O   UNL     1     110.301 128.973 136.304  0.00  0.00    +0.000 OA
ATOM     36  O   UNL     1     111.628 129.426 134.694  0.00  0.00    +0.000 OA
ATOM     37  O   UNL     1     112.249 128.218 135.867  0.00  0.00    +0.000 OA
ATOM     38  C   UNL     1     110.480 129.384 135.611  0.00  0.00    +0.000 C 
ATOM     39  C   UNL     1     111.231 129.151 135.364  0.00  0.00    +0.000 C 
ATOM     40  C   UNL     1     111.517 128.596 135.903  0.00  0.00    +0.000 C 
ATOM     41  C   UNL     1     110.943 128.486 136.484  0.00  0.00    +0.000 C 
BRANCH  38  43
ATOM     42  O   UNL     1     109.479 129.683 134.637  0.00  0.00    +0.000 OA
ATOM     43  C   UNL     1     109.992 129.932 135.233  0.00  0.00    +0.000 C 
ATOM     44  C   UNL     1     110.017 130.726 135.451  0.00  0.00    +0.000 C 
ENDBRANCH  38  43
ENDBRANCH  34  41
ENDBRANCH  33  34
ENDBRANCH  28  33
ENDBRANCH   1  32
TORSDOF 8
ENDMDL
MODEL 6
REMARK VINA RESULT:      -9.5      1.777      3.512
REMARK  Name = 131752225
REMARK  8 active torsions:
REMARK  status: ('A' for Active; 'I' for Inactive)
REMARK    1  A    between atoms: O_2  and  C_21
REMARK    2  A    between atoms: O_2  and  C_25
REMARK    3  A    between atoms: O_8  and  C_26
REMARK    4  A    between atoms: O_8  and  C_29
REMARK    5  A    between atoms: O_15  and  C_41
REMARK    6  A    between atoms: C_17  and  C_27
REMARK    7  A    between atoms: C_20  and  C_25
REMARK    8  A    between atoms: C_30  and  C_33
REMARK                            x       y       z     vdW  Elec       q    Type
REMARK                         _______ _______ _______ _____ _____    ______ ____
ROOT
ATOM      1  O   UNL     1     110.568 128.732 136.056  0.00  0.00    +0.000 OA
ENDROOT
BRANCH   1   6
ATOM      2  O   UNL     1     112.569 128.079 135.477  0.00  0.00    +0.000 OA
ATOM      3  O   UNL     1     111.448 130.087 136.392  0.00  0.00    +0.000 OA
ATOM      4  O   UNL     1     112.700 130.803 136.434  0.00  0.00    +0.000 OA
ATOM      5  O   UNL     1     115.133 129.460 135.533  0.00  0.00    +0.000 OA
ATOM      6  C   UNL     1     111.381 128.741 135.919  0.00  0.00    +0.000 A 
ATOM      7  C   UNL     1     111.756 128.071 135.614  0.00  0.00    +0.000 A 
ATOM      8  C   UNL     1     111.822 129.418 136.087  0.00  0.00    +0.000 A 
ATOM      9  C   UNL     1     112.635 129.426 135.950  0.00  0.00    +0.000 A 
ATOM     10  C   UNL     1     113.009 128.757 135.645  0.00  0.00    +0.000 A 
ATOM     11  C   UNL     1     113.082 130.138 136.129  0.00  0.00    +0.000 A 
ATOM     12  C   UNL     1     113.855 128.753 135.498  0.00  0.00    +0.000 A 
ATOM     13  C   UNL     1     113.930 130.153 135.989  0.00  0.00    +0.000 A 
ATOM     14  C   UNL     1     114.319 129.456 135.671  0.00  0.00    +0.000 A 
BRANCH   7  16
ATOM     15  O   UNL     1     109.993 125.363 134.940  0.00  0.00    +0.000 OA
ATOM     16  C   UNL     1     111.315 127.394 135.446  0.00  0.00    +0.000 A 
ATOM     17  C   UNL     1     111.363 126.737 135.942  0.00  0.00    +0.000 A 
ATOM     18  C   UNL     1     110.827 127.374 134.780  0.00  0.00    +0.000 A 
ATOM     19  C   UNL     1     110.922 126.060 135.773  0.00  0.00    +0.000 A 
ATOM     20  C   UNL     1     110.387 126.697 134.612  0.00  0.00    +0.000 A 
ATOM     21  C   UNL     1     110.434 126.040 135.109  0.00  0.00    +0.000 A 
BRANCH  19  22
ATOM     22  O   UNL     1     110.969 125.403 136.270  0.00  0.00    +0.000 OA
ATOM     23  C   UNL     1     111.703 125.148 136.549  0.00  0.00    +0.000 C 
ENDBRANCH  19  22
ENDBRANCH   7  16
ENDBRANCH   1   6
BRANCH   1  32
ATOM     24  O   UNL     1     110.676 128.619 137.476  0.00  0.00    +0.000 OA
ATOM     25  O   UNL     1     109.396 129.380 139.072  0.00  0.00    +0.000 OA
ATOM     26  O   UNL     1     108.593 129.930 137.739  0.00  0.00    +0.000 OA
ATOM     27  O   UNL     1     109.179 129.606 136.231  0.00  0.00    +0.000 OA
ATOM     28  C   UNL     1     110.383 128.781 138.230  0.00  0.00    +0.000 C 
ATOM     29  C   UNL     1     109.689 129.218 138.317  0.00  0.00    +0.000 C 
ATOM     30  C   UNL     1     109.288 129.493 137.651  0.00  0.00    +0.000 C 
ATOM     31  C   UNL     1     109.581 129.331 136.897  0.00  0.00    +0.000 C 
ATOM     32  C   UNL     1     110.275 128.894 136.809  0.00  0.00    +0.000 C 
BRANCH  28  33
ATOM     33  C   UNL     1     110.784 128.506 138.896  0.00  0.00    +0.000 C 
BRANCH  33  34
ATOM     34  O   UNL     1     110.973 127.707 138.964  0.00  0.00    +0.000 OA
BRANCH  34  41
ATOM     35  O   UNL     1     112.059 127.864 139.943  0.00  0.00    +0.000 OA
ATOM     36  O   UNL     1     112.082 126.060 141.085  0.00  0.00    +0.000 OA
ATOM     37  O   UNL     1     110.828 126.125 139.802  0.00  0.00    +0.000 OA
ATOM     38  C   UNL     1     112.374 127.396 140.545  0.00  0.00    +0.000 C 
ATOM     39  C   UNL     1     111.951 126.688 140.565  0.00  0.00    +0.000 C 
ATOM     40  C   UNL     1     111.375 126.718 139.976  0.00  0.00    +0.000 C 
ATOM     41  C   UNL     1     111.441 127.444 139.591  0.00  0.00    +0.000 C 
BRANCH  38  43
ATOM     42  O   UNL     1     112.855 128.004 141.745  0.00  0.00    +0.000 OA
ATOM     43  C   UNL     1     113.001 127.601 141.040  0.00  0.00    +0.000 C 
ATOM     44  C   UNL     1     113.774 127.404 140.830  0.00  0.00    +0.000 C 
ENDBRANCH  38  43
ENDBRANCH  34  41
ENDBRANCH  33  34
ENDBRANCH  28  33
ENDBRANCH   1  32
TORSDOF 8
ENDMDL
MODEL 7
REMARK VINA RESULT:      -9.5      1.912      3.672
REMARK  Name = 131752225
REMARK  8 active torsions:
REMARK  status: ('A' for Active; 'I' for Inactive)
REMARK    1  A    between atoms: O_2  and  C_21
REMARK    2  A    between atoms: O_2  and  C_25
REMARK    3  A    between atoms: O_8  and  C_26
REMARK    4  A    between atoms: O_8  and  C_29
REMARK    5  A    between atoms: O_15  and  C_41
REMARK    6  A    between atoms: C_17  and  C_27
REMARK    7  A    between atoms: C_20  and  C_25
REMARK    8  A    between atoms: C_30  and  C_33
REMARK                            x       y       z     vdW  Elec       q    Type
REMARK                         _______ _______ _______ _____ _____    ______ ____
ROOT
ATOM      1  O   UNL     1     111.264 126.945 136.460  0.00  0.00    +0.000 OA
ENDROOT
BRANCH   1   6
ATOM      2  O   UNL     1     111.802 128.863 135.567  0.00  0.00    +0.000 OA
ATOM      3  O   UNL     1     112.911 126.838 136.461  0.00  0.00    +0.000 OA
ATOM      4  O   UNL     1     114.213 127.388 136.172  0.00  0.00    +0.000 OA
ATOM      5  O   UNL     1     114.396 130.037 134.955  0.00  0.00    +0.000 OA
ATOM      6  C   UNL     1     111.718 127.566 136.162  0.00  0.00    +0.000 A 
ATOM      7  C   UNL     1     111.348 128.242 135.864  0.00  0.00    +0.000 A 
ATOM      8  C   UNL     1     112.541 127.513 136.163  0.00  0.00    +0.000 A 
ATOM      9  C   UNL     1     112.995 128.135 135.865  0.00  0.00    +0.000 A 
ATOM     10  C   UNL     1     112.626 128.809 135.568  0.00  0.00    +0.000 A 
ATOM     11  C   UNL     1     113.852 128.067 135.872  0.00  0.00    +0.000 A 
ATOM     12  C   UNL     1     113.088 129.463 135.255  0.00  0.00    +0.000 A 
ATOM     13  C   UNL     1     114.330 128.711 135.564  0.00  0.00    +0.000 A 
ATOM     14  C   UNL     1     113.946 129.414 135.253  0.00  0.00    +0.000 A 
BRANCH   7  16
ATOM     15  O   UNL     1     108.055 128.451 135.861  0.00  0.00    +0.000 OA
ATOM     16  C   UNL     1     110.525 128.294 135.864  0.00  0.00    +0.000 A 
ATOM     17  C   UNL     1     110.141 128.767 136.420  0.00  0.00    +0.000 A 
ATOM     18  C   UNL     1     110.086 127.873 135.306  0.00  0.00    +0.000 A 
ATOM     19  C   UNL     1     109.318 128.819 136.419  0.00  0.00    +0.000 A 
ATOM     20  C   UNL     1     109.262 127.926 135.306  0.00  0.00    +0.000 A 
ATOM     21  C   UNL     1     108.879 128.399 135.862  0.00  0.00    +0.000 A 
BRANCH  19  22
ATOM     22  O   UNL     1     108.934 129.292 136.975  0.00  0.00    +0.000 OA
ATOM     23  C   UNL     1     109.280 129.999 137.225  0.00  0.00    +0.000 C 
ENDBRANCH  19  22
ENDBRANCH   7  16
ENDBRANCH   1   6
BRANCH   1  32
ATOM     24  O   UNL     1     111.630 127.235 137.810  0.00  0.00    +0.000 OA
ATOM     25  O   UNL     1     111.651 125.968 139.588  0.00  0.00    +0.000 OA
ATOM     26  O   UNL     1     111.114 124.900 138.451  0.00  0.00    +0.000 OA
ATOM     27  O   UNL     1     110.920 125.389 136.887  0.00  0.00    +0.000 OA
ATOM     28  C   UNL     1     111.726 126.991 138.592  0.00  0.00    +0.000 C 
ATOM     29  C   UNL     1     111.554 126.213 138.806  0.00  0.00    +0.000 C 
ATOM     30  C   UNL     1     111.286 125.679 138.238  0.00  0.00    +0.000 C 
ATOM     31  C   UNL     1     111.189 125.923 137.455  0.00  0.00    +0.000 C 
ATOM     32  C   UNL     1     111.361 126.701 137.241  0.00  0.00    +0.000 C 
BRANCH  28  33
ATOM     33  C   UNL     1     111.995 127.525 139.161  0.00  0.00    +0.000 C 
BRANCH  33  34
ATOM     34  O   UNL     1     111.639 128.264 139.234  0.00  0.00    +0.000 OA
BRANCH  34  41
ATOM     35  O   UNL     1     112.873 129.063 139.282  0.00  0.00    +0.000 OA
ATOM     36  O   UNL     1     112.424 130.759 140.498  0.00  0.00    +0.000 OA
ATOM     37  O   UNL     1     111.065 129.608 140.278  0.00  0.00    +0.000 OA
ATOM     38  C   UNL     1     113.095 129.771 139.641  0.00  0.00    +0.000 C 
ATOM     39  C   UNL     1     112.445 130.061 140.057  0.00  0.00    +0.000 C 
ATOM     40  C   UNL     1     111.821 129.532 139.956  0.00  0.00    +0.000 C 
ATOM     41  C   UNL     1     112.084 128.916 139.477  0.00  0.00    +0.000 C 
BRANCH  38  43
ATOM     42  O   UNL     1     114.359 130.082 140.230  0.00  0.00    +0.000 OA
ATOM     43  C   UNL     1     113.838 130.127 139.591  0.00  0.00    +0.000 C 
ATOM     44  C   UNL     1     114.060 130.526 138.905  0.00  0.00    +0.000 C 
ENDBRANCH  38  43
ENDBRANCH  34  41
ENDBRANCH  33  34
ENDBRANCH  28  33
ENDBRANCH   1  32
TORSDOF 8
ENDMDL
MODEL 8
REMARK VINA RESULT:      -9.5      1.090      2.885
REMARK  Name = 131752225
REMARK  8 active torsions:
REMARK  status: ('A' for Active; 'I' for Inactive)
REMARK    1  A    between atoms: O_2  and  C_21
REMARK    2  A    between atoms: O_2  and  C_25
REMARK    3  A    between atoms: O_8  and  C_26
REMARK    4  A    between atoms: O_8  and  C_29
REMARK    5  A    between atoms: O_15  and  C_41
REMARK    6  A    between atoms: C_17  and  C_27
REMARK    7  A    between atoms: C_20  and  C_25
REMARK    8  A    between atoms: C_30  and  C_33
REMARK                            x       y       z     vdW  Elec       q    Type
REMARK                         _______ _______ _______ _____ _____    ______ ____
ROOT
ATOM      1  O   UNL     1     111.810 127.773 136.210  0.00  0.00    +0.000 OA
ENDROOT
BRANCH   1   6
ATOM      2  O   UNL     1     111.648 125.612 136.475  0.00  0.00    +0.000 OA
ATOM      3  O   UNL     1     113.396 127.364 136.405  0.00  0.00    +0.000 OA
ATOM      4  O   UNL     1     114.429 126.381 136.624  0.00  0.00    +0.000 OA
ATOM      5  O   UNL     1     113.679 123.574 136.921  0.00  0.00    +0.000 OA
ATOM      6  C   UNL     1     112.020 126.985 136.331  0.00  0.00    +0.000 A 
ATOM      7  C   UNL     1     111.437 126.401 136.354  0.00  0.00    +0.000 A 
ATOM      8  C   UNL     1     112.813 126.779 136.428  0.00  0.00    +0.000 A 
ATOM      9  C   UNL     1     113.023 125.991 136.549  0.00  0.00    +0.000 A 
ATOM     10  C   UNL     1     112.441 125.408 136.573  0.00  0.00    +0.000 A 
ATOM     11  C   UNL     1     113.853 125.790 136.649  0.00  0.00    +0.000 A 
ATOM     12  C   UNL     1     112.648 124.584 136.698  0.00  0.00    +0.000 A 
ATOM     13  C   UNL     1     114.079 124.971 136.776  0.00  0.00    +0.000 A 
ATOM     14  C   UNL     1     113.473 124.363 136.800  0.00  0.00    +0.000 A 
BRANCH   7  16
ATOM     15  O   UNL     1     108.265 127.223 135.962  0.00  0.00    +0.000 OA
ATOM     16  C   UNL     1     110.644 126.606 136.257  0.00  0.00    +0.000 A 
ATOM     17  C   UNL     1     110.131 126.591 136.903  0.00  0.00    +0.000 A 
ATOM     18  C   UNL     1     110.364 126.827 135.512  0.00  0.00    +0.000 A 
ATOM     19  C   UNL     1     109.338 126.797 136.804  0.00  0.00    +0.000 A 
ATOM     20  C   UNL     1     109.571 127.032 135.415  0.00  0.00    +0.000 A 
ATOM     21  C   UNL     1     109.058 127.017 136.060  0.00  0.00    +0.000 A 
BRANCH  19  22
ATOM     22  O   UNL     1     108.825 126.782 137.450  0.00  0.00    +0.000 OA
ATOM     23  C   UNL     1     109.063 126.431 138.158  0.00  0.00    +0.000 C 
ENDBRANCH  19  22
ENDBRANCH   7  16
ENDBRANCH   1   6
BRANCH   1  32
ATOM     24  O   UNL     1     111.918 128.166 137.579  0.00  0.00    +0.000 OA
ATOM     25  O   UNL     1     112.559 130.048 138.480  0.00  0.00    +0.000 OA
ATOM     26  O   UNL     1     112.716 130.401 136.876  0.00  0.00    +0.000 OA
ATOM     27  O   UNL     1     112.341 129.263 135.741  0.00  0.00    +0.000 OA
ATOM     28  C   UNL     1     112.105 128.734 138.147  0.00  0.00    +0.000 C 
ATOM     29  C   UNL     1     112.371 129.479 137.912  0.00  0.00    +0.000 C 
ATOM     30  C   UNL     1     112.450 129.656 137.110  0.00  0.00    +0.000 C 
ATOM     31  C   UNL     1     112.262 129.086 136.542  0.00  0.00    +0.000 C 
ATOM     32  C   UNL     1     111.997 128.341 136.777  0.00  0.00    +0.000 C 
BRANCH  28  33
ATOM     33  C   UNL     1     112.027 128.558 138.949  0.00  0.00    +0.000 C 
BRANCH  33  34
ATOM     34  O   UNL     1     112.274 127.826 139.238  0.00  0.00    +0.000 OA
BRANCH  34  41
ATOM     35  O   UNL     1     111.678 128.046 140.564  0.00  0.00    +0.000 OA
ATOM     36  O   UNL     1     111.764 126.160 141.561  0.00  0.00    +0.000 OA
ATOM     37  O   UNL     1     112.437 126.165 139.898  0.00  0.00    +0.000 OA
ATOM     38  C   UNL     1     111.534 127.572 141.224  0.00  0.00    +0.000 C 
ATOM     39  C   UNL     1     111.800 126.811 141.055  0.00  0.00    +0.000 C 
ATOM     40  C   UNL     1     112.110 126.813 140.290  0.00  0.00    +0.000 C 
ATOM     41  C   UNL     1     112.035 127.576 139.987  0.00  0.00    +0.000 C 
BRANCH  38  43
ATOM     42  O   UNL     1     110.400 127.617 142.092  0.00  0.00    +0.000 OA
ATOM     43  C   UNL     1     111.184 127.818 141.929  0.00  0.00    +0.000 C 
ATOM     44  C   UNL     1     111.616 128.265 142.471  0.00  0.00    +0.000 C 
ENDBRANCH  38  43
ENDBRANCH  34  41
ENDBRANCH  33  34
ENDBRANCH  28  33
ENDBRANCH   1  32
TORSDOF 8
ENDMDL
MODEL 9
REMARK VINA RESULT:      -9.4      1.692      3.074
REMARK  Name = 131752225
REMARK  8 active torsions:
REMARK  status: ('A' for Active; 'I' for Inactive)
REMARK    1  A    between atoms: O_2  and  C_21
REMARK    2  A    between atoms: O_2  and  C_25
REMARK    3  A    between atoms: O_8  and  C_26
REMARK    4  A    between atoms: O_8  and  C_29
REMARK    5  A    between atoms: O_15  and  C_41
REMARK    6  A    between atoms: C_17  and  C_27
REMARK    7  A    between atoms: C_20  and  C_25
REMARK    8  A    between atoms: C_30  and  C_33
REMARK                            x       y       z     vdW  Elec       q    Type
REMARK                         _______ _______ _______ _____ _____    ______ ____
ROOT
ATOM      1  O   UNL     1     111.095 127.827 135.482  0.00  0.00    +0.000 OA
ENDROOT
BRANCH   1   6
ATOM      2  O   UNL     1     111.817 129.737 136.254  0.00  0.00    +0.000 OA
ATOM      3  O   UNL     1     112.727 127.589 135.424  0.00  0.00    +0.000 OA
ATOM      4  O   UNL     1     114.079 128.047 135.636  0.00  0.00    +0.000 OA
ATOM      5  O   UNL     1     114.518 130.729 136.706  0.00  0.00    +0.000 OA
ATOM      6  C   UNL     1     111.608 128.424 135.730  0.00  0.00    +0.000 A 
ATOM      7  C   UNL     1     111.305 129.140 136.006  0.00  0.00    +0.000 A 
ATOM      8  C   UNL     1     112.423 128.306 135.701  0.00  0.00    +0.000 A 
ATOM      9  C   UNL     1     112.936 128.902 135.949  0.00  0.00    +0.000 A 
ATOM     10  C   UNL     1     112.633 129.618 136.225  0.00  0.00    +0.000 A 
ATOM     11  C   UNL     1     113.784 128.766 135.914  0.00  0.00    +0.000 A 
ATOM     12  C   UNL     1     113.157 130.247 136.485  0.00  0.00    +0.000 A 
ATOM     13  C   UNL     1     114.324 129.384 136.170  0.00  0.00    +0.000 A 
ATOM     14  C   UNL     1     114.008 130.129 136.458  0.00  0.00    +0.000 A 
BRANCH   7  16
ATOM     15  O   UNL     1     108.040 129.613 136.118  0.00  0.00    +0.000 OA
ATOM     16  C   UNL     1     110.489 129.258 136.035  0.00  0.00    +0.000 A 
ATOM     17  C   UNL     1     110.096 129.254 136.760  0.00  0.00    +0.000 A 
ATOM     18  C   UNL     1     110.065 129.381 135.337  0.00  0.00    +0.000 A 
ATOM     19  C   UNL     1     109.280 129.373 136.788  0.00  0.00    +0.000 A 
ATOM     20  C   UNL     1     109.249 129.499 135.365  0.00  0.00    +0.000 A 
ATOM     21  C   UNL     1     108.857 129.495 136.091  0.00  0.00    +0.000 A 
BRANCH  19  22
ATOM     22  O   UNL     1     108.887 129.369 137.513  0.00  0.00    +0.000 OA
ATOM     23  C   UNL     1     109.302 129.531 138.208  0.00  0.00    +0.000 C 
ENDBRANCH  19  22
ENDBRANCH   7  16
ENDBRANCH   1   6
BRANCH   1  32
ATOM     24  O   UNL     1     111.241 127.049 136.672  0.00  0.00    +0.000 OA
ATOM     25  O   UNL     1     111.128 124.892 136.992  0.00  0.00    +0.000 OA
ATOM     26  O   UNL     1     110.852 124.981 135.367  0.00  0.00    +0.000 OA
ATOM     27  O   UNL     1     110.836 126.449 134.612  0.00  0.00    +0.000 OA
ATOM     28  C   UNL     1     111.249 126.316 137.049  0.00  0.00    +0.000 C 
ATOM     29  C   UNL     1     111.120 125.627 136.614  0.00  0.00    +0.000 C 
ATOM     30  C   UNL     1     110.982 125.670 135.802  0.00  0.00    +0.000 C 
ATOM     31  C   UNL     1     110.974 126.405 135.425  0.00  0.00    +0.000 C 
ATOM     32  C   UNL     1     111.103 127.094 135.859  0.00  0.00    +0.000 C 
BRANCH  28  33
ATOM     33  C   UNL     1     111.387 126.270 137.861  0.00  0.00    +0.000 C 
BRANCH  33  34
ATOM     34  O   UNL     1     112.078 126.586 138.181  0.00  0.00    +0.000 OA
BRANCH  34  41
ATOM     35  O   UNL     1     111.549 126.624 139.553  0.00  0.00    +0.000 OA
ATOM     36  O   UNL     1     113.241 126.911 140.823  0.00  0.00    +0.000 OA
ATOM     37  O   UNL     1     113.619 126.828 139.070  0.00  0.00    +0.000 OA
ATOM     38  C   UNL     1     111.880 126.717 140.303  0.00  0.00    +0.000 C 
ATOM     39  C   UNL     1     112.695 126.804 140.213  0.00  0.00    +0.000 C 
ATOM     40  C   UNL     1     112.869 126.766 139.407  0.00  0.00    +0.000 C 
ATOM     41  C   UNL     1     112.161 126.655 138.999  0.00  0.00    +0.000 C 
BRANCH  38  43
ATOM     42  O   UNL     1     111.239 126.008 141.365  0.00  0.00    +0.000 OA
ATOM     43  C   UNL     1     111.467 126.721 141.017  0.00  0.00    +0.000 C 
ATOM     44  C   UNL     1     111.281 127.435 141.382  0.00  0.00    +0.000 C 
ENDBRANCH  38  43
ENDBRANCH  34  41
ENDBRANCH  33  34
ENDBRANCH  28  33
ENDBRANCH   1  32
TORSDOF 8
ENDMDL
MODEL 10
REMARK VINA RESULT:      -9.4      1.940      3.487
REMARK  Name = 131752225
REMARK  8 active torsions:
REMARK  status: ('A' for Active; 'I' for Inactive)
REMARK    1  A    between atoms: O_2  and  C_21
REMARK    2  A    between atoms: O_2  and  C_25
REMARK    3  A    between atoms: O_8  and  C_26
REMARK    4  A    between atoms: O_8  and  C_29
REMARK    5  A    between atoms: O_15  and  C_41
REMARK    6  A    between atoms: C_17  and  C_27
REMARK    7  A    between atoms: C_20  and  C_25
REMARK    8  A    between atoms: C_30  and  C_33
REMARK                            x       y       z     vdW  Elec       q    Type
REMARK                         _______ _______ _______ _____ _____    ______ ____
ROOT
ATOM      1  O   UNL     1     110.837 127.361 135.838  0.00  0.00    +0.000 OA
ENDROOT
BRANCH   1   6
ATOM      2  O   UNL     1     112.997 127.370 136.158  0.00  0.00    +0.000 OA
ATOM      3  O   UNL     1     111.264 128.746 135.048  0.00  0.00    +0.000 OA
ATOM      4  O   UNL     1     112.257 129.697 134.612  0.00  0.00    +0.000 OA
ATOM      5  O   UNL     1     115.057 129.247 135.312  0.00  0.00    +0.000 OA
ATOM      6  C   UNL     1     111.628 127.595 135.813  0.00  0.00    +0.000 A 
ATOM      7  C   UNL     1     112.206 127.136 136.183  0.00  0.00    +0.000 A 
ATOM      8  C   UNL     1     111.842 128.287 135.419  0.00  0.00    +0.000 A 
ATOM      9  C   UNL     1     112.633 128.521 135.394  0.00  0.00    +0.000 A 
ATOM     10  C   UNL     1     113.210 128.062 135.763  0.00  0.00    +0.000 A 
ATOM     11  C   UNL     1     112.842 129.244 134.979  0.00  0.00    +0.000 A 
ATOM     12  C   UNL     1     114.036 128.296 135.744  0.00  0.00    +0.000 A 
ATOM     13  C   UNL     1     113.663 129.493 134.950  0.00  0.00    +0.000 A 
ATOM     14  C   UNL     1     114.265 129.016 135.335  0.00  0.00    +0.000 A 
BRANCH   7  16
ATOM     15  O   UNL     1     111.351 124.365 137.759  0.00  0.00    +0.000 OA
ATOM     16  C   UNL     1     111.993 126.444 136.578  0.00  0.00    +0.000 A 
ATOM     17  C   UNL     1     111.974 126.427 137.402  0.00  0.00    +0.000 A 
ATOM     18  C   UNL     1     111.798 125.767 136.146  0.00  0.00    +0.000 A 
ATOM     19  C   UNL     1     111.760 125.734 137.796  0.00  0.00    +0.000 A 
ATOM     20  C   UNL     1     111.584 125.075 136.541  0.00  0.00    +0.000 A 
ATOM     21  C   UNL     1     111.565 125.059 137.366  0.00  0.00    +0.000 A 
BRANCH  19  22
ATOM     22  O   UNL     1     111.741 125.718 138.620  0.00  0.00    +0.000 OA
ATOM     23  C   UNL     1     112.273 126.176 139.055  0.00  0.00    +0.000 C 
ENDBRANCH  19  22
ENDBRANCH   7  16
ENDBRANCH   1   6
BRANCH   1  32
ATOM     24  O   UNL     1     110.438 128.339 136.800  0.00  0.00    +0.000 OA
ATOM     25  O   UNL     1     108.550 129.405 137.055  0.00  0.00    +0.000 OA
ATOM     26  O   UNL     1     108.205 128.470 135.740  0.00  0.00    +0.000 OA
ATOM     27  O   UNL     1     109.349 127.448 135.131  0.00  0.00    +0.000 OA
ATOM     28  C   UNL     1     109.867 128.850 137.104  0.00  0.00    +0.000 C 
ATOM     29  C   UNL     1     109.122 128.893 136.751  0.00  0.00    +0.000 C 
ATOM     30  C   UNL     1     108.949 128.426 136.093  0.00  0.00    +0.000 C 
ATOM     31  C   UNL     1     109.522 127.915 135.789  0.00  0.00    +0.000 C 
ATOM     32  C   UNL     1     110.266 127.871 136.142  0.00  0.00    +0.000 C 
BRANCH  28  33
ATOM     33  C   UNL     1     110.038 129.318 137.762  0.00  0.00    +0.000 C 
BRANCH  33  34
ATOM     34  O   UNL     1     110.785 129.282 138.110  0.00  0.00    +0.000 OA
BRANCH  34  41
ATOM     35  O   UNL     1     110.405 130.118 139.259  0.00  0.00    +0.000 OA
ATOM     36  O   UNL     1     112.239 130.737 140.161  0.00  0.00    +0.000 OA
ATOM     37  O   UNL     1     112.425 129.690 138.715  0.00  0.00    +0.000 OA
ATOM     38  C   UNL     1     110.819 130.531 139.841  0.00  0.00    +0.000 C 
ATOM     39  C   UNL     1     111.625 130.421 139.708  0.00  0.00    +0.000 C 
ATOM     40  C   UNL     1     111.710 129.940 139.044  0.00  0.00    +0.000 C 
ATOM     41  C   UNL     1     110.957 129.752 138.766  0.00  0.00    +0.000 C 
BRANCH  38  43
ATOM     42  O   UNL     1     110.380 131.790 140.355  0.00  0.00    +0.000 OA
ATOM     43  C   UNL     1     110.483 130.976 140.449  0.00  0.00    +0.000 C 
ATOM     44  C   UNL     1     110.252 130.610 141.150  0.00  0.00    +0.000 C 
ENDBRANCH  38  43
ENDBRANCH  34  41
ENDBRANCH  33  34
ENDBRANCH  28  33
ENDBRANCH   1  32
TORSDOF 8
ENDMDL
