MODEL 1
REMARK VINA RESULT:      -7.6      0.000      0.000
REMARK  Name = 632135
REMARK  6 active torsions:
REMARK  status: ('A' for Active; 'I' for Inactive)
REMARK    1  A    between atoms: O_2  and  C_11
REMARK    2  A    between atoms: O_3  and  C_12
REMARK    3  A    between atoms: O_4  and  C_16
REMARK    4  A    between atoms: O_6  and  C_20
REMARK    5  A    between atoms: O_7  and  C_21
REMARK    6  A    between atoms: C_10  and  C_14
REMARK                            x       y       z     vdW  Elec       q    Type
REMARK                         _______ _______ _______ _____ _____    ______ ____
ROOT
ATOM      1  O   UNL     1     104.210 124.475 146.716  0.00  0.00    +0.000 OA
ATOM      2  O   UNL     1     102.808 125.545 148.533  0.00  0.00    +0.000 OA
ATOM      3  C   UNL     1     102.904 124.718 147.333  0.00  0.00    +0.000 A 
ATOM      4  C   UNL     1     103.358 124.368 146.740  0.00  0.00    +0.000 A 
ATOM      5  C   UNL     1     104.595 124.953 147.319  0.00  0.00    +0.000 A 
ATOM      6  C   UNL     1     102.995 123.907 146.159  0.00  0.00    +0.000 A 
ATOM      7  C   UNL     1     102.086 124.607 147.345  0.00  0.00    +0.000 A 
ATOM      8  C   UNL     1     103.270 125.199 147.943  0.00  0.00    +0.000 A 
ATOM      9  C   UNL     1     104.121 125.317 147.936  0.00  0.00    +0.000 A 
ATOM     10  C   UNL     1     102.177 123.798 146.172  0.00  0.00    +0.000 A 
ATOM     11  C   UNL     1     101.723 124.147 146.765  0.00  0.00    +0.000 A 
ENDROOT
BRANCH   5  12
ATOM     12  C   UNL     1     105.412 125.061 147.304  0.00  0.00    +0.000 A 
ATOM     13  C   UNL     1     105.756 125.526 146.715  0.00  0.00    +0.000 A 
ATOM     14  C   UNL     1     105.887 124.706 147.877  0.00  0.00    +0.000 A 
ATOM     15  C   UNL     1     106.573 125.635 146.699  0.00  0.00    +0.000 A 
ATOM     16  C   UNL     1     107.048 125.279 147.273  0.00  0.00    +0.000 A 
ATOM     17  C   UNL     1     106.704 124.814 147.862  0.00  0.00    +0.000 A 
BRANCH  15  18
ATOM     18  O   UNL     1     106.917 126.100 146.111  0.00  0.00    +0.000 OA
ATOM     19  C   UNL     1     106.452 126.404 145.501  0.00  0.00    +0.000 C 
ENDBRANCH  15  18
BRANCH  16  20
ATOM     20  O   UNL     1     107.865 125.387 147.258  0.00  0.00    +0.000 OA
ATOM     21  C   UNL     1     108.335 125.067 147.855  0.00  0.00    +0.000 C 
ENDBRANCH  16  20
ENDBRANCH   5  12
BRANCH   6  22
ATOM     22  O   UNL     1     103.449 123.558 145.567  0.00  0.00    +0.000 OA
ATOM     23  C   UNL     1     103.564 122.741 145.563  0.00  0.00    +0.000 C 
ENDBRANCH   6  22
BRANCH   7  24
ATOM     24  O   UNL     1     101.632 124.957 147.938  0.00  0.00    +0.000 OA
ATOM     25  C   UNL     1     101.258 124.487 148.504  0.00  0.00    +0.000 C 
ENDBRANCH   7  24
BRANCH  10  26
ATOM     26  O   UNL     1     101.814 123.337 145.591  0.00  0.00    +0.000 OA
ATOM     27  C   UNL     1     100.994 123.350 145.509  0.00  0.00    +0.000 C 
ENDBRANCH  10  26
TORSDOF 6
ENDMDL
MODEL 2
REMARK VINA RESULT:      -7.5      1.009      4.834
REMARK  Name = 632135
REMARK  6 active torsions:
REMARK  status: ('A' for Active; 'I' for Inactive)
REMARK    1  A    between atoms: O_2  and  C_11
REMARK    2  A    between atoms: O_3  and  C_12
REMARK    3  A    between atoms: O_4  and  C_16
REMARK    4  A    between atoms: O_6  and  C_20
REMARK    5  A    between atoms: O_7  and  C_21
REMARK    6  A    between atoms: C_10  and  C_14
REMARK                            x       y       z     vdW  Elec       q    Type
REMARK                         _______ _______ _______ _____ _____    ______ ____
ROOT
ATOM      1  O   UNL     1     104.801 124.342 147.408  0.00  0.00    +0.000 OA
ATOM      2  O   UNL     1     105.924 125.463 145.435  0.00  0.00    +0.000 OA
ATOM      3  C   UNL     1     105.970 125.000 146.819  0.00  0.00    +0.000 A 
ATOM      4  C   UNL     1     105.606 124.635 147.464  0.00  0.00    +0.000 A 
ATOM      5  C   UNL     1     104.367 124.430 146.671  0.00  0.00    +0.000 A 
ATOM      6  C   UNL     1     106.017 124.548 148.175  0.00  0.00    +0.000 A 
ATOM      7  C   UNL     1     106.744 125.278 146.886  0.00  0.00    +0.000 A 
ATOM      8  C   UNL     1     105.553 125.097 146.075  0.00  0.00    +0.000 A 
ATOM      9  C   UNL     1     104.746 124.810 146.000  0.00  0.00    +0.000 A 
ATOM     10  C   UNL     1     106.791 124.826 148.240  0.00  0.00    +0.000 A 
ATOM     11  C   UNL     1     107.154 125.191 147.596  0.00  0.00    +0.000 A 
ENDROOT
BRANCH   5  12
ATOM     12  C   UNL     1     103.594 124.151 146.608  0.00  0.00    +0.000 A 
ATOM     13  C   UNL     1     102.976 124.564 146.967  0.00  0.00    +0.000 A 
ATOM     14  C   UNL     1     103.436 123.461 146.185  0.00  0.00    +0.000 A 
ATOM     15  C   UNL     1     102.202 124.287 146.905  0.00  0.00    +0.000 A 
ATOM     16  C   UNL     1     102.045 123.595 146.482  0.00  0.00    +0.000 A 
ATOM     17  C   UNL     1     102.662 123.182 146.122  0.00  0.00    +0.000 A 
BRANCH  15  18
ATOM     18  O   UNL     1     101.585 124.699 147.264  0.00  0.00    +0.000 OA
ATOM     19  C   UNL     1     101.737 125.188 147.911  0.00  0.00    +0.000 C 
ENDBRANCH  15  18
BRANCH  16  20
ATOM     20  O   UNL     1     101.272 123.317 146.419  0.00  0.00    +0.000 OA
ATOM     21  C   UNL     1     101.085 122.739 145.861  0.00  0.00    +0.000 C 
ENDBRANCH  16  20
ENDBRANCH   5  12
BRANCH   6  22
ATOM     22  O   UNL     1     105.654 124.183 148.818  0.00  0.00    +0.000 OA
ATOM     23  C   UNL     1     105.436 124.630 149.477  0.00  0.00    +0.000 C 
ENDBRANCH   6  22
BRANCH   7  24
ATOM     24  O   UNL     1     107.107 125.643 146.241  0.00  0.00    +0.000 OA
ATOM     25  C   UNL     1     107.191 126.463 146.225  0.00  0.00    +0.000 C 
ENDBRANCH   7  24
BRANCH  10  26
ATOM     26  O   UNL     1     107.202 124.738 148.951  0.00  0.00    +0.000 OA
ATOM     27  C   UNL     1     108.013 124.593 148.942  0.00  0.00    +0.000 C 
ENDBRANCH  10  26
TORSDOF 6
ENDMDL
MODEL 3
REMARK VINA RESULT:      -7.4      8.425      9.775
REMARK  Name = 632135
REMARK  6 active torsions:
REMARK  status: ('A' for Active; 'I' for Inactive)
REMARK    1  A    between atoms: O_2  and  C_11
REMARK    2  A    between atoms: O_3  and  C_12
REMARK    3  A    between atoms: O_4  and  C_16
REMARK    4  A    between atoms: O_6  and  C_20
REMARK    5  A    between atoms: O_7  and  C_21
REMARK    6  A    between atoms: C_10  and  C_14
REMARK                            x       y       z     vdW  Elec       q    Type
REMARK                         _______ _______ _______ _____ _____    ______ ____
ROOT
ATOM      1  O   UNL     1     102.817 132.002 141.191  0.00  0.00    +0.000 OA
ATOM      2  O   UNL     1     100.711 132.212 142.581  0.00  0.00    +0.000 OA
ATOM      3  C   UNL     1     101.751 132.829 141.762  0.00  0.00    +0.000 A 
ATOM      4  C   UNL     1     102.437 132.764 141.308  0.00  0.00    +0.000 A 
ATOM      5  C   UNL     1     102.477 131.299 141.550  0.00  0.00    +0.000 A 
ATOM      6  C   UNL     1     102.768 133.435 140.961  0.00  0.00    +0.000 A 
ATOM      7  C   UNL     1     101.396 133.566 141.868  0.00  0.00    +0.000 A 
ATOM      8  C   UNL     1     101.397 132.138 142.129  0.00  0.00    +0.000 A 
ATOM      9  C   UNL     1     101.763 131.367 142.022  0.00  0.00    +0.000 A 
ATOM     10  C   UNL     1     102.412 134.172 141.067  0.00  0.00    +0.000 A 
ATOM     11  C   UNL     1     101.726 134.237 141.520  0.00  0.00    +0.000 A 
ENDROOT
BRANCH   5  12
ATOM     12  C   UNL     1     102.835 130.563 141.443  0.00  0.00    +0.000 A 
ATOM     13  C   UNL     1     102.650 130.108 140.780  0.00  0.00    +0.000 A 
ATOM     14  C   UNL     1     103.378 130.283 141.997  0.00  0.00    +0.000 A 
ATOM     15  C   UNL     1     103.007 129.372 140.671  0.00  0.00    +0.000 A 
ATOM     16  C   UNL     1     103.550 129.091 141.227  0.00  0.00    +0.000 A 
ATOM     17  C   UNL     1     103.735 129.547 141.889  0.00  0.00    +0.000 A 
BRANCH  15  18
ATOM     18  O   UNL     1     102.822 128.917 140.009  0.00  0.00    +0.000 OA
ATOM     19  C   UNL     1     102.268 129.190 139.462  0.00  0.00    +0.000 C 
ENDBRANCH  15  18
BRANCH  16  20
ATOM     20  O   UNL     1     103.907 128.357 141.119  0.00  0.00    +0.000 OA
ATOM     21  C   UNL     1     104.467 128.086 141.660  0.00  0.00    +0.000 C 
ENDBRANCH  16  20
ENDBRANCH   5  12
BRANCH   6  22
ATOM     22  O   UNL     1     103.453 133.370 140.508  0.00  0.00    +0.000 OA
ATOM     23  C   UNL     1     104.174 133.635 140.808  0.00  0.00    +0.000 C 
ENDBRANCH   6  22
BRANCH   7  24
ATOM     24  O   UNL     1     100.710 133.632 142.321  0.00  0.00    +0.000 OA
ATOM     25  C   UNL     1     100.715 134.078 143.015  0.00  0.00    +0.000 C 
ENDBRANCH   7  24
BRANCH  10  26
ATOM     26  O   UNL     1     102.743 134.843 140.719  0.00  0.00    +0.000 OA
ATOM     27  C   UNL     1     102.260 135.478 140.508  0.00  0.00    +0.000 C 
ENDBRANCH  10  26
TORSDOF 6
ENDMDL
MODEL 4
REMARK VINA RESULT:      -7.3     12.860     14.286
REMARK  Name = 632135
REMARK  6 active torsions:
REMARK  status: ('A' for Active; 'I' for Inactive)
REMARK    1  A    between atoms: O_2  and  C_11
REMARK    2  A    between atoms: O_3  and  C_12
REMARK    3  A    between atoms: O_4  and  C_16
REMARK    4  A    between atoms: O_6  and  C_20
REMARK    5  A    between atoms: O_7  and  C_21
REMARK    6  A    between atoms: C_10  and  C_14
REMARK                            x       y       z     vdW  Elec       q    Type
REMARK                         _______ _______ _______ _____ _____    ______ ____
ROOT
ATOM      1  O   UNL     1     113.090 127.291 136.301  0.00  0.00    +0.000 OA
ATOM      2  O   UNL     1     110.794 127.564 135.268  0.00  0.00    +0.000 OA
ATOM      3  C   UNL     1     111.790 126.726 135.930  0.00  0.00    +0.000 A 
ATOM      4  C   UNL     1     112.537 126.634 136.267  0.00  0.00    +0.000 A 
ATOM      5  C   UNL     1     112.861 128.054 135.979  0.00  0.00    +0.000 A 
ATOM      6  C   UNL     1     112.763 125.903 136.578  0.00  0.00    +0.000 A 
ATOM      7  C   UNL     1     111.269 126.087 135.904  0.00  0.00    +0.000 A 
ATOM      8  C   UNL     1     111.543 127.481 135.603  0.00  0.00    +0.000 A 
ATOM      9  C   UNL     1     112.083 128.150 135.628  0.00  0.00    +0.000 A 
ATOM     10  C   UNL     1     112.241 125.265 136.551  0.00  0.00    +0.000 A 
ATOM     11  C   UNL     1     111.494 125.357 136.214  0.00  0.00    +0.000 A 
ENDROOT
BRANCH   5  12
ATOM     12  C   UNL     1     113.385 128.691 136.006  0.00  0.00    +0.000 A 
ATOM     13  C   UNL     1     113.406 129.179 136.671  0.00  0.00    +0.000 A 
ATOM     14  C   UNL     1     113.888 128.840 135.370  0.00  0.00    +0.000 A 
ATOM     15  C   UNL     1     113.929 129.816 136.700  0.00  0.00    +0.000 A 
ATOM     16  C   UNL     1     114.433 129.965 136.063  0.00  0.00    +0.000 A 
ATOM     17  C   UNL     1     114.412 129.477 135.398  0.00  0.00    +0.000 A 
BRANCH  15  18
ATOM     18  O   UNL     1     113.950 130.304 137.365  0.00  0.00    +0.000 OA
ATOM     19  C   UNL     1     113.511 130.107 138.035  0.00  0.00    +0.000 C 
ENDBRANCH  15  18
BRANCH  16  20
ATOM     20  O   UNL     1     114.956 130.601 136.091  0.00  0.00    +0.000 OA
ATOM     21  C   UNL     1     115.416 130.786 135.432  0.00  0.00    +0.000 C 
ENDBRANCH  16  20
ENDBRANCH   5  12
BRANCH   6  22
ATOM     22  O   UNL     1     113.510 125.811 136.915  0.00  0.00    +0.000 OA
ATOM     23  C   UNL     1     114.083 125.360 136.531  0.00  0.00    +0.000 C 
ENDBRANCH   6  22
BRANCH   7  24
ATOM     24  O   UNL     1     110.521 126.179 135.567  0.00  0.00    +0.000 OA
ATOM     25  C   UNL     1     110.319 125.755 134.889  0.00  0.00    +0.000 C 
ENDBRANCH   7  24
BRANCH  10  26
ATOM     26  O   UNL     1     112.467 124.534 136.862  0.00  0.00    +0.000 OA
ATOM     27  C   UNL     1     111.893 124.004 137.126  0.00  0.00    +0.000 C 
ENDBRANCH  10  26
TORSDOF 6
ENDMDL
MODEL 5
REMARK VINA RESULT:      -7.2      0.594      2.014
REMARK  Name = 632135
REMARK  6 active torsions:
REMARK  status: ('A' for Active; 'I' for Inactive)
REMARK    1  A    between atoms: O_2  and  C_11
REMARK    2  A    between atoms: O_3  and  C_12
REMARK    3  A    between atoms: O_4  and  C_16
REMARK    4  A    between atoms: O_6  and  C_20
REMARK    5  A    between atoms: O_7  and  C_21
REMARK    6  A    between atoms: C_10  and  C_14
REMARK                            x       y       z     vdW  Elec       q    Type
REMARK                         _______ _______ _______ _____ _____    ______ ____
ROOT
ATOM      1  O   UNL     1     104.015 124.903 147.551  0.00  0.00    +0.000 OA
ATOM      2  O   UNL     1     103.211 123.220 145.838  0.00  0.00    +0.000 OA
ATOM      3  C   UNL     1     102.928 124.129 146.946  0.00  0.00    +0.000 A 
ATOM      4  C   UNL     1     103.188 124.678 147.505  0.00  0.00    +0.000 A 
ATOM      5  C   UNL     1     104.581 124.552 147.007  0.00  0.00    +0.000 A 
ATOM      6  C   UNL     1     102.649 125.019 148.030  0.00  0.00    +0.000 A 
ATOM      7  C   UNL     1     102.130 123.921 146.912  0.00  0.00    +0.000 A 
ATOM      8  C   UNL     1     103.478 123.768 146.394  0.00  0.00    +0.000 A 
ATOM      9  C   UNL     1     104.311 123.980 146.425  0.00  0.00    +0.000 A 
ATOM     10  C   UNL     1     101.852 124.810 147.995  0.00  0.00    +0.000 A 
ATOM     11  C   UNL     1     101.592 124.262 147.436  0.00  0.00    +0.000 A 
ENDROOT
BRANCH   5  12
ATOM     12  C   UNL     1     105.378 124.761 147.044  0.00  0.00    +0.000 A 
ATOM     13  C   UNL     1     105.721 125.187 146.426  0.00  0.00    +0.000 A 
ATOM     14  C   UNL     1     105.832 124.546 147.697  0.00  0.00    +0.000 A 
ATOM     15  C   UNL     1     106.518 125.398 146.461  0.00  0.00    +0.000 A 
ATOM     16  C   UNL     1     106.972 125.182 147.116  0.00  0.00    +0.000 A 
ATOM     17  C   UNL     1     106.629 124.756 147.734  0.00  0.00    +0.000 A 
BRANCH  15  18
ATOM     18  O   UNL     1     106.861 125.824 145.844  0.00  0.00    +0.000 OA
ATOM     19  C   UNL     1     106.389 126.284 145.348  0.00  0.00    +0.000 C 
ENDBRANCH  15  18
BRANCH  16  20
ATOM     20  O   UNL     1     107.768 125.392 147.152  0.00  0.00    +0.000 OA
ATOM     21  C   UNL     1     108.232 125.144 147.788  0.00  0.00    +0.000 C 
ENDBRANCH  16  20
ENDBRANCH   5  12
BRANCH   6  22
ATOM     22  O   UNL     1     102.908 125.566 148.588  0.00  0.00    +0.000 OA
ATOM     23  C   UNL     1     102.710 126.363 148.508  0.00  0.00    +0.000 C 
ENDBRANCH   6  22
BRANCH   7  24
ATOM     24  O   UNL     1     101.871 123.373 146.353  0.00  0.00    +0.000 OA
ATOM     25  C   UNL     1     101.227 123.550 145.869  0.00  0.00    +0.000 C 
ENDBRANCH   7  24
BRANCH  10  26
ATOM     26  O   UNL     1     101.313 125.151 148.520  0.00  0.00    +0.000 OA
ATOM     27  C   UNL     1     100.774 124.675 148.924  0.00  0.00    +0.000 C 
ENDBRANCH  10  26
TORSDOF 6
ENDMDL
MODEL 6
REMARK VINA RESULT:      -7.2     12.641     14.417
REMARK  Name = 632135
REMARK  6 active torsions:
REMARK  status: ('A' for Active; 'I' for Inactive)
REMARK    1  A    between atoms: O_2  and  C_11
REMARK    2  A    between atoms: O_3  and  C_12
REMARK    3  A    between atoms: O_4  and  C_16
REMARK    4  A    between atoms: O_6  and  C_20
REMARK    5  A    between atoms: O_7  and  C_21
REMARK    6  A    between atoms: C_10  and  C_14
REMARK                            x       y       z     vdW  Elec       q    Type
REMARK                         _______ _______ _______ _____ _____    ______ ____
ROOT
ATOM      1  O   UNL     1     112.496 128.077 135.677  0.00  0.00    +0.000 OA
ATOM      2  O   UNL     1     113.346 126.105 137.018  0.00  0.00    +0.000 OA
ATOM      3  C   UNL     1     112.307 126.721 136.197  0.00  0.00    +0.000 A 
ATOM      4  C   UNL     1     112.028 127.362 135.759  0.00  0.00    +0.000 A 
ATOM      5  C   UNL     1     113.266 128.126 136.056  0.00  0.00    +0.000 A 
ATOM      6  C   UNL     1     111.289 127.321 135.393  0.00  0.00    +0.000 A 
ATOM      7  C   UNL     1     111.848 126.039 136.268  0.00  0.00    +0.000 A 
ATOM      8  C   UNL     1     113.074 126.751 136.582  0.00  0.00    +0.000 A 
ATOM      9  C   UNL     1     113.557 127.458 136.511  0.00  0.00    +0.000 A 
ATOM     10  C   UNL     1     110.831 126.639 135.465  0.00  0.00    +0.000 A 
ATOM     11  C   UNL     1     111.110 125.998 135.902  0.00  0.00    +0.000 A 
ENDROOT
BRANCH   5  12
ATOM     12  C   UNL     1     113.723 128.809 135.982  0.00  0.00    +0.000 A 
ATOM     13  C   UNL     1     113.653 129.413 136.539  0.00  0.00    +0.000 A 
ATOM     14  C   UNL     1     114.249 128.888 135.353  0.00  0.00    +0.000 A 
ATOM     15  C   UNL     1     114.109 130.097 136.467  0.00  0.00    +0.000 A 
ATOM     16  C   UNL     1     114.637 130.176 135.836  0.00  0.00    +0.000 A 
ATOM     17  C   UNL     1     114.706 129.571 135.279  0.00  0.00    +0.000 A 
BRANCH  15  18
ATOM     18  O   UNL     1     114.040 130.701 137.024  0.00  0.00    +0.000 OA
ATOM     19  C   UNL     1     113.421 130.690 137.570  0.00  0.00    +0.000 C 
ENDBRANCH  15  18
BRANCH  16  20
ATOM     20  O   UNL     1     115.093 130.858 135.763  0.00  0.00    +0.000 OA
ATOM     21  C   UNL     1     115.600 130.949 135.120  0.00  0.00    +0.000 C 
ENDBRANCH  16  20
ENDBRANCH   5  12
BRANCH   6  22
ATOM     22  O   UNL     1     111.010 127.961 134.955  0.00  0.00    +0.000 OA
ATOM     23  C   UNL     1     110.390 128.421 135.246  0.00  0.00    +0.000 C 
ENDBRANCH   6  22
BRANCH   7  24
ATOM     24  O   UNL     1     112.127 125.398 136.706  0.00  0.00    +0.000 OA
ATOM     25  C   UNL     1     111.690 125.112 137.344  0.00  0.00    +0.000 C 
ENDBRANCH   7  24
BRANCH  10  26
ATOM     26  O   UNL     1     110.092 126.599 135.098  0.00  0.00    +0.000 OA
ATOM     27  C   UNL     1     109.814 125.877 134.810  0.00  0.00    +0.000 C 
ENDBRANCH  10  26
TORSDOF 6
ENDMDL
MODEL 7
REMARK VINA RESULT:      -7.1      1.098      4.665
REMARK  Name = 632135
REMARK  6 active torsions:
REMARK  status: ('A' for Active; 'I' for Inactive)
REMARK    1  A    between atoms: O_2  and  C_11
REMARK    2  A    between atoms: O_3  and  C_12
REMARK    3  A    between atoms: O_4  and  C_16
REMARK    4  A    between atoms: O_6  and  C_20
REMARK    5  A    between atoms: O_7  and  C_21
REMARK    6  A    between atoms: C_10  and  C_14
REMARK                            x       y       z     vdW  Elec       q    Type
REMARK                         _______ _______ _______ _____ _____    ______ ____
ROOT
ATOM      1  O   UNL     1     104.917 125.306 146.524  0.00  0.00    +0.000 OA
ATOM      2  O   UNL     1     106.265 124.356 148.446  0.00  0.00    +0.000 OA
ATOM      3  C   UNL     1     106.121 125.321 147.359  0.00  0.00    +0.000 A 
ATOM      4  C   UNL     1     105.684 125.633 146.733  0.00  0.00    +0.000 A 
ATOM      5  C   UNL     1     104.601 124.645 146.974  0.00  0.00    +0.000 A 
ATOM      6  C   UNL     1     105.982 126.267 146.296  0.00  0.00    +0.000 A 
ATOM      7  C   UNL     1     106.856 125.644 147.550  0.00  0.00    +0.000 A 
ATOM      8  C   UNL     1     105.821 124.662 147.820  0.00  0.00    +0.000 A 
ATOM      9  C   UNL     1     105.056 124.321 147.627  0.00  0.00    +0.000 A 
ATOM     10  C   UNL     1     106.717 126.589 146.488  0.00  0.00    +0.000 A 
ATOM     11  C   UNL     1     107.154 126.278 147.114  0.00  0.00    +0.000 A 
ENDROOT
BRANCH   5  12
ATOM     12  C   UNL     1     103.866 124.324 146.781  0.00  0.00    +0.000 A 
ATOM     13  C   UNL     1     103.808 123.750 146.192  0.00  0.00    +0.000 A 
ATOM     14  C   UNL     1     103.188 124.578 147.177  0.00  0.00    +0.000 A 
ATOM     15  C   UNL     1     103.074 123.429 145.998  0.00  0.00    +0.000 A 
ATOM     16  C   UNL     1     102.395 123.683 146.394  0.00  0.00    +0.000 A 
ATOM     17  C   UNL     1     102.453 124.257 146.984  0.00  0.00    +0.000 A 
BRANCH  15  18
ATOM     18  O   UNL     1     103.017 122.854 145.409  0.00  0.00    +0.000 OA
ATOM     19  C   UNL     1     103.641 122.740 144.882  0.00  0.00    +0.000 C 
ENDBRANCH  15  18
BRANCH  16  20
ATOM     20  O   UNL     1     101.661 123.362 146.201  0.00  0.00    +0.000 OA
ATOM     21  C   UNL     1     101.042 123.393 146.745  0.00  0.00    +0.000 C 
ENDBRANCH  16  20
ENDBRANCH   5  12
BRANCH   6  22
ATOM     22  O   UNL     1     105.545 126.578 145.670  0.00  0.00    +0.000 OA
ATOM     23  C   UNL     1     105.788 126.449 144.893  0.00  0.00    +0.000 C 
ENDBRANCH   6  22
BRANCH   7  24
ATOM     24  O   UNL     1     107.293 125.333 148.176  0.00  0.00    +0.000 OA
ATOM     25  C   UNL     1     108.030 124.991 148.036  0.00  0.00    +0.000 C 
ENDBRANCH   7  24
BRANCH  10  26
ATOM     26  O   UNL     1     107.015 127.224 146.051  0.00  0.00    +0.000 OA
ATOM     27  C   UNL     1     107.510 127.775 146.413  0.00  0.00    +0.000 C 
ENDBRANCH  10  26
TORSDOF 6
ENDMDL
MODEL 8
REMARK VINA RESULT:      -7.1     12.109     14.079
REMARK  Name = 632135
REMARK  6 active torsions:
REMARK  status: ('A' for Active; 'I' for Inactive)
REMARK    1  A    between atoms: O_2  and  C_11
REMARK    2  A    between atoms: O_3  and  C_12
REMARK    3  A    between atoms: O_4  and  C_16
REMARK    4  A    between atoms: O_6  and  C_20
REMARK    5  A    between atoms: O_7  and  C_21
REMARK    6  A    between atoms: C_10  and  C_14
REMARK                            x       y       z     vdW  Elec       q    Type
REMARK                         _______ _______ _______ _____ _____    ______ ____
ROOT
ATOM      1  O   UNL     1     112.156 127.767 136.969  0.00  0.00    +0.000 OA
ATOM      2  O   UNL     1     114.125 128.545 135.580  0.00  0.00    +0.000 OA
ATOM      3  C   UNL     1     113.039 128.842 136.510  0.00  0.00    +0.000 A 
ATOM      4  C   UNL     1     112.397 128.591 136.964  0.00  0.00    +0.000 A 
ATOM      5  C   UNL     1     112.590 127.195 136.495  0.00  0.00    +0.000 A 
ATOM      6  C   UNL     1     111.977 129.135 137.421  0.00  0.00    +0.000 A 
ATOM      7  C   UNL     1     113.260 129.637 136.513  0.00  0.00    +0.000 A 
ATOM      8  C   UNL     1     113.484 128.285 136.030  0.00  0.00    +0.000 A 
ATOM      9  C   UNL     1     113.258 127.456 136.023  0.00  0.00    +0.000 A 
ATOM     10  C   UNL     1     112.199 129.929 137.423  0.00  0.00    +0.000 A 
ATOM     11  C   UNL     1     112.841 130.180 136.970  0.00  0.00    +0.000 A 
ENDROOT
BRANCH   5  12
ATOM     12  C   UNL     1     112.366 126.401 136.494  0.00  0.00    +0.000 A 
ATOM     13  C   UNL     1     111.724 126.154 136.038  0.00  0.00    +0.000 A 
ATOM     14  C   UNL     1     112.782 125.853 136.948  0.00  0.00    +0.000 A 
ATOM     15  C   UNL     1     111.499 125.361 136.035  0.00  0.00    +0.000 A 
ATOM     16  C   UNL     1     111.917 124.813 136.491  0.00  0.00    +0.000 A 
ATOM     17  C   UNL     1     112.558 125.059 136.947  0.00  0.00    +0.000 A 
BRANCH  15  18
ATOM     18  O   UNL     1     110.858 125.114 135.579  0.00  0.00    +0.000 OA
ATOM     19  C   UNL     1     110.424 125.665 135.145  0.00  0.00    +0.000 C 
ENDBRANCH  15  18
BRANCH  16  20
ATOM     20  O   UNL     1     111.692 124.020 136.489  0.00  0.00    +0.000 OA
ATOM     21  C   UNL     1     112.095 123.476 136.961  0.00  0.00    +0.000 C 
ENDBRANCH  16  20
ENDBRANCH   5  12
BRANCH   6  22
ATOM     22  O   UNL     1     111.336 128.885 137.874  0.00  0.00    +0.000 OA
ATOM     23  C   UNL     1     111.404 128.837 138.694  0.00  0.00    +0.000 C 
ENDBRANCH   6  22
BRANCH   7  24
ATOM     24  O   UNL     1     113.902 129.887 136.060  0.00  0.00    +0.000 OA
ATOM     25  C   UNL     1     114.505 130.331 136.407  0.00  0.00    +0.000 C 
ENDBRANCH   7  24
BRANCH  10  26
ATOM     26  O   UNL     1     111.779 130.473 137.880  0.00  0.00    +0.000 OA
ATOM     27  C   UNL     1     111.672 131.245 137.608  0.00  0.00    +0.000 C 
ENDBRANCH  10  26
TORSDOF 6
ENDMDL
MODEL 9
REMARK VINA RESULT:      -7.1      2.507      3.991
REMARK  Name = 632135
REMARK  6 active torsions:
REMARK  status: ('A' for Active; 'I' for Inactive)
REMARK    1  A    between atoms: O_2  and  C_11
REMARK    2  A    between atoms: O_3  and  C_12
REMARK    3  A    between atoms: O_4  and  C_16
REMARK    4  A    between atoms: O_6  and  C_20
REMARK    5  A    between atoms: O_7  and  C_21
REMARK    6  A    between atoms: C_10  and  C_14
REMARK                            x       y       z     vdW  Elec       q    Type
REMARK                         _______ _______ _______ _____ _____    ______ ____
ROOT
ATOM      1  O   UNL     1     106.389 125.323 145.749  0.00  0.00    +0.000 OA
ATOM      2  O   UNL     1     106.530 127.835 145.467  0.00  0.00    +0.000 OA
ATOM      3  C   UNL     1     106.284 126.512 144.900  0.00  0.00    +0.000 A 
ATOM      4  C   UNL     1     106.238 125.693 144.989  0.00  0.00    +0.000 A 
ATOM      5  C   UNL     1     106.592 125.812 146.426  0.00  0.00    +0.000 A 
ATOM      6  C   UNL     1     106.044 125.218 144.342  0.00  0.00    +0.000 A 
ATOM      7  C   UNL     1     106.137 126.855 144.164  0.00  0.00    +0.000 A 
ATOM      8  C   UNL     1     106.486 127.017 145.564  0.00  0.00    +0.000 A 
ATOM      9  C   UNL     1     106.641 126.665 146.333  0.00  0.00    +0.000 A 
ATOM     10  C   UNL     1     105.896 125.562 143.608  0.00  0.00    +0.000 A 
ATOM     11  C   UNL     1     105.943 126.381 143.518  0.00  0.00    +0.000 A 
ENDROOT
BRANCH   5  12
ATOM     12  C   UNL     1     106.739 125.466 147.160  0.00  0.00    +0.000 A 
ATOM     13  C   UNL     1     106.112 125.289 147.666  0.00  0.00    +0.000 A 
ATOM     14  C   UNL     1     107.513 125.296 147.389  0.00  0.00    +0.000 A 
ATOM     15  C   UNL     1     106.258 124.942 148.400  0.00  0.00    +0.000 A 
ATOM     16  C   UNL     1     107.033 124.773 148.629  0.00  0.00    +0.000 A 
ATOM     17  C   UNL     1     107.660 124.950 148.123  0.00  0.00    +0.000 A 
BRANCH  15  18
ATOM     18  O   UNL     1     105.630 124.765 148.906  0.00  0.00    +0.000 OA
ATOM     19  C   UNL     1     104.855 124.783 148.623  0.00  0.00    +0.000 C 
ENDBRANCH  15  18
BRANCH  16  20
ATOM     20  O   UNL     1     107.179 124.426 149.362  0.00  0.00    +0.000 OA
ATOM     21  C   UNL     1     107.955 124.300 149.612  0.00  0.00    +0.000 C 
ENDBRANCH  16  20
ENDBRANCH   5  12
BRANCH   6  22
ATOM     22  O   UNL     1     105.997 124.400 144.432  0.00  0.00    +0.000 OA
ATOM     23  C   UNL     1     105.262 124.026 144.441  0.00  0.00    +0.000 C 
ENDBRANCH   6  22
BRANCH   7  24
ATOM     24  O   UNL     1     106.183 127.674 144.075  0.00  0.00    +0.000 OA
ATOM     25  C   UNL     1     105.518 128.103 143.843  0.00  0.00    +0.000 C 
ENDBRANCH   7  24
BRANCH  10  26
ATOM     26  O   UNL     1     105.702 125.087 142.961  0.00  0.00    +0.000 OA
ATOM     27  C   UNL     1     105.943 125.304 142.203  0.00  0.00    +0.000 C 
ENDBRANCH  10  26
TORSDOF 6
ENDMDL
MODEL 10
REMARK VINA RESULT:      -7.0     11.697     13.829
REMARK  Name = 632135
REMARK  6 active torsions:
REMARK  status: ('A' for Active; 'I' for Inactive)
REMARK    1  A    between atoms: O_2  and  C_11
REMARK    2  A    between atoms: O_3  and  C_12
REMARK    3  A    between atoms: O_4  and  C_16
REMARK    4  A    between atoms: O_6  and  C_20
REMARK    5  A    between atoms: O_7  and  C_21
REMARK    6  A    between atoms: C_10  and  C_14
REMARK                            x       y       z     vdW  Elec       q    Type
REMARK                         _______ _______ _______ _____ _____    ______ ____
ROOT
ATOM      1  O   UNL     1     112.194 126.744 136.806  0.00  0.00    +0.000 OA
ATOM      2  O   UNL     1     114.622 126.181 136.361  0.00  0.00    +0.000 OA
ATOM      3  C   UNL     1     113.268 125.753 136.703  0.00  0.00    +0.000 A 
ATOM      4  C   UNL     1     112.476 125.934 136.848  0.00  0.00    +0.000 A 
ATOM      5  C   UNL     1     112.744 127.375 136.609  0.00  0.00    +0.000 A 
ATOM      6  C   UNL     1     111.943 125.333 137.037  0.00  0.00    +0.000 A 
ATOM      7  C   UNL     1     113.527 124.971 136.747  0.00  0.00    +0.000 A 
ATOM      8  C   UNL     1     113.832 126.370 136.505  0.00  0.00    +0.000 A 
ATOM      9  C   UNL     1     113.569 127.187 136.458  0.00  0.00    +0.000 A 
ATOM     10  C   UNL     1     112.203 124.551 137.081  0.00  0.00    +0.000 A 
ATOM     11  C   UNL     1     112.995 124.370 136.935  0.00  0.00    +0.000 A 
ENDROOT
BRANCH   5  12
ATOM     12  C   UNL     1     112.482 128.156 136.566  0.00  0.00    +0.000 A 
ATOM     13  C   UNL     1     112.118 128.432 135.879  0.00  0.00    +0.000 A 
ATOM     14  C   UNL     1     112.584 128.662 137.209  0.00  0.00    +0.000 A 
ATOM     15  C   UNL     1     111.856 129.213 135.835  0.00  0.00    +0.000 A 
ATOM     16  C   UNL     1     111.958 129.719 136.479  0.00  0.00    +0.000 A 
ATOM     17  C   UNL     1     112.322 129.443 137.166  0.00  0.00    +0.000 A 
BRANCH  15  18
ATOM     18  O   UNL     1     111.492 129.489 135.147  0.00  0.00    +0.000 OA
ATOM     19  C   UNL     1     111.162 128.954 134.613  0.00  0.00    +0.000 C 
ENDBRANCH  15  18
BRANCH  16  20
ATOM     20  O   UNL     1     111.696 130.499 136.436  0.00  0.00    +0.000 OA
ATOM     21  C   UNL     1     111.820 131.012 137.070  0.00  0.00    +0.000 C 
ENDBRANCH  16  20
ENDBRANCH   5  12
BRANCH   6  22
ATOM     22  O   UNL     1     111.153 125.513 137.182  0.00  0.00    +0.000 OA
ATOM     23  C   UNL     1     110.854 125.474 137.950  0.00  0.00    +0.000 C 
ENDBRANCH   6  22
BRANCH   7  24
ATOM     24  O   UNL     1     114.319 124.790 136.601  0.00  0.00    +0.000 OA
ATOM     25  C   UNL     1     114.807 124.547 137.220  0.00  0.00    +0.000 C 
ENDBRANCH   7  24
BRANCH  10  26
ATOM     26  O   UNL     1     111.670 123.950 137.270  0.00  0.00    +0.000 OA
ATOM     27  C   UNL     1     111.839 123.169 137.062  0.00  0.00    +0.000 C 
ENDBRANCH  10  26
TORSDOF 6
ENDMDL
