MODEL 1
REMARK VINA RESULT:      -9.4      0.000      0.000
REMARK  Name = 131835917
REMARK  11 active torsions:
REMARK  status: ('A' for Active; 'I' for Inactive)
REMARK    1  A    between atoms: O_2  and  C_16
REMARK    2  A    between atoms: O_2  and  C_19
REMARK    3  A    between atoms: C_17  and  C_18
REMARK    4  A    between atoms: C_20  and  C_24
REMARK    5  A    between atoms: C_24  and  C_30
REMARK    6  A    between atoms: C_26  and  C_29
REMARK    7  A    between atoms: C_28  and  C_31
REMARK    8  A    between atoms: C_29  and  C_32
REMARK    9  A    between atoms: C_33  and  C_35
REMARK   10  A    between atoms: C_35  and  C_38
REMARK   11  A    between atoms: C_38  and  C_45
REMARK                            x       y       z     vdW  Elec       q    Type
REMARK                         _______ _______ _______ _____ _____    ______ ____
ROOT
ATOM      1  O   UNL     1     112.668 128.587 136.894  0.00  0.00    +0.000 OA
ATOM      2  O   UNL     1     110.456 127.863 136.052  0.00  0.00    +0.000 OA
ATOM      3  C   UNL     1     111.642 130.564 136.725  0.00  0.00    +0.000 A 
ATOM      4  C   UNL     1     112.250 129.977 136.881  0.00  0.00    +0.000 A 
ATOM      5  C   UNL     1     112.081 129.145 136.742  0.00  0.00    +0.000 A 
ATOM      6  C   UNL     1     111.344 128.904 136.462  0.00  0.00    +0.000 A 
ATOM      7  C   UNL     1     110.875 130.314 136.433  0.00  0.00    +0.000 A 
ATOM      8  C   UNL     1     110.724 129.477 136.300  0.00  0.00    +0.000 A 
ATOM      9  C   UNL     1     111.780 127.544 136.484  0.00  0.00    +0.000 A 
ATOM     10  C   UNL     1     111.193 128.104 136.333  0.00  0.00    +0.000 A 
ATOM     11  C   UNL     1     112.518 127.786 136.765  0.00  0.00    +0.000 A 
ENDROOT
BRANCH  11  14
ATOM     12  O   UNL     1     112.772 127.253 138.305  0.00  0.00    +0.000 OA
ATOM     13  O   UNL     1     114.865 125.547 137.370  0.00  0.00    +0.000 OA
ATOM     14  C   UNL     1     113.105 127.226 136.916  0.00  0.00    +0.000 A 
ATOM     15  C   UNL     1     113.232 126.959 137.686  0.00  0.00    +0.000 A 
ATOM     16  C   UNL     1     113.565 126.933 136.297  0.00  0.00    +0.000 A 
ATOM     17  C   UNL     1     113.819 126.400 137.838  0.00  0.00    +0.000 A 
ATOM     18  C   UNL     1     114.152 126.373 136.448  0.00  0.00    +0.000 A 
ATOM     19  C   UNL     1     114.278 126.106 137.219  0.00  0.00    +0.000 A 
ENDBRANCH  11  14
BRANCH   3  20
ATOM     20  O   UNL     1     111.796 131.365 136.855  0.00  0.00    +0.000 OA
BRANCH  20  28
ATOM     21  O   UNL     1     110.909 131.567 137.957  0.00  0.00    +0.000 OA
ATOM     22  O   UNL     1     110.249 133.762 137.024  0.00  0.00    +0.000 OA
ATOM     23  O   UNL     1     111.355 132.828 136.233  0.00  0.00    +0.000 OA
ATOM     24  O   UNL     1     109.584 133.232 138.437  0.00  0.00    +0.000 OA
ATOM     25  C   UNL     1     110.469 133.030 137.335  0.00  0.00    +0.000 C 
ATOM     26  C   UNL     1     111.023 132.564 136.939  0.00  0.00    +0.000 C 
ATOM     27  C   UNL     1     110.136 132.766 138.042  0.00  0.00    +0.000 C 
ATOM     28  C   UNL     1     111.243 131.831 137.250  0.00  0.00    +0.000 C 
ATOM     29  C   UNL     1     110.357 132.033 138.353  0.00  0.00    +0.000 C 
BRANCH  29  32
ATOM     30  O   UNL     1     110.466 131.785 139.756  0.00  0.00    +0.000 OA
ATOM     31  O   UNL     1     109.249 131.487 139.070  0.00  0.00    +0.000 OA
ATOM     32  C   UNL     1     110.024 131.769 139.059  0.00  0.00    +0.000 C 
ENDBRANCH  29  32
ENDBRANCH  20  28
ENDBRANCH   3  20
BRANCH   4  33
ATOM     33  C   UNL     1     112.990 130.209 137.161  0.00  0.00    +0.000 C 
BRANCH  33  34
ATOM     34  C   UNL     1     113.591 130.399 136.629  0.00  0.00    +0.000 C 
ATOM     35  C   UNL     1     114.340 130.603 136.908  0.00  0.00    +0.000 C 
ATOM     36  C   UNL     1     114.941 130.793 136.377  0.00  0.00    +0.000 C 
ATOM     37  C   UNL     1     114.488 130.616 137.721  0.00  0.00    +0.000 C 
ENDBRANCH  33  34
ENDBRANCH   4  33
BRANCH   9  38
ATOM     38  C   UNL     1     111.630 126.743 136.355  0.00  0.00    +0.000 C 
BRANCH  38  39
ATOM     39  C   UNL     1     111.213 126.504 135.685  0.00  0.00    +0.000 C 
ATOM     40  C   UNL     1     110.853 125.762 135.665  0.00  0.00    +0.000 C 
ATOM     41  C   UNL     1     110.437 125.524 134.994  0.00  0.00    +0.000 C 
BRANCH  40  43
ATOM     42  O   UNL     1     110.513 125.443 137.016  0.00  0.00    +0.000 OA
ATOM     43  C   UNL     1     110.910 125.259 136.316  0.00  0.00    +0.000 C 
BRANCH  43  44
ATOM     44  C   UNL     1     111.363 124.571 136.268  0.00  0.00    +0.000 C 
BRANCH  44  45
ATOM     45  C   UNL     1     111.362 124.031 136.891  0.00  0.00    +0.000 C 
ATOM     46  C   UNL     1     111.871 123.382 136.876  0.00  0.00    +0.000 C 
ATOM     47  C   UNL     1     111.868 122.842 137.500  0.00  0.00    +0.000 C 
ATOM     48  C   UNL     1     112.382 123.273 136.238  0.00  0.00    +0.000 C 
ENDBRANCH  44  45
ENDBRANCH  43  44
ENDBRANCH  40  43
ENDBRANCH  38  39
ENDBRANCH   9  38
TORSDOF 11
ENDMDL
MODEL 2
REMARK VINA RESULT:      -9.3      7.133     10.630
REMARK  Name = 131835917
REMARK  11 active torsions:
REMARK  status: ('A' for Active; 'I' for Inactive)
REMARK    1  A    between atoms: O_2  and  C_16
REMARK    2  A    between atoms: O_2  and  C_19
REMARK    3  A    between atoms: C_17  and  C_18
REMARK    4  A    between atoms: C_20  and  C_24
REMARK    5  A    between atoms: C_24  and  C_30
REMARK    6  A    between atoms: C_26  and  C_29
REMARK    7  A    between atoms: C_28  and  C_31
REMARK    8  A    between atoms: C_29  and  C_32
REMARK    9  A    between atoms: C_33  and  C_35
REMARK   10  A    between atoms: C_35  and  C_38
REMARK   11  A    between atoms: C_38  and  C_45
REMARK                            x       y       z     vdW  Elec       q    Type
REMARK                         _______ _______ _______ _____ _____    ______ ____
ROOT
ATOM      1  O   UNL     1     104.942 128.766 143.106  0.00  0.00    +0.000 OA
ATOM      2  O   UNL     1     103.926 128.667 140.851  0.00  0.00    +0.000 OA
ATOM      3  C   UNL     1     105.770 126.820 142.384  0.00  0.00    +0.000 A 
ATOM      4  C   UNL     1     105.608 127.493 142.894  0.00  0.00    +0.000 A 
ATOM      5  C   UNL     1     105.094 128.123 142.613  0.00  0.00    +0.000 A 
ATOM      6  C   UNL     1     104.756 128.089 141.861  0.00  0.00    +0.000 A 
ATOM      7  C   UNL     1     105.418 126.785 141.602  0.00  0.00    +0.000 A 
ATOM      8  C   UNL     1     104.907 127.425 141.338  0.00  0.00    +0.000 A 
ATOM      9  C   UNL     1     104.112 129.344 142.095  0.00  0.00    +0.000 A 
ATOM     10  C   UNL     1     104.265 128.700 141.602  0.00  0.00    +0.000 A 
ATOM     11  C   UNL     1     104.451 129.376 142.847  0.00  0.00    +0.000 A 
ENDROOT
BRANCH  11  14
ATOM     12  O   UNL     1     105.554 130.597 142.975  0.00  0.00    +0.000 OA
ATOM     13  O   UNL     1     103.841 131.951 144.819  0.00  0.00    +0.000 OA
ATOM     14  C   UNL     1     104.299 130.020 143.340  0.00  0.00    +0.000 A 
ATOM     15  C   UNL     1     104.850 130.630 143.404  0.00  0.00    +0.000 A 
ATOM     16  C   UNL     1     103.595 130.053 143.769  0.00  0.00    +0.000 A 
ATOM     17  C   UNL     1     104.698 131.274 143.897  0.00  0.00    +0.000 A 
ATOM     18  C   UNL     1     103.442 130.697 144.262  0.00  0.00    +0.000 A 
ATOM     19  C   UNL     1     103.994 131.308 144.326  0.00  0.00    +0.000 A 
ENDBRANCH  11  14
BRANCH   3  20
ATOM     20  O   UNL     1     106.261 126.211 142.645  0.00  0.00    +0.000 OA
BRANCH  20  28
ATOM     21  O   UNL     1     107.422 126.448 141.847  0.00  0.00    +0.000 OA
ATOM     22  O   UNL     1     107.547 124.036 141.309  0.00  0.00    +0.000 OA
ATOM     23  O   UNL     1     106.344 124.602 142.287  0.00  0.00    +0.000 OA
ATOM     24  O   UNL     1     108.666 125.078 140.691  0.00  0.00    +0.000 OA
ATOM     25  C   UNL     1     107.505 124.840 141.489  0.00  0.00    +0.000 C 
ATOM     26  C   UNL     1     106.904 125.123 141.977  0.00  0.00    +0.000 C 
ATOM     27  C   UNL     1     108.065 125.361 141.179  0.00  0.00    +0.000 C 
ATOM     28  C   UNL     1     106.862 125.928 142.157  0.00  0.00    +0.000 C 
ATOM     29  C   UNL     1     108.023 126.166 141.359  0.00  0.00    +0.000 C 
BRANCH  29  32
ATOM     30  O   UNL     1     108.493 126.984 140.285  0.00  0.00    +0.000 OA
ATOM     31  O   UNL     1     109.234 126.910 141.505  0.00  0.00    +0.000 OA
ATOM     32  C   UNL     1     108.583 126.686 141.050  0.00  0.00    +0.000 C 
ENDBRANCH  29  32
ENDBRANCH  20  28
ENDBRANCH   3  20
BRANCH   4  33
ATOM     33  C   UNL     1     105.941 127.534 143.646  0.00  0.00    +0.000 C 
BRANCH  33  34
ATOM     34  C   UNL     1     105.564 127.175 144.285  0.00  0.00    +0.000 C 
ATOM     35  C   UNL     1     105.880 127.243 145.044  0.00  0.00    +0.000 C 
ATOM     36  C   UNL     1     105.502 126.884 145.683  0.00  0.00    +0.000 C 
ATOM     37  C   UNL     1     106.575 127.672 145.164  0.00  0.00    +0.000 C 
ENDBRANCH  33  34
ENDBRANCH   4  33
BRANCH   9  38
ATOM     38  C   UNL     1     103.621 129.954 141.837  0.00  0.00    +0.000 C 
BRANCH  38  39
ATOM     39  C   UNL     1     102.917 129.780 141.446  0.00  0.00    +0.000 C 
ATOM     40  C   UNL     1     102.553 130.352 140.976  0.00  0.00    +0.000 C 
ATOM     41  C   UNL     1     101.848 130.177 140.585  0.00  0.00    +0.000 C 
BRANCH  40  43
ATOM     42  O   UNL     1     103.613 131.184 140.501  0.00  0.00    +0.000 OA
ATOM     43  C   UNL     1     102.894 131.099 140.897  0.00  0.00    +0.000 C 
BRANCH  43  44
ATOM     44  C   UNL     1     102.516 131.760 141.214  0.00  0.00    +0.000 C 
BRANCH  44  45
ATOM     45  C   UNL     1     102.784 132.518 141.027  0.00  0.00    +0.000 C 
ATOM     46  C   UNL     1     102.431 133.178 141.374  0.00  0.00    +0.000 C 
ATOM     47  C   UNL     1     102.699 133.935 141.186  0.00  0.00    +0.000 C 
ATOM     48  C   UNL     1     101.810 133.080 141.909  0.00  0.00    +0.000 C 
ENDBRANCH  44  45
ENDBRANCH  43  44
ENDBRANCH  40  43
ENDBRANCH  38  39
ENDBRANCH   9  38
TORSDOF 11
ENDMDL
MODEL 3
REMARK VINA RESULT:      -9.0      2.805      4.040
REMARK  Name = 131835917
REMARK  11 active torsions:
REMARK  status: ('A' for Active; 'I' for Inactive)
REMARK    1  A    between atoms: O_2  and  C_16
REMARK    2  A    between atoms: O_2  and  C_19
REMARK    3  A    between atoms: C_17  and  C_18
REMARK    4  A    between atoms: C_20  and  C_24
REMARK    5  A    between atoms: C_24  and  C_30
REMARK    6  A    between atoms: C_26  and  C_29
REMARK    7  A    between atoms: C_28  and  C_31
REMARK    8  A    between atoms: C_29  and  C_32
REMARK    9  A    between atoms: C_33  and  C_35
REMARK   10  A    between atoms: C_35  and  C_38
REMARK   11  A    between atoms: C_38  and  C_45
REMARK                            x       y       z     vdW  Elec       q    Type
REMARK                         _______ _______ _______ _____ _____    ______ ____
ROOT
ATOM      1  O   UNL     1     112.251 129.211 139.130  0.00  0.00    +0.000 OA
ATOM      2  O   UNL     1     109.862 129.664 138.666  0.00  0.00    +0.000 OA
ATOM      3  C   UNL     1     111.735 130.469 140.903  0.00  0.00    +0.000 A 
ATOM      4  C   UNL     1     112.190 129.988 140.355  0.00  0.00    +0.000 A 
ATOM      5  C   UNL     1     111.809 129.671 139.652  0.00  0.00    +0.000 A 
ATOM      6  C   UNL     1     111.013 129.823 139.498  0.00  0.00    +0.000 A 
ATOM      7  C   UNL     1     110.907 130.627 140.742  0.00  0.00    +0.000 A 
ATOM      8  C   UNL     1     110.543 130.301 140.034  0.00  0.00    +0.000 A 
ATOM      9  C   UNL     1     111.099 129.052 138.297  0.00  0.00    +0.000 A 
ATOM     10  C   UNL     1     110.658 129.513 138.820  0.00  0.00    +0.000 A 
ATOM     11  C   UNL     1     111.896 128.901 138.453  0.00  0.00    +0.000 A 
ENDROOT
BRANCH  11  14
ATOM     12  O   UNL     1     112.143 127.301 138.770  0.00  0.00    +0.000 OA
ATOM     13  O   UNL     1     113.661 127.057 136.360  0.00  0.00    +0.000 OA
ATOM     14  C   UNL     1     112.337 128.440 137.930  0.00  0.00    +0.000 A 
ATOM     15  C   UNL     1     112.460 127.640 138.088  0.00  0.00    +0.000 A 
ATOM     16  C   UNL     1     112.655 128.779 137.248  0.00  0.00    +0.000 A 
ATOM     17  C   UNL     1     112.902 127.179 137.565  0.00  0.00    +0.000 A 
ATOM     18  C   UNL     1     113.096 128.318 136.725  0.00  0.00    +0.000 A 
ATOM     19  C   UNL     1     113.219 127.518 136.883  0.00  0.00    +0.000 A 
ENDBRANCH  11  14
BRANCH   3  20
ATOM     20  O   UNL     1     112.093 130.778 141.579  0.00  0.00    +0.000 OA
BRANCH  20  28
ATOM     21  O   UNL     1     111.525 129.988 142.626  0.00  0.00    +0.000 OA
ATOM     22  O   UNL     1     110.929 132.050 143.859  0.00  0.00    +0.000 OA
ATOM     23  O   UNL     1     111.696 132.152 142.401  0.00  0.00    +0.000 OA
ATOM     24  O   UNL     1     110.560 130.573 144.494  0.00  0.00    +0.000 OA
ATOM     25  C   UNL     1     111.128 131.363 143.448  0.00  0.00    +0.000 C 
ATOM     26  C   UNL     1     111.511 131.414 142.719  0.00  0.00    +0.000 C 
ATOM     27  C   UNL     1     110.943 130.625 143.766  0.00  0.00    +0.000 C 
ATOM     28  C   UNL     1     111.710 130.726 142.307  0.00  0.00    +0.000 C 
ATOM     29  C   UNL     1     111.142 129.937 143.354  0.00  0.00    +0.000 C 
BRANCH  29  32
ATOM     30  O   UNL     1     110.203 128.880 143.567  0.00  0.00    +0.000 OA
ATOM     31  O   UNL     1     111.527 128.778 144.096  0.00  0.00    +0.000 OA
ATOM     32  C   UNL     1     110.957 129.199 143.672  0.00  0.00    +0.000 C 
ENDBRANCH  29  32
ENDBRANCH  20  28
ENDBRANCH   3  20
BRANCH   4  33
ATOM     33  C   UNL     1     112.986 129.832 140.501  0.00  0.00    +0.000 C 
BRANCH  33  34
ATOM     34  C   UNL     1     113.561 130.385 140.290  0.00  0.00    +0.000 C 
ATOM     35  C   UNL     1     114.360 130.205 140.380  0.00  0.00    +0.000 C 
ATOM     36  C   UNL     1     114.935 130.759 140.169  0.00  0.00    +0.000 C 
ATOM     37  C   UNL     1     114.587 129.470 140.680  0.00  0.00    +0.000 C 
ENDBRANCH  33  34
ENDBRANCH   4  33
BRANCH   9  38
ATOM     38  C   UNL     1     110.744 128.742 137.620  0.00  0.00    +0.000 C 
BRANCH  38  39
ATOM     39  C   UNL     1     110.255 129.217 137.157  0.00  0.00    +0.000 C 
ATOM     40  C   UNL     1     109.711 128.871 136.642  0.00  0.00    +0.000 C 
ATOM     41  C   UNL     1     109.221 129.346 136.179  0.00  0.00    +0.000 C 
BRANCH  40  43
ATOM     42  O   UNL     1     109.365 127.614 137.228  0.00  0.00    +0.000 OA
ATOM     43  C   UNL     1     109.657 128.049 136.590  0.00  0.00    +0.000 C 
BRANCH  43  44
ATOM     44  C   UNL     1     109.896 127.663 135.901  0.00  0.00    +0.000 C 
BRANCH  44  45
ATOM     45  C   UNL     1     109.675 126.879 135.770  0.00  0.00    +0.000 C 
ATOM     46  C   UNL     1     109.984 126.465 135.126  0.00  0.00    +0.000 C 
ATOM     47  C   UNL     1     109.763 125.682 134.996  0.00  0.00    +0.000 C 
ATOM     48  C   UNL     1     110.512 126.837 134.613  0.00  0.00    +0.000 C 
ENDBRANCH  44  45
ENDBRANCH  43  44
ENDBRANCH  40  43
ENDBRANCH  38  39
ENDBRANCH   9  38
TORSDOF 11
ENDMDL
MODEL 4
REMARK VINA RESULT:      -8.9      2.595      3.815
REMARK  Name = 131835917
REMARK  11 active torsions:
REMARK  status: ('A' for Active; 'I' for Inactive)
REMARK    1  A    between atoms: O_2  and  C_16
REMARK    2  A    between atoms: O_2  and  C_19
REMARK    3  A    between atoms: C_17  and  C_18
REMARK    4  A    between atoms: C_20  and  C_24
REMARK    5  A    between atoms: C_24  and  C_30
REMARK    6  A    between atoms: C_26  and  C_29
REMARK    7  A    between atoms: C_28  and  C_31
REMARK    8  A    between atoms: C_29  and  C_32
REMARK    9  A    between atoms: C_33  and  C_35
REMARK   10  A    between atoms: C_35  and  C_38
REMARK   11  A    between atoms: C_38  and  C_45
REMARK                            x       y       z     vdW  Elec       q    Type
REMARK                         _______ _______ _______ _____ _____    ______ ____
ROOT
ATOM      1  O   UNL     1     112.730 127.658 139.015  0.00  0.00    +0.000 OA
ATOM      2  O   UNL     1     111.878 129.427 137.508  0.00  0.00    +0.000 OA
ATOM      3  C   UNL     1     113.100 129.465 140.277  0.00  0.00    +0.000 A 
ATOM      4  C   UNL     1     113.074 128.644 140.025  0.00  0.00    +0.000 A 
ATOM      5  C   UNL     1     112.752 128.448 139.252  0.00  0.00    +0.000 A 
ATOM      6  C   UNL     1     112.468 129.037 138.749  0.00  0.00    +0.000 A 
ATOM      7  C   UNL     1     112.804 130.079 139.754  0.00  0.00    +0.000 A 
ATOM      8  C   UNL     1     112.486 129.863 138.984  0.00  0.00    +0.000 A 
ATOM      9  C   UNL     1     112.139 128.047 137.773  0.00  0.00    +0.000 A 
ATOM     10  C   UNL     1     112.161 128.837 138.010  0.00  0.00    +0.000 A 
ATOM     11  C   UNL     1     112.423 127.458 138.276  0.00  0.00    +0.000 A 
ENDROOT
BRANCH  11  14
ATOM     12  O   UNL     1     111.207 126.473 138.801  0.00  0.00    +0.000 OA
ATOM     13  O   UNL     1     112.332 124.298 137.327  0.00  0.00    +0.000 OA
ATOM     14  C   UNL     1     112.400 126.668 138.039  0.00  0.00    +0.000 A 
ATOM     15  C   UNL     1     111.792 126.176 138.301  0.00  0.00    +0.000 A 
ATOM     16  C   UNL     1     112.985 126.370 137.539  0.00  0.00    +0.000 A 
ATOM     17  C   UNL     1     111.770 125.386 138.064  0.00  0.00    +0.000 A 
ATOM     18  C   UNL     1     112.963 125.580 137.302  0.00  0.00    +0.000 A 
ATOM     19  C   UNL     1     112.355 125.088 137.565  0.00  0.00    +0.000 A 
ENDBRANCH  11  14
BRANCH   3  20
ATOM     20  O   UNL     1     113.407 129.662 141.016  0.00  0.00    +0.000 OA
BRANCH  20  28
ATOM     21  O   UNL     1     112.206 129.903 141.752  0.00  0.00    +0.000 OA
ATOM     22  O   UNL     1     113.173 131.998 142.647  0.00  0.00    +0.000 OA
ATOM     23  O   UNL     1     114.052 131.059 141.613  0.00  0.00    +0.000 OA
ATOM     24  O   UNL     1     111.651 131.540 143.084  0.00  0.00    +0.000 OA
ATOM     25  C   UNL     1     112.851 131.299 142.349  0.00  0.00    +0.000 C 
ATOM     26  C   UNL     1     113.291 130.830 141.832  0.00  0.00    +0.000 C 
ATOM     27  C   UNL     1     112.090 131.071 142.568  0.00  0.00    +0.000 C 
ATOM     28  C   UNL     1     112.968 130.131 141.533  0.00  0.00    +0.000 C 
ATOM     29  C   UNL     1     111.767 130.372 142.269  0.00  0.00    +0.000 C 
BRANCH  29  32
ATOM     30  O   UNL     1     110.350 130.484 142.120  0.00  0.00    +0.000 OA
ATOM     31  O   UNL     1     110.899 129.573 143.075  0.00  0.00    +0.000 OA
ATOM     32  C   UNL     1     111.006 130.143 142.488  0.00  0.00    +0.000 C 
ENDBRANCH  29  32
ENDBRANCH  20  28
ENDBRANCH   3  20
BRANCH   4  33
ATOM     33  C   UNL     1     113.355 128.048 140.519  0.00  0.00    +0.000 C 
BRANCH  33  34
ATOM     34  C   UNL     1     114.152 127.837 140.499  0.00  0.00    +0.000 C 
ATOM     35  C   UNL     1     114.422 127.199 140.946  0.00  0.00    +0.000 C 
ATOM     36  C   UNL     1     115.220 126.988 140.926  0.00  0.00    +0.000 C 
ATOM     37  C   UNL     1     113.895 126.771 141.415  0.00  0.00    +0.000 C 
ENDBRANCH  33  34
ENDBRANCH   4  33
BRANCH   9  38
ATOM     38  C   UNL     1     111.832 127.847 137.034  0.00  0.00    +0.000 C 
BRANCH  38  39
ATOM     39  C   UNL     1     112.058 128.273 136.365  0.00  0.00    +0.000 C 
ATOM     40  C   UNL     1     111.562 128.299 135.706  0.00  0.00    +0.000 C 
ATOM     41  C   UNL     1     111.788 128.725 135.037  0.00  0.00    +0.000 C 
BRANCH  40  43
ATOM     42  O   UNL     1     110.223 128.176 136.191  0.00  0.00    +0.000 OA
ATOM     43  C   UNL     1     110.840 127.900 135.716  0.00  0.00    +0.000 C 
BRANCH  43  44
ATOM     44  C   UNL     1     110.735 127.226 135.253  0.00  0.00    +0.000 C 
BRANCH  44  45
ATOM     45  C   UNL     1     109.982 126.900 135.162  0.00  0.00    +0.000 C 
ATOM     46  C   UNL     1     109.894 126.145 134.843  0.00  0.00    +0.000 C 
ATOM     47  C   UNL     1     109.142 125.821 134.752  0.00  0.00    +0.000 C 
ATOM     48  C   UNL     1     110.560 125.715 134.613  0.00  0.00    +0.000 C 
ENDBRANCH  44  45
ENDBRANCH  43  44
ENDBRANCH  40  43
ENDBRANCH  38  39
ENDBRANCH   9  38
TORSDOF 11
ENDMDL
MODEL 5
REMARK VINA RESULT:      -8.8      1.903      6.409
REMARK  Name = 131835917
REMARK  11 active torsions:
REMARK  status: ('A' for Active; 'I' for Inactive)
REMARK    1  A    between atoms: O_2  and  C_16
REMARK    2  A    between atoms: O_2  and  C_19
REMARK    3  A    between atoms: C_17  and  C_18
REMARK    4  A    between atoms: C_20  and  C_24
REMARK    5  A    between atoms: C_24  and  C_30
REMARK    6  A    between atoms: C_26  and  C_29
REMARK    7  A    between atoms: C_28  and  C_31
REMARK    8  A    between atoms: C_29  and  C_32
REMARK    9  A    between atoms: C_33  and  C_35
REMARK   10  A    between atoms: C_35  and  C_38
REMARK   11  A    between atoms: C_38  and  C_45
REMARK                            x       y       z     vdW  Elec       q    Type
REMARK                         _______ _______ _______ _____ _____    ______ ____
ROOT
ATOM      1  O   UNL     1     111.217 128.914 139.112  0.00  0.00    +0.000 OA
ATOM      2  O   UNL     1     111.973 129.966 137.002  0.00  0.00    +0.000 OA
ATOM      3  C   UNL     1     112.674 127.376 138.403  0.00  0.00    +0.000 A 
ATOM      4  C   UNL     1     112.090 127.775 138.891  0.00  0.00    +0.000 A 
ATOM      5  C   UNL     1     111.777 128.536 138.639  0.00  0.00    +0.000 A 
ATOM      6  C   UNL     1     112.029 128.886 137.936  0.00  0.00    +0.000 A 
ATOM      7  C   UNL     1     112.937 127.741 137.671  0.00  0.00    +0.000 A 
ATOM      8  C   UNL     1     112.612 128.501 137.436  0.00  0.00    +0.000 A 
ATOM      9  C   UNL     1     111.161 129.995 138.177  0.00  0.00    +0.000 A 
ATOM     10  C   UNL     1     111.721 129.616 137.705  0.00  0.00    +0.000 A 
ATOM     11  C   UNL     1     110.909 129.644 138.881  0.00  0.00    +0.000 A 
ENDROOT
BRANCH  11  14
ATOM     12  O   UNL     1     109.320 129.208 138.787  0.00  0.00    +0.000 OA
ATOM     13  O   UNL     1     108.667 131.161 140.769  0.00  0.00    +0.000 OA
ATOM     14  C   UNL     1     110.348 130.023 139.353  0.00  0.00    +0.000 A 
ATOM     15  C   UNL     1     109.554 129.805 139.306  0.00  0.00    +0.000 A 
ATOM     16  C   UNL     1     110.582 130.620 139.872  0.00  0.00    +0.000 A 
ATOM     17  C   UNL     1     108.994 130.185 139.778  0.00  0.00    +0.000 A 
ATOM     18  C   UNL     1     110.022 130.999 140.344  0.00  0.00    +0.000 A 
ATOM     19  C   UNL     1     109.228 130.782 140.297  0.00  0.00    +0.000 A 
ENDBRANCH  11  14
BRANCH   3  20
ATOM     20  O   UNL     1     112.980 126.646 138.636  0.00  0.00    +0.000 OA
BRANCH  20  28
ATOM     21  O   UNL     1     112.429 125.814 137.613  0.00  0.00    +0.000 OA
ATOM     22  O   UNL     1     114.611 124.673 137.366  0.00  0.00    +0.000 OA
ATOM     23  O   UNL     1     114.435 125.885 138.471  0.00  0.00    +0.000 OA
ATOM     24  O   UNL     1     113.333 124.222 136.426  0.00  0.00    +0.000 OA
ATOM     25  C   UNL     1     113.884 125.053 137.448  0.00  0.00    +0.000 C 
ATOM     26  C   UNL     1     113.796 125.659 138.001  0.00  0.00    +0.000 C 
ATOM     27  C   UNL     1     113.245 124.828 136.978  0.00  0.00    +0.000 C 
ATOM     28  C   UNL     1     113.068 126.041 138.084  0.00  0.00    +0.000 C 
ATOM     29  C   UNL     1     112.517 125.209 137.061  0.00  0.00    +0.000 C 
BRANCH  29  32
ATOM     30  O   UNL     1     111.318 124.452 136.882  0.00  0.00    +0.000 OA
ATOM     31  O   UNL     1     111.799 125.289 135.829  0.00  0.00    +0.000 OA
ATOM     32  C   UNL     1     111.878 124.983 136.591  0.00  0.00    +0.000 C 
ENDBRANCH  29  32
ENDBRANCH  20  28
ENDBRANCH   3  20
BRANCH   4  33
ATOM     33  C   UNL     1     111.832 127.433 139.594  0.00  0.00    +0.000 C 
BRANCH  33  34
ATOM     34  C   UNL     1     112.256 127.555 140.292  0.00  0.00    +0.000 C 
ATOM     35  C   UNL     1     111.985 127.232 141.001  0.00  0.00    +0.000 C 
ATOM     36  C   UNL     1     112.408 127.354 141.699  0.00  0.00    +0.000 C 
ATOM     37  C   UNL     1     111.290 126.787 141.013  0.00  0.00    +0.000 C 
ENDBRANCH  33  34
ENDBRANCH   4  33
BRANCH   9  38
ATOM     38  C   UNL     1     110.853 130.725 137.946  0.00  0.00    +0.000 C 
BRANCH  38  39
ATOM     39  C   UNL     1     111.351 131.303 137.637  0.00  0.00    +0.000 C 
ATOM     40  C   UNL     1     111.038 131.921 137.189  0.00  0.00    +0.000 C 
ATOM     41  C   UNL     1     111.538 132.500 136.879  0.00  0.00    +0.000 C 
BRANCH  40  43
ATOM     42  O   UNL     1     109.731 132.325 137.600  0.00  0.00    +0.000 OA
ATOM     43  C   UNL     1     110.226 131.960 137.050  0.00  0.00    +0.000 C 
BRANCH  43  44
ATOM     44  C   UNL     1     109.909 131.634 136.362  0.00  0.00    +0.000 C 
BRANCH  44  45
ATOM     45  C   UNL     1     109.219 131.948 136.035  0.00  0.00    +0.000 C 
ATOM     46  C   UNL     1     108.877 131.594 135.373  0.00  0.00    +0.000 C 
ATOM     47  C   UNL     1     108.188 131.909 135.048  0.00  0.00    +0.000 C 
ATOM     48  C   UNL     1     109.225 130.926 135.037  0.00  0.00    +0.000 C 
ENDBRANCH  44  45
ENDBRANCH  43  44
ENDBRANCH  40  43
ENDBRANCH  38  39
ENDBRANCH   9  38
TORSDOF 11
ENDMDL
MODEL 6
REMARK VINA RESULT:      -8.7      1.971      3.259
REMARK  Name = 131835917
REMARK  11 active torsions:
REMARK  status: ('A' for Active; 'I' for Inactive)
REMARK    1  A    between atoms: O_2  and  C_16
REMARK    2  A    between atoms: O_2  and  C_19
REMARK    3  A    between atoms: C_17  and  C_18
REMARK    4  A    between atoms: C_20  and  C_24
REMARK    5  A    between atoms: C_24  and  C_30
REMARK    6  A    between atoms: C_26  and  C_29
REMARK    7  A    between atoms: C_28  and  C_31
REMARK    8  A    between atoms: C_29  and  C_32
REMARK    9  A    between atoms: C_33  and  C_35
REMARK   10  A    between atoms: C_35  and  C_38
REMARK   11  A    between atoms: C_38  and  C_45
REMARK                            x       y       z     vdW  Elec       q    Type
REMARK                         _______ _______ _______ _____ _____    ______ ____
ROOT
ATOM      1  O   UNL     1     111.260 129.191 137.798  0.00  0.00    +0.000 OA
ATOM      2  O   UNL     1     110.592 127.004 138.746  0.00  0.00    +0.000 OA
ATOM      3  C   UNL     1     109.655 129.844 139.209  0.00  0.00    +0.000 A 
ATOM      4  C   UNL     1     110.279 129.878 138.619  0.00  0.00    +0.000 A 
ATOM      5  C   UNL     1     110.662 129.152 138.365  0.00  0.00    +0.000 A 
ATOM      6  C   UNL     1     110.439 128.423 138.681  0.00  0.00    +0.000 A 
ATOM      7  C   UNL     1     109.423 129.086 139.538  0.00  0.00    +0.000 A 
ATOM      8  C   UNL     1     109.818 128.369 139.272  0.00  0.00    +0.000 A 
ATOM      9  C   UNL     1     111.413 127.771 137.863  0.00  0.00    +0.000 A 
ATOM     10  C   UNL     1     110.815 127.732 138.430  0.00  0.00    +0.000 A 
ATOM     11  C   UNL     1     111.635 128.500 137.547  0.00  0.00    +0.000 A 
ENDROOT
BRANCH  11  14
ATOM     12  O   UNL     1     113.175 128.885 137.997  0.00  0.00    +0.000 OA
ATOM     13  O   UNL     1     114.027 128.653 135.279  0.00  0.00    +0.000 OA
ATOM     14  C   UNL     1     112.233 128.539 136.980  0.00  0.00    +0.000 A 
ATOM     15  C   UNL     1     113.003 128.731 137.205  0.00  0.00    +0.000 A 
ATOM     16  C   UNL     1     112.061 128.385 136.188  0.00  0.00    +0.000 A 
ATOM     17  C   UNL     1     113.601 128.769 136.638  0.00  0.00    +0.000 A 
ATOM     18  C   UNL     1     112.659 128.423 135.621  0.00  0.00    +0.000 A 
ATOM     19  C   UNL     1     113.429 128.615 135.846  0.00  0.00    +0.000 A 
ENDBRANCH  11  14
BRANCH   3  20
ATOM     20  O   UNL     1     109.282 130.536 139.459  0.00  0.00    +0.000 OA
BRANCH  20  28
ATOM     21  O   UNL     1     109.779 130.637 140.795  0.00  0.00    +0.000 OA
ATOM     22  O   UNL     1     107.492 131.117 141.609  0.00  0.00    +0.000 OA
ATOM     23  O   UNL     1     107.757 130.856 140.002  0.00  0.00    +0.000 OA
ATOM     24  O   UNL     1     108.751 131.058 142.673  0.00  0.00    +0.000 OA
ATOM     25  C   UNL     1     108.254 130.957 141.338  0.00  0.00    +0.000 C 
ATOM     26  C   UNL     1     108.386 130.826 140.534  0.00  0.00    +0.000 C 
ATOM     27  C   UNL     1     108.883 130.928 141.870  0.00  0.00    +0.000 C 
ATOM     28  C   UNL     1     109.149 130.667 140.262  0.00  0.00    +0.000 C 
ATOM     29  C   UNL     1     109.647 130.768 141.598  0.00  0.00    +0.000 C 
BRANCH  29  32
ATOM     30  O   UNL     1     110.432 130.044 142.547  0.00  0.00    +0.000 OA
ATOM     31  O   UNL     1     110.749 131.404 142.245  0.00  0.00    +0.000 OA
ATOM     32  C   UNL     1     110.276 130.738 142.130  0.00  0.00    +0.000 C 
ENDBRANCH  29  32
ENDBRANCH  20  28
ENDBRANCH   3  20
BRANCH   4  33
ATOM     33  C   UNL     1     110.508 130.602 138.298  0.00  0.00    +0.000 C 
BRANCH  33  34
ATOM     34  C   UNL     1     110.097 130.917 137.655  0.00  0.00    +0.000 C 
ATOM     35  C   UNL     1     110.354 131.617 137.304  0.00  0.00    +0.000 C 
ATOM     36  C   UNL     1     109.943 131.932 136.662  0.00  0.00    +0.000 C 
ATOM     37  C   UNL     1     111.022 132.005 137.596  0.00  0.00    +0.000 C 
ENDBRANCH  33  34
ENDBRANCH   4  33
BRANCH   9  38
ATOM     38  C   UNL     1     111.788 127.080 137.611  0.00  0.00    +0.000 C 
BRANCH  38  39
ATOM     39  C   UNL     1     111.340 126.432 137.370  0.00  0.00    +0.000 C 
ATOM     40  C   UNL     1     111.665 125.674 137.392  0.00  0.00    +0.000 C 
ATOM     41  C   UNL     1     111.216 125.025 137.151  0.00  0.00    +0.000 C 
BRANCH  40  43
ATOM     42  O   UNL     1     112.627 125.700 138.449  0.00  0.00    +0.000 OA
ATOM     43  C   UNL     1     112.439 125.565 137.657  0.00  0.00    +0.000 C 
BRANCH  43  44
ATOM     44  C   UNL     1     113.025 125.321 137.129  0.00  0.00    +0.000 C 
BRANCH  44  45
ATOM     45  C   UNL     1     113.764 125.087 137.412  0.00  0.00    +0.000 C 
ATOM     46  C   UNL     1     114.378 124.934 136.884  0.00  0.00    +0.000 C 
ATOM     47  C   UNL     1     115.116 124.700 137.167  0.00  0.00    +0.000 C 
ATOM     48  C   UNL     1     114.254 125.014 136.072  0.00  0.00    +0.000 C 
ENDBRANCH  44  45
ENDBRANCH  43  44
ENDBRANCH  40  43
ENDBRANCH  38  39
ENDBRANCH   9  38
TORSDOF 11
ENDMDL
MODEL 7
REMARK VINA RESULT:      -8.7      3.209      4.465
REMARK  Name = 131835917
REMARK  11 active torsions:
REMARK  status: ('A' for Active; 'I' for Inactive)
REMARK    1  A    between atoms: O_2  and  C_16
REMARK    2  A    between atoms: O_2  and  C_19
REMARK    3  A    between atoms: C_17  and  C_18
REMARK    4  A    between atoms: C_20  and  C_24
REMARK    5  A    between atoms: C_24  and  C_30
REMARK    6  A    between atoms: C_26  and  C_29
REMARK    7  A    between atoms: C_28  and  C_31
REMARK    8  A    between atoms: C_29  and  C_32
REMARK    9  A    between atoms: C_33  and  C_35
REMARK   10  A    between atoms: C_35  and  C_38
REMARK   11  A    between atoms: C_38  and  C_45
REMARK                            x       y       z     vdW  Elec       q    Type
REMARK                         _______ _______ _______ _____ _____    ______ ____
ROOT
ATOM      1  O   UNL     1     111.659 128.588 140.747  0.00  0.00    +0.000 OA
ATOM      2  O   UNL     1     110.774 128.252 138.460  0.00  0.00    +0.000 OA
ATOM      3  C   UNL     1     109.718 129.684 140.909  0.00  0.00    +0.000 A 
ATOM      4  C   UNL     1     110.481 129.351 141.122  0.00  0.00    +0.000 A 
ATOM      5  C   UNL     1     110.927 128.905 140.537  0.00  0.00    +0.000 A 
ATOM      6  C   UNL     1     110.632 128.793 139.775  0.00  0.00    +0.000 A 
ATOM      7  C   UNL     1     109.411 129.568 140.115  0.00  0.00    +0.000 A 
ATOM      8  C   UNL     1     109.872 129.119 139.544  0.00  0.00    +0.000 A 
ATOM      9  C   UNL     1     111.801 128.046 139.432  0.00  0.00    +0.000 A 
ATOM     10  C   UNL     1     111.069 128.364 139.222  0.00  0.00    +0.000 A 
ATOM     11  C   UNL     1     112.095 128.158 140.195  0.00  0.00    +0.000 A 
ENDROOT
BRANCH  11  14
ATOM     12  O   UNL     1     112.170 126.715 140.991  0.00  0.00    +0.000 OA
ATOM     13  O   UNL     1     115.023 126.886 141.033  0.00  0.00    +0.000 OA
ATOM     14  C   UNL     1     112.827 127.840 140.404  0.00  0.00    +0.000 A 
ATOM     15  C   UNL     1     112.865 127.118 140.803  0.00  0.00    +0.000 A 
ATOM     16  C   UNL     1     113.522 128.243 140.216  0.00  0.00    +0.000 A 
ATOM     17  C   UNL     1     113.597 126.800 141.012  0.00  0.00    +0.000 A 
ATOM     18  C   UNL     1     114.254 127.925 140.425  0.00  0.00    +0.000 A 
ATOM     19  C   UNL     1     114.291 127.204 140.824  0.00  0.00    +0.000 A 
ENDBRANCH  11  14
BRANCH   3  20
ATOM     20  O   UNL     1     109.284 130.113 141.463  0.00  0.00    +0.000 OA
BRANCH  20  28
ATOM     21  O   UNL     1     108.168 129.256 141.712  0.00  0.00    +0.000 OA
ATOM     22  O   UNL     1     106.625 131.154 141.338  0.00  0.00    +0.000 OA
ATOM     23  O   UNL     1     108.255 131.379 141.214  0.00  0.00    +0.000 OA
ATOM     24  O   UNL     1     106.025 129.664 141.710  0.00  0.00    +0.000 OA
ATOM     25  C   UNL     1     107.140 130.522 141.462  0.00  0.00    +0.000 C 
ATOM     26  C   UNL     1     107.955 130.635 141.400  0.00  0.00    +0.000 C 
ATOM     27  C   UNL     1     106.839 129.777 141.649  0.00  0.00    +0.000 C 
ATOM     28  C   UNL     1     108.470 130.001 141.525  0.00  0.00    +0.000 C 
ATOM     29  C   UNL     1     107.354 129.143 141.773  0.00  0.00    +0.000 C 
BRANCH  29  32
ATOM     30  O   UNL     1     107.028 128.148 142.745  0.00  0.00    +0.000 OA
ATOM     31  O   UNL     1     106.777 127.904 141.360  0.00  0.00    +0.000 OA
ATOM     32  C   UNL     1     107.053 128.399 141.960  0.00  0.00    +0.000 C 
ENDBRANCH  29  32
ENDBRANCH  20  28
ENDBRANCH   3  20
BRANCH   4  33
ATOM     33  C   UNL     1     110.784 129.457 141.881  0.00  0.00    +0.000 C 
BRANCH  33  34
ATOM     34  C   UNL     1     111.219 130.135 142.060  0.00  0.00    +0.000 C 
ATOM     35  C   UNL     1     111.557 130.223 142.807  0.00  0.00    +0.000 C 
ATOM     36  C   UNL     1     111.992 130.901 142.987  0.00  0.00    +0.000 C 
ATOM     37  C   UNL     1     111.461 129.632 143.376  0.00  0.00    +0.000 C 
ENDBRANCH  33  34
ENDBRANCH   4  33
BRANCH   9  38
ATOM     38  C   UNL     1     112.237 127.616 138.879  0.00  0.00    +0.000 C 
BRANCH  38  39
ATOM     39  C   UNL     1     112.386 127.934 138.133  0.00  0.00    +0.000 C 
ATOM     40  C   UNL     1     112.564 127.436 137.500  0.00  0.00    +0.000 C 
ATOM     41  C   UNL     1     112.713 127.755 136.754  0.00  0.00    +0.000 C 
BRANCH  40  43
ATOM     42  O   UNL     1     111.904 126.202 137.786  0.00  0.00    +0.000 OA
ATOM     43  C   UNL     1     112.595 126.620 137.614  0.00  0.00    +0.000 C 
BRANCH  43  44
ATOM     44  C   UNL     1     113.315 126.221 137.554  0.00  0.00    +0.000 C 
BRANCH  44  45
ATOM     45  C   UNL     1     113.327 125.418 137.365  0.00  0.00    +0.000 C 
ATOM     46  C   UNL     1     114.035 124.997 137.403  0.00  0.00    +0.000 C 
ATOM     47  C   UNL     1     114.047 124.194 137.214  0.00  0.00    +0.000 C 
ATOM     48  C   UNL     1     114.731 125.378 137.631  0.00  0.00    +0.000 C 
ENDBRANCH  44  45
ENDBRANCH  43  44
ENDBRANCH  40  43
ENDBRANCH  38  39
ENDBRANCH   9  38
TORSDOF 11
ENDMDL
MODEL 8
REMARK VINA RESULT:      -8.7      3.320      5.363
REMARK  Name = 131835917
REMARK  11 active torsions:
REMARK  status: ('A' for Active; 'I' for Inactive)
REMARK    1  A    between atoms: O_2  and  C_16
REMARK    2  A    between atoms: O_2  and  C_19
REMARK    3  A    between atoms: C_17  and  C_18
REMARK    4  A    between atoms: C_20  and  C_24
REMARK    5  A    between atoms: C_24  and  C_30
REMARK    6  A    between atoms: C_26  and  C_29
REMARK    7  A    between atoms: C_28  and  C_31
REMARK    8  A    between atoms: C_29  and  C_32
REMARK    9  A    between atoms: C_33  and  C_35
REMARK   10  A    between atoms: C_35  and  C_38
REMARK   11  A    between atoms: C_38  and  C_45
REMARK                            x       y       z     vdW  Elec       q    Type
REMARK                         _______ _______ _______ _____ _____    ______ ____
ROOT
ATOM      1  O   UNL     1     111.411 130.499 139.178  0.00  0.00    +0.000 OA
ATOM      2  O   UNL     1     109.561 131.537 140.453  0.00  0.00    +0.000 OA
ATOM      3  C   UNL     1     110.422 131.673 137.554  0.00  0.00    +0.000 A 
ATOM      4  C   UNL     1     110.975 131.152 137.956  0.00  0.00    +0.000 A 
ATOM      5  C   UNL     1     110.878 130.999 138.797  0.00  0.00    +0.000 A 
ATOM      6  C   UNL     1     110.261 131.345 139.222  0.00  0.00    +0.000 A 
ATOM      7  C   UNL     1     109.780 132.033 137.996  0.00  0.00    +0.000 A 
ATOM      8  C   UNL     1     109.699 131.868 138.836  0.00  0.00    +0.000 A 
ATOM      9  C   UNL     1     110.712 130.690 140.410  0.00  0.00    +0.000 A 
ATOM     10  C   UNL     1     110.178 131.191 140.028  0.00  0.00    +0.000 A 
ATOM     11  C   UNL     1     111.328 130.344 139.984  0.00  0.00    +0.000 A 
ENDROOT
BRANCH  11  14
ATOM     12  O   UNL     1     112.761 130.940 140.545  0.00  0.00    +0.000 OA
ATOM     13  O   UNL     1     113.463 128.343 141.510  0.00  0.00    +0.000 OA
ATOM     14  C   UNL     1     111.862 129.844 140.365  0.00  0.00    +0.000 A 
ATOM     15  C   UNL     1     112.578 130.142 140.646  0.00  0.00    +0.000 A 
ATOM     16  C   UNL     1     111.679 129.046 140.466  0.00  0.00    +0.000 A 
ATOM     17  C   UNL     1     113.112 129.641 141.027  0.00  0.00    +0.000 A 
ATOM     18  C   UNL     1     112.213 128.545 140.848  0.00  0.00    +0.000 A 
ATOM     19  C   UNL     1     112.929 128.843 141.128  0.00  0.00    +0.000 A 
ENDBRANCH  11  14
BRANCH   3  20
ATOM     20  O   UNL     1     110.507 131.825 136.748  0.00  0.00    +0.000 OA
BRANCH  20  28
ATOM     21  O   UNL     1     109.434 131.037 136.230  0.00  0.00    +0.000 OA
ATOM     22  O   UNL     1     108.776 132.907 134.748  0.00  0.00    +0.000 OA
ATOM     23  O   UNL     1     110.069 133.072 135.760  0.00  0.00    +0.000 OA
ATOM     24  O   UNL     1     107.923 131.496 134.724  0.00  0.00    +0.000 OA
ATOM     25  C   UNL     1     108.996 132.284 135.242  0.00  0.00    +0.000 C 
ATOM     26  C   UNL     1     109.642 132.367 135.748  0.00  0.00    +0.000 C 
ATOM     27  C   UNL     1     108.569 131.579 135.229  0.00  0.00    +0.000 C 
ATOM     28  C   UNL     1     109.862 131.743 136.242  0.00  0.00    +0.000 C 
ATOM     29  C   UNL     1     108.788 130.955 135.724  0.00  0.00    +0.000 C 
BRANCH  29  32
ATOM     30  O   UNL     1     107.624 130.206 136.079  0.00  0.00    +0.000 OA
ATOM     31  O   UNL     1     108.671 129.586 135.331  0.00  0.00    +0.000 OA
ATOM     32  C   UNL     1     108.361 130.250 135.711  0.00  0.00    +0.000 C 
ENDBRANCH  29  32
ENDBRANCH  20  28
ENDBRANCH   3  20
BRANCH   4  33
ATOM     33  C   UNL     1     111.594 130.802 137.540  0.00  0.00    +0.000 C 
BRANCH  33  34
ATOM     34  C   UNL     1     112.288 131.225 137.400  0.00  0.00    +0.000 C 
ATOM     35  C   UNL     1     112.921 130.864 137.013  0.00  0.00    +0.000 C 
ATOM     36  C   UNL     1     113.615 131.288 136.872  0.00  0.00    +0.000 C 
ATOM     37  C   UNL     1     112.860 130.079 136.766  0.00  0.00    +0.000 C 
ENDBRANCH  33  34
ENDBRANCH   4  33
BRANCH   9  38
ATOM     38  C   UNL     1     110.628 130.536 141.216  0.00  0.00    +0.000 C 
BRANCH  38  39
ATOM     39  C   UNL     1     109.893 130.326 141.522  0.00  0.00    +0.000 C 
ATOM     40  C   UNL     1     109.738 130.421 142.326  0.00  0.00    +0.000 C 
ATOM     41  C   UNL     1     109.001 130.210 142.632  0.00  0.00    +0.000 C 
BRANCH  40  43
ATOM     42  O   UNL     1     110.554 131.514 142.750  0.00  0.00    +0.000 OA
ATOM     43  C   UNL     1     110.319 130.727 142.825  0.00  0.00    +0.000 C 
BRANCH  43  44
ATOM     44  C   UNL     1     110.665 130.246 143.399  0.00  0.00    +0.000 C 
BRANCH  44  45
ATOM     45  C   UNL     1     111.028 130.585 144.058  0.00  0.00    +0.000 C 
ATOM     46  C   UNL     1     111.434 130.109 144.596  0.00  0.00    +0.000 C 
ATOM     47  C   UNL     1     111.796 130.449 145.255  0.00  0.00    +0.000 C 
ATOM     48  C   UNL     1     111.477 129.294 144.476  0.00  0.00    +0.000 C 
ENDBRANCH  44  45
ENDBRANCH  43  44
ENDBRANCH  40  43
ENDBRANCH  38  39
ENDBRANCH   9  38
TORSDOF 11
ENDMDL
MODEL 9
REMARK VINA RESULT:      -8.6      2.137      3.159
REMARK  Name = 131835917
REMARK  11 active torsions:
REMARK  status: ('A' for Active; 'I' for Inactive)
REMARK    1  A    between atoms: O_2  and  C_16
REMARK    2  A    between atoms: O_2  and  C_19
REMARK    3  A    between atoms: C_17  and  C_18
REMARK    4  A    between atoms: C_20  and  C_24
REMARK    5  A    between atoms: C_24  and  C_30
REMARK    6  A    between atoms: C_26  and  C_29
REMARK    7  A    between atoms: C_28  and  C_31
REMARK    8  A    between atoms: C_29  and  C_32
REMARK    9  A    between atoms: C_33  and  C_35
REMARK   10  A    between atoms: C_35  and  C_38
REMARK   11  A    between atoms: C_38  and  C_45
REMARK                            x       y       z     vdW  Elec       q    Type
REMARK                         _______ _______ _______ _____ _____    ______ ____
ROOT
ATOM      1  O   UNL     1     110.201 128.227 138.526  0.00  0.00    +0.000 OA
ATOM      2  O   UNL     1     111.304 127.557 136.414  0.00  0.00    +0.000 OA
ATOM      3  C   UNL     1     110.342 130.211 137.507  0.00  0.00    +0.000 A 
ATOM      4  C   UNL     1     110.165 129.615 138.101  0.00  0.00    +0.000 A 
ATOM      5  C   UNL     1     110.373 128.794 137.953  0.00  0.00    +0.000 A 
ATOM      6  C   UNL     1     110.741 128.571 137.249  0.00  0.00    +0.000 A 
ATOM      7  C   UNL     1     110.725 129.978 136.774  0.00  0.00    +0.000 A 
ATOM      8  C   UNL     1     110.926 129.152 136.644  0.00  0.00    +0.000 A 
ATOM      9  C   UNL     1     110.764 127.212 137.691  0.00  0.00    +0.000 A 
ATOM     10  C   UNL     1     110.936 127.780 137.118  0.00  0.00    +0.000 A 
ATOM     11  C   UNL     1     110.396 127.436 138.396  0.00  0.00    +0.000 A 
ENDROOT
BRANCH  11  14
ATOM     12  O   UNL     1     111.437 127.190 139.652  0.00  0.00    +0.000 OA
ATOM     13  O   UNL     1     109.708 125.165 140.689  0.00  0.00    +0.000 OA
ATOM     14  C   UNL     1     110.224 126.868 138.969  0.00  0.00    +0.000 A 
ATOM     15  C   UNL     1     110.745 126.745 139.597  0.00  0.00    +0.000 A 
ATOM     16  C   UNL     1     109.532 126.424 138.914  0.00  0.00    +0.000 A 
ATOM     17  C   UNL     1     110.572 126.178 140.170  0.00  0.00    +0.000 A 
ATOM     18  C   UNL     1     109.359 125.856 139.487  0.00  0.00    +0.000 A 
ATOM     19  C   UNL     1     109.880 125.733 140.116  0.00  0.00    +0.000 A 
ENDBRANCH  11  14
BRANCH   3  20
ATOM     20  O   UNL     1     110.146 131.001 137.641  0.00  0.00    +0.000 OA
BRANCH  20  28
ATOM     21  O   UNL     1     109.085 131.173 136.698  0.00  0.00    +0.000 OA
ATOM     22  O   UNL     1     110.098 133.304 135.950  0.00  0.00    +0.000 OA
ATOM     23  O   UNL     1     110.821 132.421 137.142  0.00  0.00    +0.000 OA
ATOM     24  O   UNL     1     108.701 132.767 135.258  0.00  0.00    +0.000 OA
ATOM     25  C   UNL     1     109.760 132.594 136.199  0.00  0.00    +0.000 C 
ATOM     26  C   UNL     1     110.122 132.153 136.795  0.00  0.00    +0.000 C 
ATOM     27  C   UNL     1     109.062 132.326 135.853  0.00  0.00    +0.000 C 
ATOM     28  C   UNL     1     109.784 131.442 137.045  0.00  0.00    +0.000 C 
ATOM     29  C   UNL     1     108.724 131.614 136.103  0.00  0.00    +0.000 C 
BRANCH  29  32
ATOM     30  O   UNL     1     107.306 131.442 136.150  0.00  0.00    +0.000 OA
ATOM     31  O   UNL     1     108.046 130.981 135.017  0.00  0.00    +0.000 OA
ATOM     32  C   UNL     1     108.026 131.346 135.757  0.00  0.00    +0.000 C 
ENDBRANCH  29  32
ENDBRANCH  20  28
ENDBRANCH   3  20
BRANCH   4  33
ATOM     33  C   UNL     1     109.798 129.828 138.807  0.00  0.00    +0.000 C 
BRANCH  33  34
ATOM     34  C   UNL     1     110.244 130.144 139.425  0.00  0.00    +0.000 C 
ATOM     35  C   UNL     1     109.882 130.335 140.141  0.00  0.00    +0.000 C 
ATOM     36  C   UNL     1     110.329 130.651 140.759  0.00  0.00    +0.000 C 
ATOM     37  C   UNL     1     109.072 130.209 140.240  0.00  0.00    +0.000 C 
ENDBRANCH  33  34
ENDBRANCH   4  33
BRANCH   9  38
ATOM     38  C   UNL     1     110.959 126.422 137.560  0.00  0.00    +0.000 C 
BRANCH  38  39
ATOM     39  C   UNL     1     110.783 126.067 136.838  0.00  0.00    +0.000 C 
ATOM     40  C   UNL     1     111.200 125.399 136.592  0.00  0.00    +0.000 C 
ATOM     41  C   UNL     1     111.023 125.045 135.869  0.00  0.00    +0.000 C 
BRANCH  40  43
ATOM     42  O   UNL     1     111.602 124.552 137.671  0.00  0.00    +0.000 OA
ATOM     43  C   UNL     1     111.795 125.085 137.071  0.00  0.00    +0.000 C 
BRANCH  43  44
ATOM     44  C   UNL     1     112.581 125.305 136.950  0.00  0.00    +0.000 C 
BRANCH  44  45
ATOM     45  C   UNL     1     113.191 124.812 137.207  0.00  0.00    +0.000 C 
ATOM     46  C   UNL     1     113.977 125.044 137.110  0.00  0.00    +0.000 C 
ATOM     47  C   UNL     1     114.586 124.551 137.367  0.00  0.00    +0.000 C 
ATOM     48  C   UNL     1     114.152 125.768 136.755  0.00  0.00    +0.000 C 
ENDBRANCH  44  45
ENDBRANCH  43  44
ENDBRANCH  40  43
ENDBRANCH  38  39
ENDBRANCH   9  38
TORSDOF 11
ENDMDL
MODEL 10
REMARK VINA RESULT:      -8.6      5.396      7.612
REMARK  Name = 131835917
REMARK  11 active torsions:
REMARK  status: ('A' for Active; 'I' for Inactive)
REMARK    1  A    between atoms: O_2  and  C_16
REMARK    2  A    between atoms: O_2  and  C_19
REMARK    3  A    between atoms: C_17  and  C_18
REMARK    4  A    between atoms: C_20  and  C_24
REMARK    5  A    between atoms: C_24  and  C_30
REMARK    6  A    between atoms: C_26  and  C_29
REMARK    7  A    between atoms: C_28  and  C_31
REMARK    8  A    between atoms: C_29  and  C_32
REMARK    9  A    between atoms: C_33  and  C_35
REMARK   10  A    between atoms: C_35  and  C_38
REMARK   11  A    between atoms: C_38  and  C_45
REMARK                            x       y       z     vdW  Elec       q    Type
REMARK                         _______ _______ _______ _____ _____    ______ ____
ROOT
ATOM      1  O   UNL     1     111.280 129.981 143.218  0.00  0.00    +0.000 OA
ATOM      2  O   UNL     1     112.899 131.493 142.113  0.00  0.00    +0.000 OA
ATOM      3  C   UNL     1     111.180 131.742 144.591  0.00  0.00    +0.000 A 
ATOM      4  C   UNL     1     111.024 130.966 144.254  0.00  0.00    +0.000 A 
ATOM      5  C   UNL     1     111.434 130.726 143.537  0.00  0.00    +0.000 A 
ATOM      6  C   UNL     1     111.973 131.230 143.169  0.00  0.00    +0.000 A 
ATOM      7  C   UNL     1     111.741 132.266 144.208  0.00  0.00    +0.000 A 
ATOM      8  C   UNL     1     112.141 132.008 143.491  0.00  0.00    +0.000 A 
ATOM      9  C   UNL     1     112.207 130.244 142.161  0.00  0.00    +0.000 A 
ATOM     10  C   UNL     1     112.360 130.989 142.481  0.00  0.00    +0.000 A 
ATOM     11  C   UNL     1     111.667 129.740 142.531  0.00  0.00    +0.000 A 
ENDROOT
BRANCH  11  14
ATOM     12  O   UNL     1     110.371 129.520 141.534  0.00  0.00    +0.000 OA
ATOM     13  O   UNL     1     111.055 126.759 141.253  0.00  0.00    +0.000 OA
ATOM     14  C   UNL     1     111.514 128.995 142.211  0.00  0.00    +0.000 A 
ATOM     15  C   UNL     1     110.866 128.885 141.713  0.00  0.00    +0.000 A 
ATOM     16  C   UNL     1     112.009 128.360 142.390  0.00  0.00    +0.000 A 
ATOM     17  C   UNL     1     110.713 128.140 141.393  0.00  0.00    +0.000 A 
ATOM     18  C   UNL     1     111.856 127.614 142.071  0.00  0.00    +0.000 A 
ATOM     19  C   UNL     1     111.208 127.504 141.572  0.00  0.00    +0.000 A 
ENDBRANCH  11  14
BRANCH   3  20
ATOM     20  O   UNL     1     110.792 131.980 145.279  0.00  0.00    +0.000 OA
BRANCH  20  28
ATOM     21  O   UNL     1     111.939 131.932 146.130  0.00  0.00    +0.000 OA
ATOM     22  O   UNL     1     111.095 133.894 147.380  0.00  0.00    +0.000 OA
ATOM     23  O   UNL     1     110.229 133.288 146.112  0.00  0.00    +0.000 OA
ATOM     24  O   UNL     1     112.522 133.191 147.814  0.00  0.00    +0.000 OA
ATOM     25  C   UNL     1     111.376 133.240 146.963  0.00  0.00    +0.000 C 
ATOM     26  C   UNL     1     110.943 132.937 146.329  0.00  0.00    +0.000 C 
ATOM     27  C   UNL     1     112.090 132.889 147.180  0.00  0.00    +0.000 C 
ATOM     28  C   UNL     1     111.224 132.283 145.912  0.00  0.00    +0.000 C 
ATOM     29  C   UNL     1     112.371 132.234 146.763  0.00  0.00    +0.000 C 
BRANCH  29  32
ATOM     30  O   UNL     1     113.800 132.254 146.799  0.00  0.00    +0.000 OA
ATOM     31  O   UNL     1     113.085 131.161 147.379  0.00  0.00    +0.000 OA
ATOM     32  C   UNL     1     113.085 131.883 146.980  0.00  0.00    +0.000 C 
ENDBRANCH  29  32
ENDBRANCH  20  28
ENDBRANCH   3  20
BRANCH   4  33
ATOM     33  C   UNL     1     110.487 130.456 144.615  0.00  0.00    +0.000 C 
BRANCH  33  34
ATOM     34  C   UNL     1     109.679 130.540 144.472  0.00  0.00    +0.000 C 
ATOM     35  C   UNL     1     109.142 130.017 144.816  0.00  0.00    +0.000 C 
ATOM     36  C   UNL     1     108.334 130.101 144.673  0.00  0.00    +0.000 C 
ATOM     37  C   UNL     1     109.413 129.409 145.305  0.00  0.00    +0.000 C 
ENDBRANCH  33  34
ENDBRANCH   4  33
BRANCH   9  38
ATOM     38  C   UNL     1     112.593 130.002 141.474  0.00  0.00    +0.000 C 
BRANCH  38  39
ATOM     39  C   UNL     1     113.410 130.087 141.408  0.00  0.00    +0.000 C 
ATOM     40  C   UNL     1     113.767 130.093 140.664  0.00  0.00    +0.000 C 
ATOM     41  C   UNL     1     114.585 130.178 140.599  0.00  0.00    +0.000 C 
BRANCH  40  43
ATOM     42  O   UNL     1     112.781 130.613 139.770  0.00  0.00    +0.000 OA
ATOM     43  C   UNL     1     113.305 130.013 139.985  0.00  0.00    +0.000 C 
BRANCH  43  44
ATOM     44  C   UNL     1     113.367 129.333 139.522  0.00  0.00    +0.000 C 
BRANCH  44  45
ATOM     45  C   UNL     1     113.058 129.326 138.757  0.00  0.00    +0.000 C 
ATOM     46  C   UNL     1     113.034 128.621 138.328  0.00  0.00    +0.000 C 
ATOM     47  C   UNL     1     112.725 128.614 137.564  0.00  0.00    +0.000 C 
ATOM     48  C   UNL     1     113.319 127.924 138.665  0.00  0.00    +0.000 C 
ENDBRANCH  44  45
ENDBRANCH  43  44
ENDBRANCH  40  43
ENDBRANCH  38  39
ENDBRANCH   9  38
TORSDOF 11
ENDMDL
