MODEL 1
REMARK VINA RESULT:      -9.5      0.000      0.000
REMARK  Name = 44259740
REMARK  4 active torsions:
REMARK  status: ('A' for Active; 'I' for Inactive)
REMARK    1  A    between atoms: O_2  and  C_17
REMARK    2  A    between atoms: O_2  and  C_19
REMARK    3  A    between atoms: C_16  and  C_18
REMARK    4  A    between atoms: C_26  and  C_28
REMARK                            x       y       z     vdW  Elec       q    Type
REMARK                         _______ _______ _______ _____ _____    ______ ____
ROOT
ATOM      1  O   UNL     1     104.204 124.454 145.940  0.00  0.00    +0.000 OA
ATOM      2  O   UNL     1     107.317 125.657 146.303  0.00  0.00    +0.000 OA
ATOM      3  O   UNL     1     106.431 125.142 147.647  0.00  0.00    +0.000 OA
ATOM      4  O   UNL     1     103.687 124.000 148.012  0.00  0.00    +0.000 OA
ATOM      5  O   UNL     1     105.217 124.590 148.195  0.00  0.00    +0.000 OA
ATOM      6  C   UNL     1     106.201 125.315 145.425  0.00  0.00    +0.000 A 
ATOM      7  C   UNL     1     105.403 125.006 145.336  0.00  0.00    +0.000 A 
ATOM      8  C   UNL     1     106.552 125.362 146.208  0.00  0.00    +0.000 A 
ATOM      9  C   UNL     1     104.969 124.749 146.031  0.00  0.00    +0.000 A 
ATOM     10  C   UNL     1     105.307 124.795 146.783  0.00  0.00    +0.000 A 
ATOM     11  C   UNL     1     106.102 125.100 146.891  0.00  0.00    +0.000 A 
ATOM     12  C   UNL     1     104.879 124.545 147.443  0.00  0.00    +0.000 A 
ATOM     13  C   UNL     1     103.776 124.204 146.600  0.00  0.00    +0.000 A 
ATOM     14  C   UNL     1     104.114 124.249 147.352  0.00  0.00    +0.000 A 
ENDROOT
BRANCH  13  16
ATOM     15  O   UNL     1     100.717 123.022 146.236  0.00  0.00    +0.000 OA
ATOM     16  C   UNL     1     103.011 123.909 146.509  0.00  0.00    +0.000 A 
ATOM     17  C   UNL     1     102.362 124.386 146.684  0.00  0.00    +0.000 A 
ATOM     18  C   UNL     1     102.897 123.136 146.244  0.00  0.00    +0.000 A 
ATOM     19  C   UNL     1     101.597 124.090 146.592  0.00  0.00    +0.000 A 
ATOM     20  C   UNL     1     102.132 122.840 146.152  0.00  0.00    +0.000 A 
ATOM     21  C   UNL     1     101.482 123.318 146.327  0.00  0.00    +0.000 A 
ENDBRANCH  13  16
BRANCH   6  22
ATOM     22  O   UNL     1     106.626 125.564 144.763  0.00  0.00    +0.000 OA
BRANCH  22  31
ATOM     23  O   UNL     1     105.994 126.826 144.540  0.00  0.00    +0.000 OA
ATOM     24  O   UNL     1     105.921 126.361 142.111  0.00  0.00    +0.000 OA
ATOM     25  O   UNL     1     105.314 127.777 142.698  0.00  0.00    +0.000 OA
ATOM     26  O   UNL     1     106.577 125.254 143.143  0.00  0.00    +0.000 OA
ATOM     27  C   UNL     1     105.946 126.516 142.921  0.00  0.00    +0.000 C 
ATOM     28  C   UNL     1     105.642 127.224 143.215  0.00  0.00    +0.000 C 
ATOM     29  C   UNL     1     106.274 125.962 143.438  0.00  0.00    +0.000 C 
ATOM     30  C   UNL     1     105.666 127.379 144.025  0.00  0.00    +0.000 C 
ATOM     31  C   UNL     1     106.298 126.117 144.247  0.00  0.00    +0.000 C 
BRANCH  30  33
ATOM     32  O   UNL     1     105.775 128.505 144.898  0.00  0.00    +0.000 OA
ATOM     33  C   UNL     1     105.363 128.088 144.318  0.00  0.00    +0.000 C 
ENDBRANCH  30  33
ENDBRANCH  22  31
ENDBRANCH   6  22
TORSDOF 4
ENDMDL
MODEL 2
REMARK VINA RESULT:      -9.3      1.121      4.712
REMARK  Name = 44259740
REMARK  4 active torsions:
REMARK  status: ('A' for Active; 'I' for Inactive)
REMARK    1  A    between atoms: O_2  and  C_17
REMARK    2  A    between atoms: O_2  and  C_19
REMARK    3  A    between atoms: C_16  and  C_18
REMARK    4  A    between atoms: C_26  and  C_28
REMARK                            x       y       z     vdW  Elec       q    Type
REMARK                         _______ _______ _______ _____ _____    ______ ____
ROOT
ATOM      1  O   UNL     1     105.425 126.257 144.231  0.00  0.00    +0.000 OA
ATOM      2  O   UNL     1     106.523 124.717 147.005  0.00  0.00    +0.000 OA
ATOM      3  O   UNL     1     107.255 126.141 146.464  0.00  0.00    +0.000 OA
ATOM      4  O   UNL     1     106.781 127.965 144.136  0.00  0.00    +0.000 OA
ATOM      5  O   UNL     1     107.324 127.212 145.500  0.00  0.00    +0.000 OA
ATOM      6  C   UNL     1     105.590 124.760 145.882  0.00  0.00    +0.000 A 
ATOM      7  C   UNL     1     105.312 125.157 145.172  0.00  0.00    +0.000 A 
ATOM      8  C   UNL     1     106.249 125.091 146.322  0.00  0.00    +0.000 A 
ATOM      9  C   UNL     1     105.697 125.880 144.913  0.00  0.00    +0.000 A 
ATOM     10  C   UNL     1     106.329 126.198 145.336  0.00  0.00    +0.000 A 
ATOM     11  C   UNL     1     106.621 125.815 146.047  0.00  0.00    +0.000 A 
ATOM     12  C   UNL     1     106.691 126.893 145.077  0.00  0.00    +0.000 A 
ATOM     13  C   UNL     1     105.787 126.952 143.972  0.00  0.00    +0.000 A 
ATOM     14  C   UNL     1     106.420 127.270 144.395  0.00  0.00    +0.000 A 
ENDROOT
BRANCH  13  16
ATOM     15  O   UNL     1     104.702 128.460 141.245  0.00  0.00    +0.000 OA
ATOM     16  C   UNL     1     105.516 127.329 143.290  0.00  0.00    +0.000 A 
ATOM     17  C   UNL     1     105.716 127.032 142.547  0.00  0.00    +0.000 A 
ATOM     18  C   UNL     1     105.044 128.003 143.352  0.00  0.00    +0.000 A 
ATOM     19  C   UNL     1     105.445 127.409 141.866  0.00  0.00    +0.000 A 
ATOM     20  C   UNL     1     104.772 128.380 142.670  0.00  0.00    +0.000 A 
ATOM     21  C   UNL     1     104.973 128.083 141.927  0.00  0.00    +0.000 A 
ENDBRANCH  13  16
BRANCH   6  22
ATOM     22  O   UNL     1     105.226 124.065 146.139  0.00  0.00    +0.000 OA
BRANCH  22  31
ATOM     23  O   UNL     1     104.071 124.621 146.769  0.00  0.00    +0.000 OA
ATOM     24  O   UNL     1     102.661 122.878 145.721  0.00  0.00    +0.000 OA
ATOM     25  O   UNL     1     101.976 124.014 146.700  0.00  0.00    +0.000 OA
ATOM     26  O   UNL     1     104.286 122.903 145.440  0.00  0.00    +0.000 OA
ATOM     27  C   UNL     1     103.131 123.459 146.070  0.00  0.00    +0.000 C 
ATOM     28  C   UNL     1     102.789 124.027 146.560  0.00  0.00    +0.000 C 
ATOM     29  C   UNL     1     103.944 123.471 145.930  0.00  0.00    +0.000 C 
ATOM     30  C   UNL     1     103.259 124.608 146.910  0.00  0.00    +0.000 C 
ATOM     31  C   UNL     1     104.414 124.052 146.279  0.00  0.00    +0.000 C 
BRANCH  30  33
ATOM     32  O   UNL     1     103.285 125.391 148.105  0.00  0.00    +0.000 OA
ATOM     33  C   UNL     1     102.916 125.176 147.399  0.00  0.00    +0.000 C 
ENDBRANCH  30  33
ENDBRANCH  22  31
ENDBRANCH   6  22
TORSDOF 4
ENDMDL
MODEL 3
REMARK VINA RESULT:      -9.3      2.159      5.458
REMARK  Name = 44259740
REMARK  4 active torsions:
REMARK  status: ('A' for Active; 'I' for Inactive)
REMARK    1  A    between atoms: O_2  and  C_17
REMARK    2  A    between atoms: O_2  and  C_19
REMARK    3  A    between atoms: C_16  and  C_18
REMARK    4  A    between atoms: C_26  and  C_28
REMARK                            x       y       z     vdW  Elec       q    Type
REMARK                         _______ _______ _______ _____ _____    ______ ____
ROOT
ATOM      1  O   UNL     1     105.000 127.787 142.423  0.00  0.00    +0.000 OA
ATOM      2  O   UNL     1     107.749 125.860 142.433  0.00  0.00    +0.000 OA
ATOM      3  O   UNL     1     107.793 127.420 141.785  0.00  0.00    +0.000 OA
ATOM      4  O   UNL     1     105.761 129.597 141.470  0.00  0.00    +0.000 OA
ATOM      5  O   UNL     1     107.115 128.654 141.473  0.00  0.00    +0.000 OA
ATOM      6  C   UNL     1     106.336 126.028 142.763  0.00  0.00    +0.000 A 
ATOM      7  C   UNL     1     105.634 126.525 142.759  0.00  0.00    +0.000 A 
ATOM      8  C   UNL     1     107.070 126.330 142.433  0.00  0.00    +0.000 A 
ATOM      9  C   UNL     1     105.676 127.315 142.424  0.00  0.00    +0.000 A 
ATOM     10  C   UNL     1     106.381 127.604 142.108  0.00  0.00    +0.000 A 
ATOM     11  C   UNL     1     107.093 127.122 142.104  0.00  0.00    +0.000 A 
ATOM     12  C   UNL     1     106.410 128.364 141.790  0.00  0.00    +0.000 A 
ATOM     13  C   UNL     1     105.028 128.548 142.104  0.00  0.00    +0.000 A 
ATOM     14  C   UNL     1     105.733 128.836 141.788  0.00  0.00    +0.000 A 
ENDROOT
BRANCH  13  16
ATOM     15  O   UNL     1     102.322 130.436 142.098  0.00  0.00    +0.000 OA
ATOM     16  C   UNL     1     104.351 129.020 142.103  0.00  0.00    +0.000 A 
ATOM     17  C   UNL     1     103.853 129.025 141.445  0.00  0.00    +0.000 A 
ATOM     18  C   UNL     1     104.173 129.487 142.760  0.00  0.00    +0.000 A 
ATOM     19  C   UNL     1     103.177 129.497 141.444  0.00  0.00    +0.000 A 
ATOM     20  C   UNL     1     103.496 129.959 142.758  0.00  0.00    +0.000 A 
ATOM     21  C   UNL     1     102.998 129.964 142.100  0.00  0.00    +0.000 A 
ENDBRANCH  13  16
BRANCH   6  22
ATOM     22  O   UNL     1     106.305 125.268 143.082  0.00  0.00    +0.000 OA
BRANCH  22  31
ATOM     23  O   UNL     1     106.370 125.626 144.464  0.00  0.00    +0.000 OA
ATOM     24  O   UNL     1     104.688 123.889 144.993  0.00  0.00    +0.000 OA
ATOM     25  O   UNL     1     105.314 124.825 146.198  0.00  0.00    +0.000 OA
ATOM     26  O   UNL     1     105.183 124.110 143.435  0.00  0.00    +0.000 OA
ATOM     27  C   UNL     1     105.249 124.468 144.817  0.00  0.00    +0.000 C 
ATOM     28  C   UNL     1     105.562 124.936 145.419  0.00  0.00    +0.000 C 
ATOM     29  C   UNL     1     105.497 124.579 144.037  0.00  0.00    +0.000 C 
ATOM     30  C   UNL     1     106.123 125.515 145.243  0.00  0.00    +0.000 C 
ATOM     31  C   UNL     1     106.057 125.158 143.861  0.00  0.00    +0.000 C 
BRANCH  30  33
ATOM     32  O   UNL     1     107.251 126.095 145.901  0.00  0.00    +0.000 OA
ATOM     33  C   UNL     1     106.435 125.983 145.845  0.00  0.00    +0.000 C 
ENDBRANCH  30  33
ENDBRANCH  22  31
ENDBRANCH   6  22
TORSDOF 4
ENDMDL
MODEL 4
REMARK VINA RESULT:      -9.1     10.013     12.122
REMARK  Name = 44259740
REMARK  4 active torsions:
REMARK  status: ('A' for Active; 'I' for Inactive)
REMARK    1  A    between atoms: O_2  and  C_17
REMARK    2  A    between atoms: O_2  and  C_19
REMARK    3  A    between atoms: C_16  and  C_18
REMARK    4  A    between atoms: C_26  and  C_28
REMARK                            x       y       z     vdW  Elec       q    Type
REMARK                         _______ _______ _______ _____ _____    ______ ____
ROOT
ATOM      1  O   UNL     1     112.230 126.565 136.317  0.00  0.00    +0.000 OA
ATOM      2  O   UNL     1     109.333 127.636 135.002  0.00  0.00    +0.000 OA
ATOM      3  O   UNL     1     109.653 125.983 135.147  0.00  0.00    +0.000 OA
ATOM      4  O   UNL     1     111.968 124.401 136.198  0.00  0.00    +0.000 OA
ATOM      5  O   UNL     1     110.543 124.922 135.552  0.00  0.00    +0.000 OA
ATOM      6  C   UNL     1     110.631 127.948 135.591  0.00  0.00    +0.000 A 
ATOM      7  C   UNL     1     111.372 127.670 135.927  0.00  0.00    +0.000 A 
ATOM      8  C   UNL     1     110.046 127.378 135.326  0.00  0.00    +0.000 A 
ATOM      9  C   UNL     1     111.517 126.826 135.993  0.00  0.00    +0.000 A 
ATOM     10  C   UNL     1     110.955 126.279 135.738  0.00  0.00    +0.000 A 
ATOM     11  C   UNL     1     110.209 126.538 135.400  0.00  0.00    +0.000 A 
ATOM     12  C   UNL     1     111.105 125.470 135.807  0.00  0.00    +0.000 A 
ATOM     13  C   UNL     1     112.380 125.756 136.385  0.00  0.00    +0.000 A 
ATOM     14  C   UNL     1     111.818 125.209 136.130  0.00  0.00    +0.000 A 
ENDROOT
BRANCH  13  16
ATOM     15  O   UNL     1     115.230 124.712 137.680  0.00  0.00    +0.000 OA
ATOM     16  C   UNL     1     113.093 125.495 136.709  0.00  0.00    +0.000 A 
ATOM     17  C   UNL     1     113.733 125.330 136.216  0.00  0.00    +0.000 A 
ATOM     18  C   UNL     1     113.164 125.399 137.526  0.00  0.00    +0.000 A 
ATOM     19  C   UNL     1     114.445 125.069 136.540  0.00  0.00    +0.000 A 
ATOM     20  C   UNL     1     113.877 125.138 137.849  0.00  0.00    +0.000 A 
ATOM     21  C   UNL     1     114.517 124.973 137.356  0.00  0.00    +0.000 A 
ENDBRANCH  13  16
BRANCH   6  22
ATOM     22  O   UNL     1     110.484 128.757 135.524  0.00  0.00    +0.000 OA
BRANCH  22  31
ATOM     23  O   UNL     1     110.186 129.064 136.888  0.00  0.00    +0.000 OA
ATOM     24  O   UNL     1     111.599 131.090 136.741  0.00  0.00    +0.000 OA
ATOM     25  O   UNL     1     110.830 130.721 138.152  0.00  0.00    +0.000 OA
ATOM     26  O   UNL     1     111.426 130.108 135.426  0.00  0.00    +0.000 OA
ATOM     27  C   UNL     1     111.128 130.415 136.790  0.00  0.00    +0.000 C 
ATOM     28  C   UNL     1     110.743 130.230 137.496  0.00  0.00    +0.000 C 
ATOM     29  C   UNL     1     111.041 129.923 136.132  0.00  0.00    +0.000 C 
ATOM     30  C   UNL     1     110.272 129.554 137.544  0.00  0.00    +0.000 C 
ATOM     31  C   UNL     1     110.570 129.248 136.181  0.00  0.00    +0.000 C 
BRANCH  30  33
ATOM     32  O   UNL     1     109.111 129.093 138.238  0.00  0.00    +0.000 OA
ATOM     33  C   UNL     1     109.888 129.370 138.250  0.00  0.00    +0.000 C 
ENDBRANCH  30  33
ENDBRANCH  22  31
ENDBRANCH   6  22
TORSDOF 4
ENDMDL
MODEL 5
REMARK VINA RESULT:      -9.0     10.615     12.079
REMARK  Name = 44259740
REMARK  4 active torsions:
REMARK  status: ('A' for Active; 'I' for Inactive)
REMARK    1  A    between atoms: O_2  and  C_17
REMARK    2  A    between atoms: O_2  and  C_19
REMARK    3  A    between atoms: C_16  and  C_18
REMARK    4  A    between atoms: C_26  and  C_28
REMARK                            x       y       z     vdW  Elec       q    Type
REMARK                         _______ _______ _______ _____ _____    ______ ____
ROOT
ATOM      1  O   UNL     1     111.938 126.614 136.257  0.00  0.00    +0.000 OA
ATOM      2  O   UNL     1     112.754 129.768 135.447  0.00  0.00    +0.000 OA
ATOM      3  O   UNL     1     113.935 128.684 135.981  0.00  0.00    +0.000 OA
ATOM      4  O   UNL     1     113.884 125.815 136.838  0.00  0.00    +0.000 OA
ATOM      5  O   UNL     1     114.290 127.364 136.441  0.00  0.00    +0.000 OA
ATOM      6  C   UNL     1     111.731 128.734 135.581  0.00  0.00    +0.000 A 
ATOM      7  C   UNL     1     111.526 127.925 135.789  0.00  0.00    +0.000 A 
ATOM      8  C   UNL     1     112.548 128.994 135.645  0.00  0.00    +0.000 A 
ATOM      9  C   UNL     1     112.141 127.389 136.059  0.00  0.00    +0.000 A 
ATOM     10  C   UNL     1     112.924 127.639 136.120  0.00  0.00    +0.000 A 
ATOM     11  C   UNL     1     113.148 128.443 135.916  0.00  0.00    +0.000 A 
ATOM     12  C   UNL     1     113.506 127.114 136.380  0.00  0.00    +0.000 A 
ATOM     13  C   UNL     1     112.519 126.089 136.517  0.00  0.00    +0.000 A 
ATOM     14  C   UNL     1     113.303 126.339 136.578  0.00  0.00    +0.000 A 
ENDROOT
BRANCH  13  16
ATOM     15  O   UNL     1     111.709 122.991 137.312  0.00  0.00    +0.000 OA
ATOM     16  C   UNL     1     112.317 125.314 136.716  0.00  0.00    +0.000 A 
ATOM     17  C   UNL     1     112.425 124.707 136.168  0.00  0.00    +0.000 A 
ATOM     18  C   UNL     1     112.006 125.148 137.462  0.00  0.00    +0.000 A 
ATOM     19  C   UNL     1     112.222 123.933 136.368  0.00  0.00    +0.000 A 
ATOM     20  C   UNL     1     111.804 124.373 137.661  0.00  0.00    +0.000 A 
ATOM     21  C   UNL     1     111.912 123.766 137.114  0.00  0.00    +0.000 A 
ENDBRANCH  13  16
BRANCH   6  22
ATOM     22  O   UNL     1     111.148 129.257 135.321  0.00  0.00    +0.000 OA
BRANCH  22  31
ATOM     23  O   UNL     1     110.569 129.585 136.586  0.00  0.00    +0.000 OA
ATOM     24  O   UNL     1     108.308 129.436 135.590  0.00  0.00    +0.000 OA
ATOM     25  O   UNL     1     108.484 129.813 137.186  0.00  0.00    +0.000 OA
ATOM     26  O   UNL     1     109.641 129.157 134.657  0.00  0.00    +0.000 OA
ATOM     27  C   UNL     1     109.062 129.486 135.922  0.00  0.00    +0.000 C 
ATOM     28  C   UNL     1     109.150 129.674 136.720  0.00  0.00    +0.000 C 
ATOM     29  C   UNL     1     109.729 129.346 135.455  0.00  0.00    +0.000 C 
ATOM     30  C   UNL     1     109.904 129.724 137.052  0.00  0.00    +0.000 C 
ATOM     31  C   UNL     1     110.482 129.396 135.787  0.00  0.00    +0.000 C 
BRANCH  30  33
ATOM     32  O   UNL     1     110.552 130.470 138.084  0.00  0.00    +0.000 OA
ATOM     33  C   UNL     1     109.991 129.912 137.850  0.00  0.00    +0.000 C 
ENDBRANCH  30  33
ENDBRANCH  22  31
ENDBRANCH   6  22
TORSDOF 4
ENDMDL
MODEL 6
REMARK VINA RESULT:      -9.0      1.179      4.791
REMARK  Name = 44259740
REMARK  4 active torsions:
REMARK  status: ('A' for Active; 'I' for Inactive)
REMARK    1  A    between atoms: O_2  and  C_17
REMARK    2  A    between atoms: O_2  and  C_19
REMARK    3  A    between atoms: C_16  and  C_18
REMARK    4  A    between atoms: C_26  and  C_28
REMARK                            x       y       z     vdW  Elec       q    Type
REMARK                         _______ _______ _______ _____ _____    ______ ____
ROOT
ATOM      1  O   UNL     1     105.002 126.443 145.528  0.00  0.00    +0.000 OA
ATOM      2  O   UNL     1     105.616 123.927 147.665  0.00  0.00    +0.000 OA
ATOM      3  O   UNL     1     106.888 124.772 146.941  0.00  0.00    +0.000 OA
ATOM      4  O   UNL     1     107.032 127.050 145.003  0.00  0.00    +0.000 OA
ATOM      5  O   UNL     1     107.338 125.814 146.052  0.00  0.00    +0.000 OA
ATOM      6  C   UNL     1     104.648 124.762 146.959  0.00  0.00    +0.000 A 
ATOM      7  C   UNL     1     104.495 125.407 146.411  0.00  0.00    +0.000 A 
ATOM      8  C   UNL     1     105.459 124.545 147.140  0.00  0.00    +0.000 A 
ATOM      9  C   UNL     1     105.155 125.825 146.053  0.00  0.00    +0.000 A 
ATOM     10  C   UNL     1     105.934 125.615 146.228  0.00  0.00    +0.000 A 
ATOM     11  C   UNL     1     106.106 124.974 146.773  0.00  0.00    +0.000 A 
ATOM     12  C   UNL     1     106.559 126.023 145.878  0.00  0.00    +0.000 A 
ATOM     13  C   UNL     1     105.628 126.851 145.178  0.00  0.00    +0.000 A 
ATOM     14  C   UNL     1     106.406 126.641 145.353  0.00  0.00    +0.000 A 
ENDROOT
BRANCH  13  16
ATOM     15  O   UNL     1     105.016 129.322 143.078  0.00  0.00    +0.000 OA
ATOM     16  C   UNL     1     105.475 127.469 144.653  0.00  0.00    +0.000 A 
ATOM     17  C   UNL     1     105.328 128.228 144.941  0.00  0.00    +0.000 A 
ATOM     18  C   UNL     1     105.469 127.327 143.840  0.00  0.00    +0.000 A 
ATOM     19  C   UNL     1     105.175 128.845 144.416  0.00  0.00    +0.000 A 
ATOM     20  C   UNL     1     105.316 127.945 143.315  0.00  0.00    +0.000 A 
ATOM     21  C   UNL     1     105.169 128.704 143.603  0.00  0.00    +0.000 A 
ENDBRANCH  13  16
BRANCH   6  22
ATOM     22  O   UNL     1     104.021 124.356 147.308  0.00  0.00    +0.000 OA
BRANCH  22  31
ATOM     23  O   UNL     1     103.618 123.547 146.200  0.00  0.00    +0.000 OA
ATOM     24  O   UNL     1     101.246 124.051 146.695  0.00  0.00    +0.000 OA
ATOM     25  O   UNL     1     101.634 123.076 145.423  0.00  0.00    +0.000 OA
ATOM     26  O   UNL     1     102.439 124.692 147.637  0.00  0.00    +0.000 OA
ATOM     27  C   UNL     1     102.037 123.883 146.530  0.00  0.00    +0.000 C 
ATOM     28  C   UNL     1     102.231 123.395 145.894  0.00  0.00    +0.000 C 
ATOM     29  C   UNL     1     102.634 124.204 147.001  0.00  0.00    +0.000 C 
ATOM     30  C   UNL     1     103.022 123.227 145.729  0.00  0.00    +0.000 C 
ATOM     31  C   UNL     1     103.425 124.036 146.837  0.00  0.00    +0.000 C 
BRANCH  30  33
ATOM     32  O   UNL     1     103.647 123.041 144.458  0.00  0.00    +0.000 OA
ATOM     33  C   UNL     1     103.216 122.740 145.093  0.00  0.00    +0.000 C 
ENDBRANCH  30  33
ENDBRANCH  22  31
ENDBRANCH   6  22
TORSDOF 4
ENDMDL
MODEL 7
REMARK VINA RESULT:      -9.0      9.377     12.566
REMARK  Name = 44259740
REMARK  4 active torsions:
REMARK  status: ('A' for Active; 'I' for Inactive)
REMARK    1  A    between atoms: O_2  and  C_17
REMARK    2  A    between atoms: O_2  and  C_19
REMARK    3  A    between atoms: C_16  and  C_18
REMARK    4  A    between atoms: C_26  and  C_28
REMARK                            x       y       z     vdW  Elec       q    Type
REMARK                         _______ _______ _______ _____ _____    ______ ____
ROOT
ATOM      1  O   UNL     1     111.202 129.697 135.822  0.00  0.00    +0.000 OA
ATOM      2  O   UNL     1     107.875 130.068 136.083  0.00  0.00    +0.000 OA
ATOM      3  O   UNL     1     108.533 128.727 135.291  0.00  0.00    +0.000 OA
ATOM      4  O   UNL     1     111.328 127.816 134.722  0.00  0.00    +0.000 OA
ATOM      5  O   UNL     1     109.693 127.994 134.847  0.00  0.00    +0.000 OA
ATOM      6  C   UNL     1     109.217 130.573 136.360  0.00  0.00    +0.000 A 
ATOM      7  C   UNL     1     110.068 130.474 136.291  0.00  0.00    +0.000 A 
ATOM      8  C   UNL     1     108.694 129.982 136.022  0.00  0.00    +0.000 A 
ATOM      9  C   UNL     1     110.384 129.786 135.885  0.00  0.00    +0.000 A 
ATOM     10  C   UNL     1     109.881 129.219 135.560  0.00  0.00    +0.000 A 
ATOM     11  C   UNL     1     109.028 129.300 135.619  0.00  0.00    +0.000 A 
ATOM     12  C   UNL     1     110.195 128.562 135.173  0.00  0.00    +0.000 A 
ATOM     13  C   UNL     1     111.516 129.040 135.434  0.00  0.00    +0.000 A 
ATOM     14  C   UNL     1     111.013 128.473 135.110  0.00  0.00    +0.000 A 
ENDROOT
BRANCH  13  16
ATOM     15  O   UNL     1     114.787 128.683 135.183  0.00  0.00    +0.000 OA
ATOM     16  C   UNL     1     112.334 128.951 135.371  0.00  0.00    +0.000 A 
ATOM     17  C   UNL     1     112.737 129.283 134.733  0.00  0.00    +0.000 A 
ATOM     18  C   UNL     1     112.748 128.529 135.948  0.00  0.00    +0.000 A 
ATOM     19  C   UNL     1     113.555 129.193 134.671  0.00  0.00    +0.000 A 
ATOM     20  C   UNL     1     113.566 128.440 135.885  0.00  0.00    +0.000 A 
ATOM     21  C   UNL     1     113.969 128.772 135.246  0.00  0.00    +0.000 A 
ENDBRANCH  13  16
BRANCH   6  22
ATOM     22  O   UNL     1     108.905 131.231 136.749  0.00  0.00    +0.000 OA
BRANCH  22  31
ATOM     23  O   UNL     1     109.077 130.880 138.123  0.00  0.00    +0.000 OA
ATOM     24  O   UNL     1     110.116 133.084 138.556  0.00  0.00    +0.000 OA
ATOM     25  O   UNL     1     109.942 131.999 139.785  0.00  0.00    +0.000 OA
ATOM     26  O   UNL     1     109.597 132.700 137.037  0.00  0.00    +0.000 OA
ATOM     27  C   UNL     1     109.770 132.349 138.411  0.00  0.00    +0.000 C 
ATOM     28  C   UNL     1     109.683 131.806 139.026  0.00  0.00    +0.000 C 
ATOM     29  C   UNL     1     109.510 132.157 137.651  0.00  0.00    +0.000 C 
ATOM     30  C   UNL     1     109.336 131.071 138.882  0.00  0.00    +0.000 C 
ATOM     31  C   UNL     1     109.164 131.422 137.507  0.00  0.00    +0.000 C 
BRANCH  30  33
ATOM     32  O   UNL     1     108.577 130.054 139.536  0.00  0.00    +0.000 OA
ATOM     33  C   UNL     1     109.250 130.529 139.497  0.00  0.00    +0.000 C 
ENDBRANCH  30  33
ENDBRANCH  22  31
ENDBRANCH   6  22
TORSDOF 4
ENDMDL
MODEL 8
REMARK VINA RESULT:      -9.0      9.934     12.378
REMARK  Name = 44259740
REMARK  4 active torsions:
REMARK  status: ('A' for Active; 'I' for Inactive)
REMARK    1  A    between atoms: O_2  and  C_17
REMARK    2  A    between atoms: O_2  and  C_19
REMARK    3  A    between atoms: C_16  and  C_18
REMARK    4  A    between atoms: C_26  and  C_28
REMARK                            x       y       z     vdW  Elec       q    Type
REMARK                         _______ _______ _______ _____ _____    ______ ____
ROOT
ATOM      1  O   UNL     1     112.256 128.729 137.019  0.00  0.00    +0.000 OA
ATOM      2  O   UNL     1     109.185 127.651 137.843  0.00  0.00    +0.000 OA
ATOM      3  O   UNL     1     109.425 129.233 137.298  0.00  0.00    +0.000 OA
ATOM      4  O   UNL     1     111.831 130.786 136.425  0.00  0.00    +0.000 OA
ATOM      5  O   UNL     1     110.321 130.261 136.829  0.00  0.00    +0.000 OA
ATOM      6  C   UNL     1     110.613 127.379 137.708  0.00  0.00    +0.000 A 
ATOM      7  C   UNL     1     111.398 127.659 137.496  0.00  0.00    +0.000 A 
ATOM      8  C   UNL     1     109.942 127.911 137.642  0.00  0.00    +0.000 A 
ATOM      9  C   UNL     1     111.500 128.466 137.221  0.00  0.00    +0.000 A 
ATOM     10  C   UNL     1     110.855 128.976 137.158  0.00  0.00    +0.000 A 
ATOM     11  C   UNL     1     110.064 128.715 137.365  0.00  0.00    +0.000 A 
ATOM     12  C   UNL     1     110.966 129.750 136.892  0.00  0.00    +0.000 A 
ATOM     13  C   UNL     1     112.366 129.502 136.754  0.00  0.00    +0.000 A 
ATOM     14  C   UNL     1     111.721 130.013 136.690  0.00  0.00    +0.000 A 
ENDROOT
BRANCH  13  16
ATOM     15  O   UNL     1     115.388 130.554 135.945  0.00  0.00    +0.000 OA
ATOM     16  C   UNL     1     113.122 129.765 136.552  0.00  0.00    +0.000 A 
ATOM     17  C   UNL     1     113.576 130.178 137.103  0.00  0.00    +0.000 A 
ATOM     18  C   UNL     1     113.422 129.615 135.798  0.00  0.00    +0.000 A 
ATOM     19  C   UNL     1     114.331 130.441 136.900  0.00  0.00    +0.000 A 
ATOM     20  C   UNL     1     114.178 129.878 135.596  0.00  0.00    +0.000 A 
ATOM     21  C   UNL     1     114.632 130.291 136.147  0.00  0.00    +0.000 A 
ENDBRANCH  13  16
BRANCH   6  22
ATOM     22  O   UNL     1     110.506 126.605 137.973  0.00  0.00    +0.000 OA
BRANCH  22  31
ATOM     23  O   UNL     1     110.631 125.951 136.708  0.00  0.00    +0.000 OA
ATOM     24  O   UNL     1     111.894 124.114 137.783  0.00  0.00    +0.000 OA
ATOM     25  O   UNL     1     111.599 124.074 136.161  0.00  0.00    +0.000 OA
ATOM     26  O   UNL     1     111.347 125.380 138.690  0.00  0.00    +0.000 OA
ATOM     27  C   UNL     1     111.473 124.727 137.425  0.00  0.00    +0.000 C 
ATOM     28  C   UNL     1     111.325 124.707 136.614  0.00  0.00    +0.000 C 
ATOM     29  C   UNL     1     111.200 125.360 137.878  0.00  0.00    +0.000 C 
ATOM     30  C   UNL     1     110.904 125.319 136.255  0.00  0.00    +0.000 C 
ATOM     31  C   UNL     1     110.779 125.973 137.520  0.00  0.00    +0.000 C 
BRANCH  30  33
ATOM     32  O   UNL     1     109.998 125.451 135.158  0.00  0.00    +0.000 OA
ATOM     33  C   UNL     1     110.757 125.299 135.445  0.00  0.00    +0.000 C 
ENDBRANCH  30  33
ENDBRANCH  22  31
ENDBRANCH   6  22
TORSDOF 4
ENDMDL
MODEL 9
REMARK VINA RESULT:      -9.0      9.304     11.621
REMARK  Name = 44259740
REMARK  4 active torsions:
REMARK  status: ('A' for Active; 'I' for Inactive)
REMARK    1  A    between atoms: O_2  and  C_17
REMARK    2  A    between atoms: O_2  and  C_19
REMARK    3  A    between atoms: C_16  and  C_18
REMARK    4  A    between atoms: C_26  and  C_28
REMARK                            x       y       z     vdW  Elec       q    Type
REMARK                         _______ _______ _______ _____ _____    ______ ____
ROOT
ATOM      1  O   UNL     1     113.643 126.510 138.479  0.00  0.00    +0.000 OA
ATOM      2  O   UNL     1     111.548 127.538 140.892  0.00  0.00    +0.000 OA
ATOM      3  O   UNL     1     111.121 126.264 139.867  0.00  0.00    +0.000 OA
ATOM      4  O   UNL     1     112.484 124.893 137.580  0.00  0.00    +0.000 OA
ATOM      5  O   UNL     1     111.451 125.395 138.764  0.00  0.00    +0.000 OA
ATOM      6  C   UNL     1     112.827 127.677 140.202  0.00  0.00    +0.000 A 
ATOM      7  C   UNL     1     113.361 127.410 139.583  0.00  0.00    +0.000 A 
ATOM      8  C   UNL     1     112.067 127.290 140.300  0.00  0.00    +0.000 A 
ATOM      9  C   UNL     1     113.127 126.761 139.071  0.00  0.00    +0.000 A 
ATOM     10  C   UNL     1     112.396 126.390 139.167  0.00  0.00    +0.000 A 
ATOM     11  C   UNL     1     111.850 126.642 139.780  0.00  0.00    +0.000 A 
ATOM     12  C   UNL     1     112.182 125.767 138.670  0.00  0.00    +0.000 A 
ATOM     13  C   UNL     1     113.429 125.887 137.982  0.00  0.00    +0.000 A 
ATOM     14  C   UNL     1     112.698 125.516 138.077  0.00  0.00    +0.000 A 
ENDROOT
BRANCH  13  16
ATOM     15  O   UNL     1     115.494 124.883 135.612  0.00  0.00    +0.000 OA
ATOM     16  C   UNL     1     113.945 125.636 137.389  0.00  0.00    +0.000 A 
ATOM     17  C   UNL     1     114.444 124.992 137.522  0.00  0.00    +0.000 A 
ATOM     18  C   UNL     1     113.962 126.029 136.664  0.00  0.00    +0.000 A 
ATOM     19  C   UNL     1     114.960 124.741 136.930  0.00  0.00    +0.000 A 
ATOM     20  C   UNL     1     114.479 125.778 136.071  0.00  0.00    +0.000 A 
ATOM     21  C   UNL     1     114.977 125.134 136.204  0.00  0.00    +0.000 A 
ENDBRANCH  13  16
BRANCH   6  22
ATOM     22  O   UNL     1     113.044 128.300 140.697  0.00  0.00    +0.000 OA
BRANCH  22  31
ATOM     23  O   UNL     1     112.921 129.415 139.813  0.00  0.00    +0.000 OA
ATOM     24  O   UNL     1     115.141 130.235 140.539  0.00  0.00    +0.000 OA
ATOM     25  O   UNL     1     114.279 131.076 139.413  0.00  0.00    +0.000 OA
ATOM     26  O   UNL     1     114.524 128.846 141.182  0.00  0.00    +0.000 OA
ATOM     27  C   UNL     1     114.401 129.962 140.297  0.00  0.00    +0.000 C 
ATOM     28  C   UNL     1     113.970 130.382 139.734  0.00  0.00    +0.000 C 
ATOM     29  C   UNL     1     114.092 129.267 140.619  0.00  0.00    +0.000 C 
ATOM     30  C   UNL     1     113.230 130.109 139.492  0.00  0.00    +0.000 C 
ATOM     31  C   UNL     1     113.352 128.994 140.376  0.00  0.00    +0.000 C 
BRANCH  30  33
ATOM     32  O   UNL     1     112.017 130.743 139.081  0.00  0.00    +0.000 OA
ATOM     33  C   UNL     1     112.799 130.530 138.929  0.00  0.00    +0.000 C 
ENDBRANCH  30  33
ENDBRANCH  22  31
ENDBRANCH   6  22
TORSDOF 4
ENDMDL
MODEL 10
REMARK VINA RESULT:      -8.9     10.825     12.194
REMARK  Name = 44259740
REMARK  4 active torsions:
REMARK  status: ('A' for Active; 'I' for Inactive)
REMARK    1  A    between atoms: O_2  and  C_17
REMARK    2  A    between atoms: O_2  and  C_19
REMARK    3  A    between atoms: C_16  and  C_18
REMARK    4  A    between atoms: C_26  and  C_28
REMARK                            x       y       z     vdW  Elec       q    Type
REMARK                         _______ _______ _______ _____ _____    ______ ____
ROOT
ATOM      1  O   UNL     1     112.010 126.721 136.291  0.00  0.00    +0.000 OA
ATOM      2  O   UNL     1     111.177 129.699 134.983  0.00  0.00    +0.000 OA
ATOM      3  O   UNL     1     110.281 128.314 134.612  0.00  0.00    +0.000 OA
ATOM      4  O   UNL     1     110.479 125.436 135.414  0.00  0.00    +0.000 OA
ATOM      5  O   UNL     1     110.066 126.897 134.769  0.00  0.00    +0.000 OA
ATOM      6  C   UNL     1     112.061 128.909 135.835  0.00  0.00    +0.000 A 
ATOM      7  C   UNL     1     112.271 128.144 136.168  0.00  0.00    +0.000 A 
ATOM      8  C   UNL     1     111.386 128.969 135.307  0.00  0.00    +0.000 A 
ATOM      9  C   UNL     1     111.804 127.452 135.968  0.00  0.00    +0.000 A 
ATOM     10  C   UNL     1     111.156 127.511 135.461  0.00  0.00    +0.000 A 
ATOM     11  C   UNL     1     110.931 128.266 135.119  0.00  0.00    +0.000 A 
ATOM     12  C   UNL     1     110.714 126.839 135.276  0.00  0.00    +0.000 A 
ATOM     13  C   UNL     1     111.569 126.049 136.106  0.00  0.00    +0.000 A 
ATOM     14  C   UNL     1     110.921 126.108 135.599  0.00  0.00    +0.000 A 
ENDROOT
BRANCH  13  16
ATOM     15  O   UNL     1     112.395 123.126 137.395  0.00  0.00    +0.000 OA
ATOM     16  C   UNL     1     111.775 125.318 136.429  0.00  0.00    +0.000 A 
ATOM     17  C   UNL     1     111.388 125.040 137.102  0.00  0.00    +0.000 A 
ATOM     18  C   UNL     1     112.369 124.866 136.077  0.00  0.00    +0.000 A 
ATOM     19  C   UNL     1     111.595 124.310 137.424  0.00  0.00    +0.000 A 
ATOM     20  C   UNL     1     112.576 124.135 136.399  0.00  0.00    +0.000 A 
ATOM     21  C   UNL     1     112.189 123.857 137.073  0.00  0.00    +0.000 A 
ENDBRANCH  13  16
BRANCH   6  22
ATOM     22  O   UNL     1     112.504 129.579 136.022  0.00  0.00    +0.000 OA
BRANCH  22  31
ATOM     23  O   UNL     1     111.926 129.849 137.300  0.00  0.00    +0.000 OA
ATOM     24  O   UNL     1     114.159 130.442 138.186  0.00  0.00    +0.000 OA
ATOM     25  O   UNL     1     112.837 130.514 139.168  0.00  0.00    +0.000 OA
ATOM     26  O   UNL     1     113.993 129.974 136.612  0.00  0.00    +0.000 OA
ATOM     27  C   UNL     1     113.415 130.244 137.891  0.00  0.00    +0.000 C 
ATOM     28  C   UNL     1     112.753 130.280 138.382  0.00  0.00    +0.000 C 
ATOM     29  C   UNL     1     113.332 130.010 137.103  0.00  0.00    +0.000 C 
ATOM     30  C   UNL     1     112.008 130.083 138.086  0.00  0.00    +0.000 C 
ATOM     31  C   UNL     1     112.587 129.813 136.808  0.00  0.00    +0.000 C 
BRANCH  30  33
ATOM     32  O   UNL     1     110.661 130.497 138.320  0.00  0.00    +0.000 OA
ATOM     33  C   UNL     1     111.347 130.119 138.578  0.00  0.00    +0.000 C 
ENDBRANCH  30  33
ENDBRANCH  22  31
ENDBRANCH   6  22
TORSDOF 4
ENDMDL
