MODEL 1
REMARK VINA RESULT:      -8.8      0.000      0.000
REMARK  Name = 73196474
REMARK  2 active torsions:
REMARK  status: ('A' for Active; 'I' for Inactive)
REMARK    1  A    between atoms: O_6  and  C_21
REMARK    2  A    between atoms: C_7  and  C_9
REMARK                            x       y       z     vdW  Elec       q    Type
REMARK                         _______ _______ _______ _____ _____    ______ ____
ROOT
ATOM      1  O   UNL     1     105.565 124.463 147.828  0.00  0.00    +0.000 OA
ATOM      2  O   UNL     1     107.019 125.559 146.068  0.00  0.00    +0.000 OA
ATOM      3  O   UNL     1     108.126 125.518 146.991  0.00  0.00    +0.000 OA
ATOM      4  O   UNL     1     106.242 124.090 149.293  0.00  0.00    +0.000 OA
ATOM      5  O   UNL     1     107.827 124.419 149.612  0.00  0.00    +0.000 OA
ATOM      6  C   UNL     1     105.225 124.661 147.065  0.00  0.00    +0.000 C 
ATOM      7  C   UNL     1     105.715 125.033 146.465  0.00  0.00    +0.000 C 
ATOM      8  C   UNL     1     106.863 124.996 147.407  0.00  0.00    +0.000 A 
ATOM      9  C   UNL     1     106.540 125.202 146.637  0.00  0.00    +0.000 C 
ATOM     10  C   UNL     1     106.392 124.639 147.982  0.00  0.00    +0.000 A 
ATOM     11  C   UNL     1     107.655 125.161 147.566  0.00  0.00    +0.000 A 
ATOM     12  C   UNL     1     106.713 124.447 148.717  0.00  0.00    +0.000 A 
ATOM     13  C   UNL     1     107.505 124.612 148.876  0.00  0.00    +0.000 A 
ATOM     14  C   UNL     1     107.976 124.969 148.301  0.00  0.00    +0.000 A 
ENDROOT
BRANCH   6  15
ATOM     15  C   UNL     1     104.432 124.495 146.908  0.00  0.00    +0.000 A 
ATOM     16  C   UNL     1     104.229 123.832 146.461  0.00  0.00    +0.000 A 
ATOM     17  C   UNL     1     103.841 124.993 147.198  0.00  0.00    +0.000 A 
ATOM     18  C   UNL     1     103.436 123.667 146.305  0.00  0.00    +0.000 A 
ATOM     19  C   UNL     1     103.048 124.828 147.041  0.00  0.00    +0.000 A 
ATOM     20  C   UNL     1     102.846 124.165 146.594  0.00  0.00    +0.000 A 
BRANCH  20  21
ATOM     21  O   UNL     1     102.053 123.999 146.438  0.00  0.00    +0.000 OA
ATOM     22  C   UNL     1     101.471 124.213 146.981  0.00  0.00    +0.000 C 
ENDBRANCH  20  21
ENDBRANCH   6  15
TORSDOF 2
ENDMDL
MODEL 2
REMARK VINA RESULT:      -8.3      7.837      8.934
REMARK  Name = 73196474
REMARK  2 active torsions:
REMARK  status: ('A' for Active; 'I' for Inactive)
REMARK    1  A    between atoms: O_6  and  C_21
REMARK    2  A    between atoms: C_7  and  C_9
REMARK                            x       y       z     vdW  Elec       q    Type
REMARK                         _______ _______ _______ _____ _____    ______ ____
ROOT
ATOM      1  O   UNL     1     104.339 124.535 138.890  0.00  0.00    +0.000 OA
ATOM      2  O   UNL     1     105.784 122.792 140.024  0.00  0.00    +0.000 OA
ATOM      3  O   UNL     1     106.206 123.792 140.973  0.00  0.00    +0.000 OA
ATOM      4  O   UNL     1     104.327 126.073 139.504  0.00  0.00    +0.000 OA
ATOM      5  O   UNL     1     105.232 126.475 140.824  0.00  0.00    +0.000 OA
ATOM      6  C   UNL     1     104.353 123.734 138.581  0.00  0.00    +0.000 C 
ATOM      7  C   UNL     1     104.842 123.140 138.963  0.00  0.00    +0.000 C 
ATOM      8  C   UNL     1     105.284 124.162 139.946  0.00  0.00    +0.000 A 
ATOM      9  C   UNL     1     105.311 123.355 139.650  0.00  0.00    +0.000 C 
ATOM     10  C   UNL     1     104.815 124.732 139.579  0.00  0.00    +0.000 A 
ATOM     11  C   UNL     1     105.736 124.363 140.605  0.00  0.00    +0.000 A 
ATOM     12  C   UNL     1     104.797 125.503 139.871  0.00  0.00    +0.000 A 
ATOM     13  C   UNL     1     105.249 125.703 140.531  0.00  0.00    +0.000 A 
ATOM     14  C   UNL     1     105.719 125.133 140.898  0.00  0.00    +0.000 A 
ENDROOT
BRANCH   6  15
ATOM     15  C   UNL     1     103.900 123.535 137.920  0.00  0.00    +0.000 A 
ATOM     16  C   UNL     1     104.269 123.346 137.208  0.00  0.00    +0.000 A 
ATOM     17  C   UNL     1     103.076 123.527 137.973  0.00  0.00    +0.000 A 
ATOM     18  C   UNL     1     103.815 123.148 136.548  0.00  0.00    +0.000 A 
ATOM     19  C   UNL     1     102.622 123.329 137.313  0.00  0.00    +0.000 A 
ATOM     20  C   UNL     1     102.992 123.139 136.600  0.00  0.00    +0.000 A 
BRANCH  20  21
ATOM     21  O   UNL     1     102.539 122.941 135.940  0.00  0.00    +0.000 OA
ATOM     22  C   UNL     1     102.782 123.174 135.187  0.00  0.00    +0.000 C 
ENDBRANCH  20  21
ENDBRANCH   6  15
TORSDOF 2
ENDMDL
MODEL 3
REMARK VINA RESULT:      -8.2      7.980      8.926
REMARK  Name = 73196474
REMARK  2 active torsions:
REMARK  status: ('A' for Active; 'I' for Inactive)
REMARK    1  A    between atoms: O_6  and  C_21
REMARK    2  A    between atoms: C_7  and  C_9
REMARK                            x       y       z     vdW  Elec       q    Type
REMARK                         _______ _______ _______ _____ _____    ______ ____
ROOT
ATOM      1  O   UNL     1     102.994 130.462 142.205  0.00  0.00    +0.000 OA
ATOM      2  O   UNL     1     102.897 129.226 139.997  0.00  0.00    +0.000 OA
ATOM      3  O   UNL     1     103.833 128.262 140.522  0.00  0.00    +0.000 OA
ATOM      4  O   UNL     1     103.968 129.865 143.404  0.00  0.00    +0.000 OA
ATOM      5  O   UNL     1     104.861 128.495 143.179  0.00  0.00    +0.000 OA
ATOM      6  C   UNL     1     102.492 130.762 141.576  0.00  0.00    +0.000 C 
ATOM      7  C   UNL     1     102.457 130.345 140.825  0.00  0.00    +0.000 C 
ATOM      8  C   UNL     1     103.421 129.347 141.355  0.00  0.00    +0.000 A 
ATOM      9  C   UNL     1     102.924 129.633 140.714  0.00  0.00    +0.000 C 
ATOM     10  C   UNL     1     103.454 129.748 142.076  0.00  0.00    +0.000 A 
ATOM     11  C   UNL     1     103.867 128.663 141.243  0.00  0.00    +0.000 A 
ATOM     12  C   UNL     1     103.934 129.464 142.684  0.00  0.00    +0.000 A 
ATOM     13  C   UNL     1     104.380 128.779 142.571  0.00  0.00    +0.000 A 
ATOM     14  C   UNL     1     104.347 128.379 141.850  0.00  0.00    +0.000 A 
ENDROOT
BRANCH   6  15
ATOM     15  C   UNL     1     102.047 131.447 141.691  0.00  0.00    +0.000 A 
ATOM     16  C   UNL     1     102.375 132.186 141.526  0.00  0.00    +0.000 A 
ATOM     17  C   UNL     1     101.273 131.394 141.971  0.00  0.00    +0.000 A 
ATOM     18  C   UNL     1     101.930 132.871 141.641  0.00  0.00    +0.000 A 
ATOM     19  C   UNL     1     100.827 132.078 142.087  0.00  0.00    +0.000 A 
ATOM     20  C   UNL     1     101.156 132.817 141.922  0.00  0.00    +0.000 A 
BRANCH  20  21
ATOM     21  O   UNL     1     100.710 133.502 142.037  0.00  0.00    +0.000 OA
ATOM     22  C   UNL     1     100.911 134.196 141.640  0.00  0.00    +0.000 C 
ENDBRANCH  20  21
ENDBRANCH   6  15
TORSDOF 2
ENDMDL
MODEL 4
REMARK VINA RESULT:      -8.1      1.361      2.640
REMARK  Name = 73196474
REMARK  2 active torsions:
REMARK  status: ('A' for Active; 'I' for Inactive)
REMARK    1  A    between atoms: O_6  and  C_21
REMARK    2  A    between atoms: C_7  and  C_9
REMARK                            x       y       z     vdW  Elec       q    Type
REMARK                         _______ _______ _______ _____ _____    ______ ____
ROOT
ATOM      1  O   UNL     1     104.407 124.558 145.761  0.00  0.00    +0.000 OA
ATOM      2  O   UNL     1     105.431 124.472 148.075  0.00  0.00    +0.000 OA
ATOM      3  O   UNL     1     106.571 125.199 147.572  0.00  0.00    +0.000 OA
ATOM      4  O   UNL     1     105.246 125.317 144.552  0.00  0.00    +0.000 OA
ATOM      5  O   UNL     1     106.718 126.007 144.834  0.00  0.00    +0.000 OA
ATOM      6  C   UNL     1     103.981 124.167 146.396  0.00  0.00    +0.000 C 
ATOM      7  C   UNL     1     104.326 124.136 147.182  0.00  0.00    +0.000 C 
ATOM      8  C   UNL     1     105.504 124.884 146.676  0.00  0.00    +0.000 A 
ATOM      9  C   UNL     1     105.092 124.497 147.323  0.00  0.00    +0.000 C 
ATOM     10  C   UNL     1     105.173 124.914 145.921  0.00  0.00    +0.000 A 
ATOM     11  C   UNL     1     106.240 125.229 146.817  0.00  0.00    +0.000 A 
ATOM     12  C   UNL     1     105.577 125.288 145.307  0.00  0.00    +0.000 A 
ATOM     13  C   UNL     1     106.313 125.632 145.449  0.00  0.00    +0.000 A 
ATOM     14  C   UNL     1     106.644 125.603 146.204  0.00  0.00    +0.000 A 
ENDROOT
BRANCH   6  15
ATOM     15  C   UNL     1     103.245 123.823 146.252  0.00  0.00    +0.000 A 
ATOM     16  C   UNL     1     102.555 124.211 146.482  0.00  0.00    +0.000 A 
ATOM     17  C   UNL     1     103.199 123.089 145.877  0.00  0.00    +0.000 A 
ATOM     18  C   UNL     1     101.819 123.867 146.338  0.00  0.00    +0.000 A 
ATOM     19  C   UNL     1     102.463 122.744 145.732  0.00  0.00    +0.000 A 
ATOM     20  C   UNL     1     101.773 123.134 145.963  0.00  0.00    +0.000 A 
BRANCH  20  21
ATOM     21  O   UNL     1     101.037 122.790 145.819  0.00  0.00    +0.000 OA
ATOM     22  C   UNL     1     100.729 122.779 145.054  0.00  0.00    +0.000 C 
ENDBRANCH  20  21
ENDBRANCH   6  15
TORSDOF 2
ENDMDL
MODEL 5
REMARK VINA RESULT:      -8.1     11.987     12.822
REMARK  Name = 73196474
REMARK  2 active torsions:
REMARK  status: ('A' for Active; 'I' for Inactive)
REMARK    1  A    between atoms: O_6  and  C_21
REMARK    2  A    between atoms: C_7  and  C_9
REMARK                            x       y       z     vdW  Elec       q    Type
REMARK                         _______ _______ _______ _____ _____    ______ ____
ROOT
ATOM      1  O   UNL     1     112.050 125.874 136.359  0.00  0.00    +0.000 OA
ATOM      2  O   UNL     1     111.892 123.411 136.925  0.00  0.00    +0.000 OA
ATOM      3  O   UNL     1     113.326 123.378 137.076  0.00  0.00    +0.000 OA
ATOM      4  O   UNL     1     113.544 126.587 136.340  0.00  0.00    +0.000 OA
ATOM      5  O   UNL     1     114.909 125.724 136.680  0.00  0.00    +0.000 OA
ATOM      6  C   UNL     1     111.280 125.494 136.373  0.00  0.00    +0.000 C 
ATOM      7  C   UNL     1     111.223 124.658 136.564  0.00  0.00    +0.000 C 
ATOM      8  C   UNL     1     112.699 124.611 136.722  0.00  0.00    +0.000 A 
ATOM      9  C   UNL     1     111.937 124.214 136.740  0.00  0.00    +0.000 C 
ATOM     10  C   UNL     1     112.753 125.414 136.538  0.00  0.00    +0.000 A 
ATOM     11  C   UNL     1     113.380 124.180 136.892  0.00  0.00    +0.000 A 
ATOM     12  C   UNL     1     113.490 125.785 136.524  0.00  0.00    +0.000 A 
ATOM     13  C   UNL     1     114.171 125.353 136.694  0.00  0.00    +0.000 A 
ATOM     14  C   UNL     1     114.117 124.551 136.878  0.00  0.00    +0.000 A 
ENDROOT
BRANCH   6  15
ATOM     15  C   UNL     1     110.599 125.928 136.202  0.00  0.00    +0.000 A 
ATOM     16  C   UNL     1     110.192 126.313 136.808  0.00  0.00    +0.000 A 
ATOM     17  C   UNL     1     110.325 125.977 135.426  0.00  0.00    +0.000 A 
ATOM     18  C   UNL     1     109.512 126.747 136.637  0.00  0.00    +0.000 A 
ATOM     19  C   UNL     1     109.644 126.411 135.255  0.00  0.00    +0.000 A 
ATOM     20  C   UNL     1     109.237 126.796 135.861  0.00  0.00    +0.000 A 
BRANCH  20  21
ATOM     21  O   UNL     1     108.557 127.230 135.691  0.00  0.00    +0.000 OA
ATOM     22  C   UNL     1     108.568 128.053 135.740  0.00  0.00    +0.000 C 
ENDBRANCH  20  21
ENDBRANCH   6  15
TORSDOF 2
ENDMDL
MODEL 6
REMARK VINA RESULT:      -7.9     12.009     13.171
REMARK  Name = 73196474
REMARK  2 active torsions:
REMARK  status: ('A' for Active; 'I' for Inactive)
REMARK    1  A    between atoms: O_6  and  C_21
REMARK    2  A    between atoms: C_7  and  C_9
REMARK                            x       y       z     vdW  Elec       q    Type
REMARK                         _______ _______ _______ _____ _____    ______ ____
ROOT
ATOM      1  O   UNL     1     110.599 127.310 135.811  0.00  0.00    +0.000 OA
ATOM      2  O   UNL     1     108.095 127.342 136.181  0.00  0.00    +0.000 OA
ATOM      3  O   UNL     1     108.073 128.721 135.758  0.00  0.00    +0.000 OA
ATOM      4  O   UNL     1     111.337 128.692 135.271  0.00  0.00    +0.000 OA
ATOM      5  O   UNL     1     110.471 130.065 134.977  0.00  0.00    +0.000 OA
ATOM      6  C   UNL     1     110.206 126.600 136.091  0.00  0.00    +0.000 C 
ATOM      7  C   UNL     1     109.356 126.607 136.218  0.00  0.00    +0.000 C 
ATOM      8  C   UNL     1     109.321 128.027 135.783  0.00  0.00    +0.000 A 
ATOM      9  C   UNL     1     108.911 127.325 136.063  0.00  0.00    +0.000 C 
ATOM     10  C   UNL     1     110.137 128.020 135.661  0.00  0.00    +0.000 A 
ATOM     11  C   UNL     1     108.889 128.713 135.636  0.00  0.00    +0.000 A 
ATOM     12  C   UNL     1     110.521 128.699 135.393  0.00  0.00    +0.000 A 
ATOM     13  C   UNL     1     110.087 129.385 135.246  0.00  0.00    +0.000 A 
ATOM     14  C   UNL     1     109.271 129.392 135.367  0.00  0.00    +0.000 A 
ENDROOT
BRANCH   6  15
ATOM     15  C   UNL     1     110.641 125.915 136.237  0.00  0.00    +0.000 A 
ATOM     16  C   UNL     1     110.807 125.391 135.622  0.00  0.00    +0.000 A 
ATOM     17  C   UNL     1     110.912 125.753 137.000  0.00  0.00    +0.000 A 
ATOM     18  C   UNL     1     111.242 124.706 135.768  0.00  0.00    +0.000 A 
ATOM     19  C   UNL     1     111.347 125.067 137.147  0.00  0.00    +0.000 A 
ATOM     20  C   UNL     1     111.512 124.544 136.531  0.00  0.00    +0.000 A 
BRANCH  20  21
ATOM     21  O   UNL     1     111.948 123.859 136.677  0.00  0.00    +0.000 OA
ATOM     22  C   UNL     1     112.764 123.903 136.784  0.00  0.00    +0.000 C 
ENDBRANCH  20  21
ENDBRANCH   6  15
TORSDOF 2
ENDMDL
MODEL 7
REMARK VINA RESULT:      -7.9     13.006     13.979
REMARK  Name = 73196474
REMARK  2 active torsions:
REMARK  status: ('A' for Active; 'I' for Inactive)
REMARK    1  A    between atoms: O_6  and  C_21
REMARK    2  A    between atoms: C_7  and  C_9
REMARK                            x       y       z     vdW  Elec       q    Type
REMARK                         _______ _______ _______ _____ _____    ______ ____
ROOT
ATOM      1  O   UNL     1     112.809 126.431 136.358  0.00  0.00    +0.000 OA
ATOM      2  O   UNL     1     114.724 125.182 137.446  0.00  0.00    +0.000 OA
ATOM      3  O   UNL     1     113.975 123.958 137.306  0.00  0.00    +0.000 OA
ATOM      4  O   UNL     1     111.472 125.574 135.886  0.00  0.00    +0.000 OA
ATOM      5  O   UNL     1     111.377 123.943 136.115  0.00  0.00    +0.000 OA
ATOM      6  C   UNL     1     113.507 126.865 136.607  0.00  0.00    +0.000 C 
ATOM      7  C   UNL     1     114.159 126.444 136.976  0.00  0.00    +0.000 C 
ATOM      8  C   UNL     1     113.397 125.177 136.837  0.00  0.00    +0.000 A 
ATOM      9  C   UNL     1     114.104 125.595 137.092  0.00  0.00    +0.000 C 
ATOM     10  C   UNL     1     112.771 125.581 136.482  0.00  0.00    +0.000 A 
ATOM     11  C   UNL     1     113.349 124.362 136.951  0.00  0.00    +0.000 A 
ATOM     12  C   UNL     1     112.098 125.170 136.241  0.00  0.00    +0.000 A 
ATOM     13  C   UNL     1     112.051 124.355 136.356  0.00  0.00    +0.000 A 
ATOM     14  C   UNL     1     112.676 123.951 136.711  0.00  0.00    +0.000 A 
ENDROOT
BRANCH   6  15
ATOM     15  C   UNL     1     113.552 127.681 136.491  0.00  0.00    +0.000 A 
ATOM     16  C   UNL     1     113.232 128.195 137.050  0.00  0.00    +0.000 A 
ATOM     17  C   UNL     1     113.918 127.982 135.816  0.00  0.00    +0.000 A 
ATOM     18  C   UNL     1     113.277 129.011 136.935  0.00  0.00    +0.000 A 
ATOM     19  C   UNL     1     113.964 128.798 135.700  0.00  0.00    +0.000 A 
ATOM     20  C   UNL     1     113.643 129.312 136.260  0.00  0.00    +0.000 A 
BRANCH  20  21
ATOM     21  O   UNL     1     113.688 130.128 136.144  0.00  0.00    +0.000 OA
ATOM     22  C   UNL     1     114.345 130.547 136.413  0.00  0.00    +0.000 C 
ENDBRANCH  20  21
ENDBRANCH   6  15
TORSDOF 2
ENDMDL
MODEL 8
REMARK VINA RESULT:      -7.9      1.089      4.530
REMARK  Name = 73196474
REMARK  2 active torsions:
REMARK  status: ('A' for Active; 'I' for Inactive)
REMARK    1  A    between atoms: O_6  and  C_21
REMARK    2  A    between atoms: C_7  and  C_9
REMARK                            x       y       z     vdW  Elec       q    Type
REMARK                         _______ _______ _______ _____ _____    ______ ____
ROOT
ATOM      1  O   UNL     1     104.525 124.011 146.874  0.00  0.00    +0.000 OA
ATOM      2  O   UNL     1     102.719 125.356 148.031  0.00  0.00    +0.000 OA
ATOM      3  O   UNL     1     101.734 124.697 147.209  0.00  0.00    +0.000 OA
ATOM      4  O   UNL     1     104.080 122.939 145.694  0.00  0.00    +0.000 OA
ATOM      5  O   UNL     1     102.497 122.741 145.271  0.00  0.00    +0.000 OA
ATOM      6  C   UNL     1     104.745 124.571 147.488  0.00  0.00    +0.000 C 
ATOM      7  C   UNL     1     104.134 125.029 147.883  0.00  0.00    +0.000 C 
ATOM      8  C   UNL     1     103.111 124.357 147.041  0.00  0.00    +0.000 A 
ATOM      9  C   UNL     1     103.312 124.921 147.658  0.00  0.00    +0.000 C 
ATOM     10  C   UNL     1     103.697 123.917 146.663  0.00  0.00    +0.000 A 
ATOM     11  C   UNL     1     102.320 124.258 146.830  0.00  0.00    +0.000 A 
ATOM     12  C   UNL     1     103.493 123.378 146.072  0.00  0.00    +0.000 A 
ATOM     13  C   UNL     1     102.702 123.280 145.861  0.00  0.00    +0.000 A 
ATOM     14  C   UNL     1     102.115 123.720 146.240  0.00  0.00    +0.000 A 
ENDROOT
BRANCH   6  15
ATOM     15  C   UNL     1     105.537 124.668 147.698  0.00  0.00    +0.000 A 
ATOM     16  C   UNL     1     106.040 125.111 147.217  0.00  0.00    +0.000 A 
ATOM     17  C   UNL     1     105.826 124.322 148.389  0.00  0.00    +0.000 A 
ATOM     18  C   UNL     1     106.832 125.208 147.427  0.00  0.00    +0.000 A 
ATOM     19  C   UNL     1     106.618 124.418 148.599  0.00  0.00    +0.000 A 
ATOM     20  C   UNL     1     107.121 124.861 148.118  0.00  0.00    +0.000 A 
BRANCH  20  21
ATOM     21  O   UNL     1     107.913 124.958 148.327  0.00  0.00    +0.000 OA
ATOM     22  C   UNL     1     108.205 124.604 149.012  0.00  0.00    +0.000 C 
ENDBRANCH  20  21
ENDBRANCH   6  15
TORSDOF 2
ENDMDL
MODEL 9
REMARK VINA RESULT:      -7.7     10.624     12.356
REMARK  Name = 73196474
REMARK  2 active torsions:
REMARK  status: ('A' for Active; 'I' for Inactive)
REMARK    1  A    between atoms: O_6  and  C_21
REMARK    2  A    between atoms: C_7  and  C_9
REMARK                            x       y       z     vdW  Elec       q    Type
REMARK                         _______ _______ _______ _____ _____    ______ ____
ROOT
ATOM      1  O   UNL     1     112.678 125.986 138.433  0.00  0.00    +0.000 OA
ATOM      2  O   UNL     1     114.851 125.106 137.476  0.00  0.00    +0.000 OA
ATOM      3  O   UNL     1     114.091 124.272 136.578  0.00  0.00    +0.000 OA
ATOM      4  O   UNL     1     111.252 125.411 137.817  0.00  0.00    +0.000 OA
ATOM      5  O   UNL     1     111.233 124.290 136.606  0.00  0.00    +0.000 OA
ATOM      6  C   UNL     1     113.424 126.276 138.745  0.00  0.00    +0.000 C 
ATOM      7  C   UNL     1     114.163 125.980 138.422  0.00  0.00    +0.000 C 
ATOM      8  C   UNL     1     113.391 125.117 137.493  0.00  0.00    +0.000 A 
ATOM      9  C   UNL     1     114.147 125.396 137.792  0.00  0.00    +0.000 C 
ATOM     10  C   UNL     1     112.681 125.402 137.802  0.00  0.00    +0.000 A 
ATOM     11  C   UNL     1     113.381 124.557 136.888  0.00  0.00    +0.000 A 
ATOM     12  C   UNL     1     111.962 125.126 137.507  0.00  0.00    +0.000 A 
ATOM     13  C   UNL     1     111.953 124.566 136.902  0.00  0.00    +0.000 A 
ATOM     14  C   UNL     1     112.663 124.281 136.592  0.00  0.00    +0.000 A 
ENDROOT
BRANCH   6  15
ATOM     15  C   UNL     1     113.431 126.837 139.350  0.00  0.00    +0.000 A 
ATOM     16  C   UNL     1     113.347 127.638 139.173  0.00  0.00    +0.000 A 
ATOM     17  C   UNL     1     113.522 126.596 140.134  0.00  0.00    +0.000 A 
ATOM     18  C   UNL     1     113.354 128.198 139.778  0.00  0.00    +0.000 A 
ATOM     19  C   UNL     1     113.528 127.156 140.740  0.00  0.00    +0.000 A 
ATOM     20  C   UNL     1     113.444 127.958 140.562  0.00  0.00    +0.000 A 
BRANCH  20  21
ATOM     21  O   UNL     1     113.451 128.518 141.167  0.00  0.00    +0.000 OA
ATOM     22  C   UNL     1     112.741 128.823 141.456  0.00  0.00    +0.000 C 
ENDBRANCH  20  21
ENDBRANCH   6  15
TORSDOF 2
ENDMDL
MODEL 10
REMARK VINA RESULT:      -7.7      1.600      2.976
REMARK  Name = 73196474
REMARK  2 active torsions:
REMARK  status: ('A' for Active; 'I' for Inactive)
REMARK    1  A    between atoms: O_6  and  C_21
REMARK    2  A    between atoms: C_7  and  C_9
REMARK                            x       y       z     vdW  Elec       q    Type
REMARK                         _______ _______ _______ _____ _____    ______ ____
ROOT
ATOM      1  O   UNL     1     106.820 125.215 146.804  0.00  0.00    +0.000 OA
ATOM      2  O   UNL     1     104.801 124.615 148.210  0.00  0.00    +0.000 OA
ATOM      3  O   UNL     1     105.684 124.344 149.318  0.00  0.00    +0.000 OA
ATOM      4  O   UNL     1     108.322 125.123 147.495  0.00  0.00    +0.000 OA
ATOM      5  O   UNL     1     108.513 124.653 149.065  0.00  0.00    +0.000 OA
ATOM      6  C   UNL     1     106.036 125.259 146.455  0.00  0.00    +0.000 C 
ATOM      7  C   UNL     1     105.349 125.056 146.930  0.00  0.00    +0.000 C 
ATOM      8  C   UNL     1     106.247 124.774 148.078  0.00  0.00    +0.000 A 
ATOM      9  C   UNL     1     105.455 124.812 147.746  0.00  0.00    +0.000 C 
ATOM     10  C   UNL     1     106.907 124.968 147.623  0.00  0.00    +0.000 A 
ATOM     11  C   UNL     1     106.343 124.539 148.863  0.00  0.00    +0.000 A 
ATOM     12  C   UNL     1     107.662 124.928 147.951  0.00  0.00    +0.000 A 
ATOM     13  C   UNL     1     107.757 124.693 148.736  0.00  0.00    +0.000 A 
ATOM     14  C   UNL     1     107.098 124.498 149.192  0.00  0.00    +0.000 A 
ENDROOT
BRANCH   6  15
ATOM     15  C   UNL     1     105.943 125.494 145.670  0.00  0.00    +0.000 A 
ATOM     16  C   UNL     1     105.881 126.295 145.484  0.00  0.00    +0.000 A 
ATOM     17  C   UNL     1     105.912 124.928 145.071  0.00  0.00    +0.000 A 
ATOM     18  C   UNL     1     105.788 126.531 144.698  0.00  0.00    +0.000 A 
ATOM     19  C   UNL     1     105.819 125.163 144.285  0.00  0.00    +0.000 A 
ATOM     20  C   UNL     1     105.757 125.965 144.099  0.00  0.00    +0.000 A 
BRANCH  20  21
ATOM     21  O   UNL     1     105.664 126.200 143.314  0.00  0.00    +0.000 OA
ATOM     22  C   UNL     1     106.323 126.407 142.864  0.00  0.00    +0.000 C 
ENDBRANCH  20  21
ENDBRANCH   6  15
TORSDOF 2
ENDMDL
