MODEL 1
REMARK VINA RESULT:      -8.9      0.000      0.000
REMARK  Name = 44258511
REMARK  6 active torsions:
REMARK  status: ('A' for Active; 'I' for Inactive)
REMARK    1  A    between atoms: O_2  and  C_18
REMARK    2  A    between atoms: O_2  and  C_20
REMARK    3  A    between atoms: O_6  and  C_19
REMARK    4  A    between atoms: O_9  and  C_21
REMARK    5  A    between atoms: C_17  and  C_19
REMARK    6  A    between atoms: C_28  and  C_30
REMARK                            x       y       z     vdW  Elec       q    Type
REMARK                         _______ _______ _______ _____ _____    ______ ____
ROOT
ATOM      1  O   UNL     1     110.789 127.293 136.351  0.00  0.00    +0.000 OA
ATOM      2  O   UNL     1     110.977 124.445 135.871  0.00  0.00    +0.000 OA
ATOM      3  O   UNL     1     110.273 125.269 134.919  0.00  0.00    +0.000 OA
ATOM      4  C   UNL     1     111.748 125.669 137.506  0.00  0.00    +0.000 A 
ATOM      5  C   UNL     1     111.578 125.011 137.037  0.00  0.00    +0.000 A 
ATOM      6  C   UNL     1     111.486 126.417 137.276  0.00  0.00    +0.000 A 
ATOM      7  C   UNL     1     111.055 126.508 136.579  0.00  0.00    +0.000 A 
ATOM      8  C   UNL     1     110.886 125.851 136.111  0.00  0.00    +0.000 A 
ATOM      9  C   UNL     1     111.147 125.102 136.339  0.00  0.00    +0.000 A 
ATOM     10  C   UNL     1     110.438 125.933 135.382  0.00  0.00    +0.000 A 
ATOM     11  C   UNL     1     110.340 127.394 135.626  0.00  0.00    +0.000 A 
ATOM     12  C   UNL     1     110.163 126.709 135.137  0.00  0.00    +0.000 A 
ENDROOT
BRANCH  11  15
ATOM     13  O   UNL     1     108.355 129.450 135.691  0.00  0.00    +0.000 OA
ATOM     14  O   UNL     1     109.299 130.392 134.720  0.00  0.00    +0.000 OA
ATOM     15  C   UNL     1     110.080 128.144 135.399  0.00  0.00    +0.000 A 
ATOM     16  C   UNL     1     109.347 128.422 135.658  0.00  0.00    +0.000 A 
ATOM     17  C   UNL     1     110.552 128.615 134.914  0.00  0.00    +0.000 A 
ATOM     18  C   UNL     1     109.087 129.171 135.432  0.00  0.00    +0.000 A 
ATOM     19  C   UNL     1     110.292 129.365 134.687  0.00  0.00    +0.000 A 
ATOM     20  C   UNL     1     109.559 129.642 134.947  0.00  0.00    +0.000 A 
ENDBRANCH  11  15
BRANCH   5  21
ATOM     21  O   UNL     1     111.839 124.264 137.266  0.00  0.00    +0.000 OA
ATOM     22  C   UNL     1     112.447 123.893 136.848  0.00  0.00    +0.000 C 
ENDBRANCH   5  21
BRANCH   4  23
ATOM     23  O   UNL     1     112.179 125.579 138.203  0.00  0.00    +0.000 OA
BRANCH  23  32
ATOM     24  O   UNL     1     111.151 125.878 139.150  0.00  0.00    +0.000 OA
ATOM     25  O   UNL     1     112.748 127.251 140.450  0.00  0.00    +0.000 OA
ATOM     26  O   UNL     1     111.187 127.093 140.963  0.00  0.00    +0.000 OA
ATOM     27  O   UNL     1     113.243 126.493 139.070  0.00  0.00    +0.000 OA
ATOM     28  C   UNL     1     112.215 126.793 140.017  0.00  0.00    +0.000 C 
ATOM     29  C   UNL     1     111.435 126.714 140.273  0.00  0.00    +0.000 C 
ATOM     30  C   UNL     1     112.463 126.414 139.327  0.00  0.00    +0.000 C 
ATOM     31  C   UNL     1     110.902 126.256 139.840  0.00  0.00    +0.000 C 
ATOM     32  C   UNL     1     111.930 125.957 138.893  0.00  0.00    +0.000 C 
BRANCH  31  34
ATOM     33  O   UNL     1     109.584 126.790 139.973  0.00  0.00    +0.000 OA
ATOM     34  C   UNL     1     110.123 126.178 140.096  0.00  0.00    +0.000 C 
BRANCH  34  35
ATOM     35  O   UNL     1     109.880 125.486 140.476  0.00  0.00    +0.000 OA
ATOM     36  C   UNL     1     109.080 125.355 140.623  0.00  0.00    +0.000 C 
ENDBRANCH  34  35
ENDBRANCH  31  34
ENDBRANCH  23  32
ENDBRANCH   4  23
TORSDOF 6
ENDMDL
MODEL 2
REMARK VINA RESULT:      -8.8      3.099      5.154
REMARK  Name = 44258511
REMARK  6 active torsions:
REMARK  status: ('A' for Active; 'I' for Inactive)
REMARK    1  A    between atoms: O_2  and  C_18
REMARK    2  A    between atoms: O_2  and  C_20
REMARK    3  A    between atoms: O_6  and  C_19
REMARK    4  A    between atoms: O_9  and  C_21
REMARK    5  A    between atoms: C_17  and  C_19
REMARK    6  A    between atoms: C_28  and  C_30
REMARK                            x       y       z     vdW  Elec       q    Type
REMARK                         _______ _______ _______ _____ _____    ______ ____
ROOT
ATOM      1  O   UNL     1     112.939 127.628 137.530  0.00  0.00    +0.000 OA
ATOM      2  O   UNL     1     113.406 130.158 136.205  0.00  0.00    +0.000 OA
ATOM      3  O   UNL     1     113.886 128.946 135.586  0.00  0.00    +0.000 OA
ATOM      4  C   UNL     1     112.400 129.699 138.087  0.00  0.00    +0.000 A 
ATOM      5  C   UNL     1     112.710 130.126 137.452  0.00  0.00    +0.000 A 
ATOM      6  C   UNL     1     112.478 128.878 138.108  0.00  0.00    +0.000 A 
ATOM      7  C   UNL     1     112.865 128.484 137.496  0.00  0.00    +0.000 A 
ATOM      8  C   UNL     1     113.174 128.911 136.862  0.00  0.00    +0.000 A 
ATOM      9  C   UNL     1     113.097 129.732 136.839  0.00  0.00    +0.000 A 
ATOM     10  C   UNL     1     113.579 128.511 136.218  0.00  0.00    +0.000 A 
ATOM     11  C   UNL     1     113.341 127.212 136.896  0.00  0.00    +0.000 A 
ATOM     12  C   UNL     1     113.664 127.657 136.234  0.00  0.00    +0.000 A 
ENDROOT
BRANCH  11  15
ATOM     13  O   UNL     1     114.815 124.885 137.658  0.00  0.00    +0.000 OA
ATOM     14  O   UNL     1     113.646 123.927 136.994  0.00  0.00    +0.000 OA
ATOM     15  C   UNL     1     113.417 126.391 136.920  0.00  0.00    +0.000 A 
ATOM     16  C   UNL     1     114.077 126.048 137.277  0.00  0.00    +0.000 A 
ATOM     17  C   UNL     1     112.833 125.912 136.588  0.00  0.00    +0.000 A 
ATOM     18  C   UNL     1     114.154 125.227 137.302  0.00  0.00    +0.000 A 
ATOM     19  C   UNL     1     112.909 125.091 136.613  0.00  0.00    +0.000 A 
ATOM     20  C   UNL     1     113.570 124.749 136.970  0.00  0.00    +0.000 A 
ENDBRANCH  11  15
BRANCH   5  21
ATOM     21  O   UNL     1     112.632 130.947 137.430  0.00  0.00    +0.000 OA
ATOM     22  C   UNL     1     112.086 131.296 136.919  0.00  0.00    +0.000 C 
ENDBRANCH   5  21
BRANCH   4  23
ATOM     23  O   UNL     1     112.013 130.094 138.700  0.00  0.00    +0.000 OA
BRANCH  23  32
ATOM     24  O   UNL     1     113.047 130.105 139.687  0.00  0.00    +0.000 OA
ATOM     25  O   UNL     1     111.411 129.407 141.408  0.00  0.00    +0.000 OA
ATOM     26  O   UNL     1     112.989 129.652 141.821  0.00  0.00    +0.000 OA
ATOM     27  O   UNL     1     110.923 129.628 139.847  0.00  0.00    +0.000 OA
ATOM     28  C   UNL     1     111.956 129.640 140.834  0.00  0.00    +0.000 C 
ATOM     29  C   UNL     1     112.746 129.762 141.041  0.00  0.00    +0.000 C 
ATOM     30  C   UNL     1     111.713 129.751 140.054  0.00  0.00    +0.000 C 
ATOM     31  C   UNL     1     113.291 129.995 140.467  0.00  0.00    +0.000 C 
ATOM     32  C   UNL     1     112.258 129.983 139.480  0.00  0.00    +0.000 C 
BRANCH  31  34
ATOM     33  O   UNL     1     114.583 129.472 140.780  0.00  0.00    +0.000 OA
ATOM     34  C   UNL     1     114.080 130.117 140.674  0.00  0.00    +0.000 C 
BRANCH  34  35
ATOM     35  O   UNL     1     114.367 130.884 140.774  0.00  0.00    +0.000 OA
ATOM     36  C   UNL     1     115.179 131.025 140.769  0.00  0.00    +0.000 C 
ENDBRANCH  34  35
ENDBRANCH  31  34
ENDBRANCH  23  32
ENDBRANCH   4  23
TORSDOF 6
ENDMDL
MODEL 3
REMARK VINA RESULT:      -8.8      2.458      4.649
REMARK  Name = 44258511
REMARK  6 active torsions:
REMARK  status: ('A' for Active; 'I' for Inactive)
REMARK    1  A    between atoms: O_2  and  C_18
REMARK    2  A    between atoms: O_2  and  C_20
REMARK    3  A    between atoms: O_6  and  C_19
REMARK    4  A    between atoms: O_9  and  C_21
REMARK    5  A    between atoms: C_17  and  C_19
REMARK    6  A    between atoms: C_28  and  C_30
REMARK                            x       y       z     vdW  Elec       q    Type
REMARK                         _______ _______ _______ _____ _____    ______ ____
ROOT
ATOM      1  O   UNL     1     110.632 127.468 136.459  0.00  0.00    +0.000 OA
ATOM      2  O   UNL     1     108.193 128.935 135.937  0.00  0.00    +0.000 OA
ATOM      3  O   UNL     1     108.144 127.494 135.984  0.00  0.00    +0.000 OA
ATOM      4  C   UNL     1     110.228 129.635 136.298  0.00  0.00    +0.000 A 
ATOM      5  C   UNL     1     109.417 129.641 136.143  0.00  0.00    +0.000 A 
ATOM      6  C   UNL     1     110.623 128.919 136.401  0.00  0.00    +0.000 A 
ATOM      7  C   UNL     1     110.208 128.207 136.349  0.00  0.00    +0.000 A 
ATOM      8  C   UNL     1     109.398 128.213 136.195  0.00  0.00    +0.000 A 
ATOM      9  C   UNL     1     109.002 128.930 136.091  0.00  0.00    +0.000 A 
ATOM     10  C   UNL     1     108.955 127.479 136.139  0.00  0.00    +0.000 A 
ATOM     11  C   UNL     1     110.205 126.723 136.406  0.00  0.00    +0.000 A 
ATOM     12  C   UNL     1     109.361 126.729 136.245  0.00  0.00    +0.000 A 
ENDROOT
BRANCH  11  15
ATOM     13  O   UNL     1     111.338 124.750 138.135  0.00  0.00    +0.000 OA
ATOM     14  O   UNL     1     111.797 123.863 136.821  0.00  0.00    +0.000 OA
ATOM     15  C   UNL     1     110.603 126.008 136.510  0.00  0.00    +0.000 A 
ATOM     16  C   UNL     1     110.772 125.736 137.270  0.00  0.00    +0.000 A 
ATOM     17  C   UNL     1     110.833 125.565 135.853  0.00  0.00    +0.000 A 
ATOM     18  C   UNL     1     111.170 125.021 137.374  0.00  0.00    +0.000 A 
ATOM     19  C   UNL     1     111.231 124.850 135.956  0.00  0.00    +0.000 A 
ATOM     20  C   UNL     1     111.399 124.578 136.718  0.00  0.00    +0.000 A 
ENDBRANCH  11  15
BRANCH   5  21
ATOM     21  O   UNL     1     109.023 130.358 136.040  0.00  0.00    +0.000 OA
ATOM     22  C   UNL     1     108.800 130.601 135.283  0.00  0.00    +0.000 C 
ENDBRANCH   5  21
BRANCH   4  23
ATOM     23  O   UNL     1     110.643 130.347 136.349  0.00  0.00    +0.000 OA
BRANCH  23  32
ATOM     24  O   UNL     1     110.838 130.473 137.759  0.00  0.00    +0.000 OA
ATOM     25  O   UNL     1     113.239 130.943 137.386  0.00  0.00    +0.000 OA
ATOM     26  O   UNL     1     112.634 130.912 138.920  0.00  0.00    +0.000 OA
ATOM     27  O   UNL     1     112.244 130.660 136.100  0.00  0.00    +0.000 OA
ATOM     28  C   UNL     1     112.439 130.786 137.510  0.00  0.00    +0.000 C 
ATOM     29  C   UNL     1     112.136 130.771 138.278  0.00  0.00    +0.000 C 
ATOM     30  C   UNL     1     111.941 130.645 136.868  0.00  0.00    +0.000 C 
ATOM     31  C   UNL     1     111.335 130.614 138.403  0.00  0.00    +0.000 C 
ATOM     32  C   UNL     1     111.140 130.488 136.993  0.00  0.00    +0.000 C 
BRANCH  31  34
ATOM     33  O   UNL     1     111.125 129.924 139.635  0.00  0.00    +0.000 OA
ATOM     34  C   UNL     1     111.033 130.598 139.169  0.00  0.00    +0.000 C 
BRANCH  34  35
ATOM     35  O   UNL     1     110.639 131.257 139.472  0.00  0.00    +0.000 OA
ATOM     36  C   UNL     1     110.156 131.181 140.135  0.00  0.00    +0.000 C 
ENDBRANCH  34  35
ENDBRANCH  31  34
ENDBRANCH  23  32
ENDBRANCH   4  23
TORSDOF 6
ENDMDL
MODEL 4
REMARK VINA RESULT:      -8.8      2.511      5.095
REMARK  Name = 44258511
REMARK  6 active torsions:
REMARK  status: ('A' for Active; 'I' for Inactive)
REMARK    1  A    between atoms: O_2  and  C_18
REMARK    2  A    between atoms: O_2  and  C_20
REMARK    3  A    between atoms: O_6  and  C_19
REMARK    4  A    between atoms: O_9  and  C_21
REMARK    5  A    between atoms: C_17  and  C_19
REMARK    6  A    between atoms: C_28  and  C_30
REMARK                            x       y       z     vdW  Elec       q    Type
REMARK                         _______ _______ _______ _____ _____    ______ ____
ROOT
ATOM      1  O   UNL     1     112.602 127.289 137.041  0.00  0.00    +0.000 OA
ATOM      2  O   UNL     1     114.038 129.582 136.014  0.00  0.00    +0.000 OA
ATOM      3  O   UNL     1     114.495 128.258 135.666  0.00  0.00    +0.000 OA
ATOM      4  C   UNL     1     112.279 129.461 137.299  0.00  0.00    +0.000 A 
ATOM      5  C   UNL     1     112.897 129.774 136.850  0.00  0.00    +0.000 A 
ATOM      6  C   UNL     1     112.186 128.644 137.359  0.00  0.00    +0.000 A 
ATOM      7  C   UNL     1     112.710 128.139 136.971  0.00  0.00    +0.000 A 
ATOM      8  C   UNL     1     113.327 128.451 136.523  0.00  0.00    +0.000 A 
ATOM      9  C   UNL     1     113.421 129.269 136.462  0.00  0.00    +0.000 A 
ATOM     10  C   UNL     1     113.880 127.936 136.113  0.00  0.00    +0.000 A 
ATOM     11  C   UNL     1     113.144 126.758 136.639  0.00  0.00    +0.000 A 
ATOM     12  C   UNL     1     113.788 127.084 136.172  0.00  0.00    +0.000 A 
ENDROOT
BRANCH  11  15
ATOM     13  O   UNL     1     111.623 124.397 136.108  0.00  0.00    +0.000 OA
ATOM     14  O   UNL     1     112.760 123.490 136.886  0.00  0.00    +0.000 OA
ATOM     15  C   UNL     1     113.048 125.941 136.701  0.00  0.00    +0.000 A 
ATOM     16  C   UNL     1     112.384 125.577 136.374  0.00  0.00    +0.000 A 
ATOM     17  C   UNL     1     113.617 125.487 137.091  0.00  0.00    +0.000 A 
ATOM     18  C   UNL     1     112.288 124.761 136.435  0.00  0.00    +0.000 A 
ATOM     19  C   UNL     1     113.521 124.670 137.152  0.00  0.00    +0.000 A 
ATOM     20  C   UNL     1     112.856 124.307 136.824  0.00  0.00    +0.000 A 
ENDBRANCH  11  15
BRANCH   5  21
ATOM     21  O   UNL     1     112.990 130.591 136.791  0.00  0.00    +0.000 OA
ATOM     22  C   UNL     1     113.614 130.965 137.182  0.00  0.00    +0.000 C 
ENDBRANCH   5  21
BRANCH   4  23
ATOM     23  O   UNL     1     111.754 129.966 137.688  0.00  0.00    +0.000 OA
BRANCH  23  32
ATOM     24  O   UNL     1     110.647 129.873 136.789  0.00  0.00    +0.000 OA
ATOM     25  O   UNL     1     109.097 129.729 138.713  0.00  0.00    +0.000 OA
ATOM     26  O   UNL     1     108.507 129.684 137.173  0.00  0.00    +0.000 OA
ATOM     27  O   UNL     1     110.721 129.870 138.971  0.00  0.00    +0.000 OA
ATOM     28  C   UNL     1     109.614 129.777 138.072  0.00  0.00    +0.000 C 
ATOM     29  C   UNL     1     109.319 129.754 137.301  0.00  0.00    +0.000 C 
ATOM     30  C   UNL     1     110.426 129.847 138.200  0.00  0.00    +0.000 C 
ATOM     31  C   UNL     1     109.835 129.802 136.660  0.00  0.00    +0.000 C 
ATOM     32  C   UNL     1     110.942 129.895 137.558  0.00  0.00    +0.000 C 
BRANCH  31  34
ATOM     33  O   UNL     1     109.255 129.072 135.578  0.00  0.00    +0.000 OA
ATOM     34  C   UNL     1     109.540 129.780 135.890  0.00  0.00    +0.000 C 
BRANCH  34  35
ATOM     35  O   UNL     1     109.529 130.466 135.432  0.00  0.00    +0.000 OA
ATOM     36  C   UNL     1     109.457 130.414 134.612  0.00  0.00    +0.000 C 
ENDBRANCH  34  35
ENDBRANCH  31  34
ENDBRANCH  23  32
ENDBRANCH   4  23
TORSDOF 6
ENDMDL
MODEL 5
REMARK VINA RESULT:      -8.7      2.811      4.401
REMARK  Name = 44258511
REMARK  6 active torsions:
REMARK  status: ('A' for Active; 'I' for Inactive)
REMARK    1  A    between atoms: O_2  and  C_18
REMARK    2  A    between atoms: O_2  and  C_20
REMARK    3  A    between atoms: O_6  and  C_19
REMARK    4  A    between atoms: O_9  and  C_21
REMARK    5  A    between atoms: C_17  and  C_19
REMARK    6  A    between atoms: C_28  and  C_30
REMARK                            x       y       z     vdW  Elec       q    Type
REMARK                         _______ _______ _______ _____ _____    ______ ____
ROOT
ATOM      1  O   UNL     1     112.677 128.792 135.674  0.00  0.00    +0.000 OA
ATOM      2  O   UNL     1     112.120 126.159 136.738  0.00  0.00    +0.000 OA
ATOM      3  O   UNL     1     113.492 126.595 136.633  0.00  0.00    +0.000 OA
ATOM      4  C   UNL     1     110.775 127.718 136.015  0.00  0.00    +0.000 A 
ATOM      5  C   UNL     1     111.044 127.003 136.327  0.00  0.00    +0.000 A 
ATOM      6  C   UNL     1     111.315 128.303 135.802  0.00  0.00    +0.000 A 
ATOM      7  C   UNL     1     112.124 128.174 135.900  0.00  0.00    +0.000 A 
ATOM      8  C   UNL     1     112.392 127.460 136.212  0.00  0.00    +0.000 A 
ATOM      9  C   UNL     1     111.852 126.874 136.426  0.00  0.00    +0.000 A 
ATOM     10  C   UNL     1     113.232 127.314 136.320  0.00  0.00    +0.000 A 
ATOM     11  C   UNL     1     113.520 128.664 135.774  0.00  0.00    +0.000 A 
ATOM     12  C   UNL     1     113.800 127.919 136.100  0.00  0.00    +0.000 A 
ENDROOT
BRANCH  11  15
ATOM     13  O   UNL     1     114.911 131.086 136.380  0.00  0.00    +0.000 OA
ATOM     14  O   UNL     1     115.673 131.015 134.918  0.00  0.00    +0.000 OA
ATOM     15  C   UNL     1     114.059 129.252 135.560  0.00  0.00    +0.000 A 
ATOM     16  C   UNL     1     114.216 129.875 136.077  0.00  0.00    +0.000 A 
ATOM     17  C   UNL     1     114.439 129.216 134.829  0.00  0.00    +0.000 A 
ATOM     18  C   UNL     1     114.754 130.463 135.864  0.00  0.00    +0.000 A 
ATOM     19  C   UNL     1     114.977 129.804 134.615  0.00  0.00    +0.000 A 
ATOM     20  C   UNL     1     115.134 130.427 135.132  0.00  0.00    +0.000 A 
ENDBRANCH  11  15
BRANCH   5  21
ATOM     21  O   UNL     1     110.503 126.418 136.541  0.00  0.00    +0.000 OA
ATOM     22  C   UNL     1     110.437 125.732 136.085  0.00  0.00    +0.000 C 
ENDBRANCH   5  21
BRANCH   4  23
ATOM     23  O   UNL     1     109.966 127.847 135.916  0.00  0.00    +0.000 OA
BRANCH  23  32
ATOM     24  O   UNL     1     109.764 128.747 137.008  0.00  0.00    +0.000 OA
ATOM     25  O   UNL     1     108.270 130.126 135.596  0.00  0.00    +0.000 OA
ATOM     26  O   UNL     1     108.566 130.566 137.159  0.00  0.00    +0.000 OA
ATOM     27  O   UNL     1     108.970 128.767 134.975  0.00  0.00    +0.000 OA
ATOM     28  C   UNL     1     108.768 129.666 136.067  0.00  0.00    +0.000 C 
ATOM     29  C   UNL     1     108.916 129.886 136.849  0.00  0.00    +0.000 C 
ATOM     30  C   UNL     1     109.118 128.987 135.757  0.00  0.00    +0.000 C 
ATOM     31  C   UNL     1     109.414 129.426 137.319  0.00  0.00    +0.000 C 
ATOM     32  C   UNL     1     109.616 128.527 136.228  0.00  0.00    +0.000 C 
BRANCH  31  34
ATOM     33  O   UNL     1     110.055 130.288 138.261  0.00  0.00    +0.000 OA
ATOM     34  C   UNL     1     109.562 129.646 138.100  0.00  0.00    +0.000 C 
BRANCH  34  35
ATOM     35  O   UNL     1     109.217 129.225 138.720  0.00  0.00    +0.000 OA
ATOM     36  C   UNL     1     109.529 129.283 139.482  0.00  0.00    +0.000 C 
ENDBRANCH  34  35
ENDBRANCH  31  34
ENDBRANCH  23  32
ENDBRANCH   4  23
TORSDOF 6
ENDMDL
MODEL 6
REMARK VINA RESULT:      -8.7      2.619      4.463
REMARK  Name = 44258511
REMARK  6 active torsions:
REMARK  status: ('A' for Active; 'I' for Inactive)
REMARK    1  A    between atoms: O_2  and  C_18
REMARK    2  A    between atoms: O_2  and  C_20
REMARK    3  A    between atoms: O_6  and  C_19
REMARK    4  A    between atoms: O_9  and  C_21
REMARK    5  A    between atoms: C_17  and  C_19
REMARK    6  A    between atoms: C_28  and  C_30
REMARK                            x       y       z     vdW  Elec       q    Type
REMARK                         _______ _______ _______ _____ _____    ______ ____
ROOT
ATOM      1  O   UNL     1     110.007 130.885 136.037  0.00  0.00    +0.000 OA
ATOM      2  O   UNL     1     112.140 131.730 137.799  0.00  0.00    +0.000 OA
ATOM      3  O   UNL     1     111.048 132.637 137.540  0.00  0.00    +0.000 OA
ATOM      4  C   UNL     1     111.845 129.860 136.714  0.00  0.00    +0.000 A 
ATOM      5  C   UNL     1     112.182 130.433 137.203  0.00  0.00    +0.000 A 
ATOM      6  C   UNL     1     111.130 130.013 136.332  0.00  0.00    +0.000 A 
ATOM      7  C   UNL     1     110.751 130.738 136.440  0.00  0.00    +0.000 A 
ATOM      8  C   UNL     1     111.088 131.310 136.929  0.00  0.00    +0.000 A 
ATOM      9  C   UNL     1     111.804 131.158 137.311  0.00  0.00    +0.000 A 
ATOM     10  C   UNL     1     110.704 132.069 137.048  0.00  0.00    +0.000 A 
ATOM     11  C   UNL     1     109.607 131.638 136.144  0.00  0.00    +0.000 A 
ATOM     12  C   UNL     1     109.959 132.235 136.654  0.00  0.00    +0.000 A 
ENDROOT
BRANCH  11  15
ATOM     13  O   UNL     1     106.751 131.540 136.109  0.00  0.00    +0.000 OA
ATOM     14  O   UNL     1     106.746 132.237 134.613  0.00  0.00    +0.000 OA
ATOM     15  C   UNL     1     108.892 131.787 135.761  0.00  0.00    +0.000 A 
ATOM     16  C   UNL     1     108.179 131.589 136.126  0.00  0.00    +0.000 A 
ATOM     17  C   UNL     1     108.890 132.136 135.013  0.00  0.00    +0.000 A 
ATOM     18  C   UNL     1     107.464 131.738 135.744  0.00  0.00    +0.000 A 
ATOM     19  C   UNL     1     108.174 132.286 134.630  0.00  0.00    +0.000 A 
ATOM     20  C   UNL     1     107.462 132.087 134.996  0.00  0.00    +0.000 A 
ENDBRANCH  11  15
BRANCH   5  21
ATOM     21  O   UNL     1     112.897 130.280 137.585  0.00  0.00    +0.000 OA
ATOM     22  C   UNL     1     113.587 130.659 137.335  0.00  0.00    +0.000 C 
ENDBRANCH   5  21
BRANCH   4  23
ATOM     23  O   UNL     1     112.224 129.135 136.606  0.00  0.00    +0.000 OA
BRANCH  23  32
ATOM     24  O   UNL     1     111.327 128.307 137.349  0.00  0.00    +0.000 OA
ATOM     25  O   UNL     1     111.465 126.575 135.585  0.00  0.00    +0.000 OA
ATOM     26  O   UNL     1     110.522 126.324 136.915  0.00  0.00    +0.000 OA
ATOM     27  O   UNL     1     112.316 127.981 135.431  0.00  0.00    +0.000 OA
ATOM     28  C   UNL     1     111.419 127.152 136.173  0.00  0.00    +0.000 C 
ATOM     29  C   UNL     1     110.947 127.027 136.839  0.00  0.00    +0.000 C 
ATOM     30  C   UNL     1     111.844 127.855 136.096  0.00  0.00    +0.000 C 
ATOM     31  C   UNL     1     110.901 127.604 137.427  0.00  0.00    +0.000 C 
ATOM     32  C   UNL     1     111.798 128.432 136.684  0.00  0.00    +0.000 C 
BRANCH  31  34
ATOM     33  O   UNL     1     109.609 127.540 138.032  0.00  0.00    +0.000 OA
ATOM     34  C   UNL     1     110.429 127.478 138.091  0.00  0.00    +0.000 C 
BRANCH  34  35
ATOM     35  O   UNL     1     110.778 127.291 138.815  0.00  0.00    +0.000 OA
ATOM     36  C   UNL     1     110.345 127.364 139.513  0.00  0.00    +0.000 C 
ENDBRANCH  34  35
ENDBRANCH  31  34
ENDBRANCH  23  32
ENDBRANCH   4  23
TORSDOF 6
ENDMDL
MODEL 7
REMARK VINA RESULT:      -8.7      2.263      3.932
REMARK  Name = 44258511
REMARK  6 active torsions:
REMARK  status: ('A' for Active; 'I' for Inactive)
REMARK    1  A    between atoms: O_2  and  C_18
REMARK    2  A    between atoms: O_2  and  C_20
REMARK    3  A    between atoms: O_6  and  C_19
REMARK    4  A    between atoms: O_9  and  C_21
REMARK    5  A    between atoms: C_17  and  C_19
REMARK    6  A    between atoms: C_28  and  C_30
REMARK                            x       y       z     vdW  Elec       q    Type
REMARK                         _______ _______ _______ _____ _____    ______ ____
ROOT
ATOM      1  O   UNL     1     112.305 128.434 135.680  0.00  0.00    +0.000 OA
ATOM      2  O   UNL     1     109.566 129.138 136.296  0.00  0.00    +0.000 OA
ATOM      3  O   UNL     1     110.540 130.191 136.139  0.00  0.00    +0.000 OA
ATOM      4  C   UNL     1     110.507 127.190 136.004  0.00  0.00    +0.000 A 
ATOM      5  C   UNL     1     109.933 127.765 136.153  0.00  0.00    +0.000 A 
ATOM      6  C   UNL     1     111.285 127.415 135.849  0.00  0.00    +0.000 A 
ATOM      7  C   UNL     1     111.491 128.214 135.843  0.00  0.00    +0.000 A 
ATOM      8  C   UNL     1     110.918 128.788 135.992  0.00  0.00    +0.000 A 
ATOM      9  C   UNL     1     110.139 128.564 136.147  0.00  0.00    +0.000 A 
ATOM     10  C   UNL     1     111.120 129.623 135.989  0.00  0.00    +0.000 A 
ATOM     11  C   UNL     1     112.526 129.265 135.673  0.00  0.00    +0.000 A 
ATOM     12  C   UNL     1     111.928 129.864 135.828  0.00  0.00    +0.000 A 
ENDROOT
BRANCH  11  15
ATOM     13  O   UNL     1     115.001 130.391 136.554  0.00  0.00    +0.000 OA
ATOM     14  O   UNL     1     115.643 130.151 135.053  0.00  0.00    +0.000 OA
ATOM     15  C   UNL     1     113.305 129.486 135.518  0.00  0.00    +0.000 A 
ATOM     16  C   UNL     1     113.763 129.828 136.113  0.00  0.00    +0.000 A 
ATOM     17  C   UNL     1     113.627 129.367 134.767  0.00  0.00    +0.000 A 
ATOM     18  C   UNL     1     114.543 130.049 135.959  0.00  0.00    +0.000 A 
ATOM     19  C   UNL     1     114.406 129.588 134.612  0.00  0.00    +0.000 A 
ATOM     20  C   UNL     1     114.864 129.930 135.208  0.00  0.00    +0.000 A 
ENDBRANCH  11  15
BRANCH   5  21
ATOM     21  O   UNL     1     109.155 127.540 136.308  0.00  0.00    +0.000 OA
ATOM     22  C   UNL     1     108.567 127.675 135.744  0.00  0.00    +0.000 C 
ENDBRANCH   5  21
BRANCH   4  23
ATOM     23  O   UNL     1     110.301 126.391 136.010  0.00  0.00    +0.000 OA
BRANCH  23  32
ATOM     24  O   UNL     1     110.857 126.027 137.275  0.00  0.00    +0.000 OA
ATOM     25  O   UNL     1     111.729 123.931 136.289  0.00  0.00    +0.000 OA
ATOM     26  O   UNL     1     111.994 124.266 137.883  0.00  0.00    +0.000 OA
ATOM     27  O   UNL     1     110.882 124.993 135.352  0.00  0.00    +0.000 OA
ATOM     28  C   UNL     1     111.438 124.629 136.618  0.00  0.00    +0.000 C 
ATOM     29  C   UNL     1     111.571 124.797 137.415  0.00  0.00    +0.000 C 
ATOM     30  C   UNL     1     111.015 125.161 136.150  0.00  0.00    +0.000 C 
ATOM     31  C   UNL     1     111.280 125.496 137.744  0.00  0.00    +0.000 C 
ATOM     32  C   UNL     1     110.724 125.860 136.478  0.00  0.00    +0.000 C 
BRANCH  31  34
ATOM     33  O   UNL     1     110.896 125.374 139.114  0.00  0.00    +0.000 OA
ATOM     34  C   UNL     1     111.413 125.663 138.540  0.00  0.00    +0.000 C 
BRANCH  34  35
ATOM     35  O   UNL     1     112.063 126.120 138.764  0.00  0.00    +0.000 OA
ATOM     36  C   UNL     1     112.062 126.512 139.489  0.00  0.00    +0.000 C 
ENDBRANCH  34  35
ENDBRANCH  31  34
ENDBRANCH  23  32
ENDBRANCH   4  23
TORSDOF 6
ENDMDL
MODEL 8
REMARK VINA RESULT:      -8.7      7.326     10.972
REMARK  Name = 44258511
REMARK  6 active torsions:
REMARK  status: ('A' for Active; 'I' for Inactive)
REMARK    1  A    between atoms: O_2  and  C_18
REMARK    2  A    between atoms: O_2  and  C_20
REMARK    3  A    between atoms: O_6  and  C_19
REMARK    4  A    between atoms: O_9  and  C_21
REMARK    5  A    between atoms: C_17  and  C_19
REMARK    6  A    between atoms: C_28  and  C_30
REMARK                            x       y       z     vdW  Elec       q    Type
REMARK                         _______ _______ _______ _____ _____    ______ ____
ROOT
ATOM      1  O   UNL     1     104.165 125.114 146.010  0.00  0.00    +0.000 OA
ATOM      2  O   UNL     1     106.827 125.178 147.142  0.00  0.00    +0.000 OA
ATOM      3  O   UNL     1     105.896 124.175 147.602  0.00  0.00    +0.000 OA
ATOM      4  C   UNL     1     105.893 126.439 145.625  0.00  0.00    +0.000 A 
ATOM      5  C   UNL     1     106.455 126.130 146.145  0.00  0.00    +0.000 A 
ATOM      6  C   UNL     1     105.141 126.101 145.584  0.00  0.00    +0.000 A 
ATOM      7  C   UNL     1     104.951 125.456 146.062  0.00  0.00    +0.000 A 
ATOM      8  C   UNL     1     105.513 125.149 146.581  0.00  0.00    +0.000 A 
ATOM      9  C   UNL     1     106.265 125.485 146.623  0.00  0.00    +0.000 A 
ATOM     10  C   UNL     1     105.327 124.477 147.084  0.00  0.00    +0.000 A 
ATOM     11  C   UNL     1     103.961 124.442 146.505  0.00  0.00    +0.000 A 
ATOM     12  C   UNL     1     104.547 124.121 147.046  0.00  0.00    +0.000 A 
ENDROOT
BRANCH  11  15
ATOM     13  O   UNL     1     101.194 124.471 147.221  0.00  0.00    +0.000 OA
ATOM     14  O   UNL     1     100.950 123.103 146.331  0.00  0.00    +0.000 OA
ATOM     15  C   UNL     1     103.208 124.107 146.461  0.00  0.00    +0.000 A 
ATOM     16  C   UNL     1     102.577 124.456 146.862  0.00  0.00    +0.000 A 
ATOM     17  C   UNL     1     103.086 123.423 146.017  0.00  0.00    +0.000 A 
ATOM     18  C   UNL     1     101.825 124.122 146.820  0.00  0.00    +0.000 A 
ATOM     19  C   UNL     1     102.333 123.088 145.973  0.00  0.00    +0.000 A 
ATOM     20  C   UNL     1     101.703 123.438 146.375  0.00  0.00    +0.000 A 
ENDBRANCH  11  15
BRANCH   5  21
ATOM     21  O   UNL     1     107.207 126.468 146.186  0.00  0.00    +0.000 OA
ATOM     22  C   UNL     1     107.419 126.924 146.841  0.00  0.00    +0.000 C 
ENDBRANCH   5  21
BRANCH   4  23
ATOM     23  O   UNL     1     106.083 127.084 145.147  0.00  0.00    +0.000 OA
BRANCH  23  32
ATOM     24  O   UNL     1     106.120 126.421 143.882  0.00  0.00    +0.000 OA
ATOM     25  O   UNL     1     104.912 128.319 142.852  0.00  0.00    +0.000 OA
ATOM     26  O   UNL     1     105.352 127.023 141.930  0.00  0.00    +0.000 OA
ATOM     27  O   UNL     1     105.278 128.349 144.460  0.00  0.00    +0.000 OA
ATOM     28  C   UNL     1     105.315 127.686 143.195  0.00  0.00    +0.000 C 
ATOM     29  C   UNL     1     105.535 127.038 142.734  0.00  0.00    +0.000 C 
ATOM     30  C   UNL     1     105.498 127.701 143.999  0.00  0.00    +0.000 C 
ATOM     31  C   UNL     1     105.938 126.405 143.077  0.00  0.00    +0.000 C 
ATOM     32  C   UNL     1     105.900 127.068 144.343  0.00  0.00    +0.000 C 
BRANCH  31  34
ATOM     33  O   UNL     1     106.912 125.724 142.286  0.00  0.00    +0.000 OA
ATOM     34  C   UNL     1     106.157 125.758 142.617  0.00  0.00    +0.000 C 
BRANCH  34  35
ATOM     35  O   UNL     1     105.623 125.143 142.486  0.00  0.00    +0.000 OA
ATOM     36  C   UNL     1     105.887 124.423 142.184  0.00  0.00    +0.000 C 
ENDBRANCH  34  35
ENDBRANCH  31  34
ENDBRANCH  23  32
ENDBRANCH   4  23
TORSDOF 6
ENDMDL
MODEL 9
REMARK VINA RESULT:      -8.6      1.487      4.975
REMARK  Name = 44258511
REMARK  6 active torsions:
REMARK  status: ('A' for Active; 'I' for Inactive)
REMARK    1  A    between atoms: O_2  and  C_18
REMARK    2  A    between atoms: O_2  and  C_20
REMARK    3  A    between atoms: O_6  and  C_19
REMARK    4  A    between atoms: O_9  and  C_21
REMARK    5  A    between atoms: C_17  and  C_19
REMARK    6  A    between atoms: C_28  and  C_30
REMARK                            x       y       z     vdW  Elec       q    Type
REMARK                         _______ _______ _______ _____ _____    ______ ____
ROOT
ATOM      1  O   UNL     1     111.758 126.438 139.155  0.00  0.00    +0.000 OA
ATOM      2  O   UNL     1     114.509 125.983 138.381  0.00  0.00    +0.000 OA
ATOM      3  O   UNL     1     114.231 126.510 139.696  0.00  0.00    +0.000 OA
ATOM      4  C   UNL     1     112.649 125.661 137.287  0.00  0.00    +0.000 A 
ATOM      5  C   UNL     1     113.454 125.686 137.466  0.00  0.00    +0.000 A 
ATOM      6  C   UNL     1     112.095 125.910 137.845  0.00  0.00    +0.000 A 
ATOM      7  C   UNL     1     112.346 126.183 138.582  0.00  0.00    +0.000 A 
ATOM      8  C   UNL     1     113.150 126.207 138.761  0.00  0.00    +0.000 A 
ATOM      9  C   UNL     1     113.705 125.959 138.203  0.00  0.00    +0.000 A 
ATOM     10  C   UNL     1     113.423 126.489 139.525  0.00  0.00    +0.000 A 
ATOM     11  C   UNL     1     112.013 126.724 139.925  0.00  0.00    +0.000 A 
ATOM     12  C   UNL     1     112.852 126.749 140.111  0.00  0.00    +0.000 A 
ENDROOT
BRANCH  11  15
ATOM     13  O   UNL     1     109.915 126.114 141.767  0.00  0.00    +0.000 OA
ATOM     14  O   UNL     1     109.786 127.714 142.150  0.00  0.00    +0.000 OA
ATOM     15  C   UNL     1     111.456 126.971 140.481  0.00  0.00    +0.000 A 
ATOM     16  C   UNL     1     110.964 126.419 140.846  0.00  0.00    +0.000 A 
ATOM     17  C   UNL     1     111.392 127.771 140.672  0.00  0.00    +0.000 A 
ATOM     18  C   UNL     1     110.407 126.666 141.402  0.00  0.00    +0.000 A 
ATOM     19  C   UNL     1     110.835 128.019 141.229  0.00  0.00    +0.000 A 
ATOM     20  C   UNL     1     110.343 127.466 141.594  0.00  0.00    +0.000 A 
ENDBRANCH  11  15
BRANCH   5  21
ATOM     21  O   UNL     1     114.008 125.438 136.907  0.00  0.00    +0.000 OA
ATOM     22  C   UNL     1     114.443 124.747 137.036  0.00  0.00    +0.000 C 
ENDBRANCH   5  21
BRANCH   4  23
ATOM     23  O   UNL     1     112.398 125.389 136.549  0.00  0.00    +0.000 OA
BRANCH  23  32
ATOM     24  O   UNL     1     111.919 126.626 136.018  0.00  0.00    +0.000 OA
ATOM     25  O   UNL     1     109.962 125.455 135.057  0.00  0.00    +0.000 OA
ATOM     26  O   UNL     1     110.135 127.082 134.847  0.00  0.00    +0.000 OA
ATOM     27  O   UNL     1     111.093 124.608 135.909  0.00  0.00    +0.000 OA
ATOM     28  C   UNL     1     110.614 125.845 135.378  0.00  0.00    +0.000 C 
ATOM     29  C   UNL     1     110.701 126.660 135.272  0.00  0.00    +0.000 C 
ATOM     30  C   UNL     1     111.180 125.423 135.803  0.00  0.00    +0.000 C 
ATOM     31  C   UNL     1     111.353 127.050 135.593  0.00  0.00    +0.000 C 
ATOM     32  C   UNL     1     111.833 125.813 136.124  0.00  0.00    +0.000 C 
BRANCH  31  34
ATOM     33  O   UNL     1     110.960 128.386 135.907  0.00  0.00    +0.000 OA
ATOM     34  C   UNL     1     111.440 127.863 135.487  0.00  0.00    +0.000 C 
BRANCH  34  35
ATOM     35  O   UNL     1     112.006 128.154 134.962  0.00  0.00    +0.000 OA
ATOM     36  C   UNL     1     112.229 128.947 134.994  0.00  0.00    +0.000 C 
ENDBRANCH  34  35
ENDBRANCH  31  34
ENDBRANCH  23  32
ENDBRANCH   4  23
TORSDOF 6
ENDMDL
MODEL 10
REMARK VINA RESULT:      -8.6      2.145      4.912
REMARK  Name = 44258511
REMARK  6 active torsions:
REMARK  status: ('A' for Active; 'I' for Inactive)
REMARK    1  A    between atoms: O_2  and  C_18
REMARK    2  A    between atoms: O_2  and  C_20
REMARK    3  A    between atoms: O_6  and  C_19
REMARK    4  A    between atoms: O_9  and  C_21
REMARK    5  A    between atoms: C_17  and  C_19
REMARK    6  A    between atoms: C_28  and  C_30
REMARK                            x       y       z     vdW  Elec       q    Type
REMARK                         _______ _______ _______ _____ _____    ______ ____
ROOT
ATOM      1  O   UNL     1     111.992 126.555 136.257  0.00  0.00    +0.000 OA
ATOM      2  O   UNL     1     114.000 128.615 135.941  0.00  0.00    +0.000 OA
ATOM      3  O   UNL     1     114.404 127.312 136.413  0.00  0.00    +0.000 OA
ATOM      4  C   UNL     1     111.848 128.654 135.579  0.00  0.00    +0.000 A 
ATOM      5  C   UNL     1     112.635 128.898 135.631  0.00  0.00    +0.000 A 
ATOM      6  C   UNL     1     111.641 127.883 135.786  0.00  0.00    +0.000 A 
ATOM      7  C   UNL     1     112.221 127.355 136.045  0.00  0.00    +0.000 A 
ATOM      8  C   UNL     1     113.006 127.599 136.096  0.00  0.00    +0.000 A 
ATOM      9  C   UNL     1     113.214 128.371 135.889  0.00  0.00    +0.000 A 
ATOM     10  C   UNL     1     113.619 127.059 136.364  0.00  0.00    +0.000 A 
ATOM     11  C   UNL     1     112.590 126.001 136.527  0.00  0.00    +0.000 A 
ATOM     12  C   UNL     1     113.410 126.255 136.581  0.00  0.00    +0.000 A 
ENDROOT
BRANCH  11  15
ATOM     13  O   UNL     1     111.197 124.191 138.246  0.00  0.00    +0.000 OA
ATOM     14  O   UNL     1     111.750 122.918 137.353  0.00  0.00    +0.000 OA
ATOM     15  C   UNL     1     112.380 125.230 136.733  0.00  0.00    +0.000 A 
ATOM     16  C   UNL     1     111.894 125.095 137.386  0.00  0.00    +0.000 A 
ATOM     17  C   UNL     1     112.657 124.593 136.287  0.00  0.00    +0.000 A 
ATOM     18  C   UNL     1     111.684 124.325 137.593  0.00  0.00    +0.000 A 
ATOM     19  C   UNL     1     112.447 123.823 136.493  0.00  0.00    +0.000 A 
ATOM     20  C   UNL     1     111.960 123.689 137.146  0.00  0.00    +0.000 A 
ENDBRANCH  11  15
BRANCH   5  21
ATOM     21  O   UNL     1     112.841 129.669 135.424  0.00  0.00    +0.000 OA
ATOM     22  C   UNL     1     113.303 129.807 134.753  0.00  0.00    +0.000 C 
ENDBRANCH   5  21
BRANCH   4  23
ATOM     23  O   UNL     1     111.268 129.182 135.321  0.00  0.00    +0.000 OA
BRANCH  23  32
ATOM     24  O   UNL     1     110.652 129.465 136.578  0.00  0.00    +0.000 OA
ATOM     25  O   UNL     1     108.421 129.332 135.516  0.00  0.00    +0.000 OA
ATOM     26  O   UNL     1     108.549 129.660 137.128  0.00  0.00    +0.000 OA
ATOM     27  O   UNL     1     109.781 129.092 134.612  0.00  0.00    +0.000 OA
ATOM     28  C   UNL     1     109.165 129.376 135.870  0.00  0.00    +0.000 C 
ATOM     29  C   UNL     1     109.229 129.540 136.676  0.00  0.00    +0.000 C 
ATOM     30  C   UNL     1     109.845 129.257 135.419  0.00  0.00    +0.000 C 
ATOM     31  C   UNL     1     109.973 129.585 137.031  0.00  0.00    +0.000 C 
ATOM     32  C   UNL     1     110.589 129.301 135.773  0.00  0.00    +0.000 C 
BRANCH  31  34
ATOM     33  O   UNL     1     110.050 130.531 138.098  0.00  0.00    +0.000 OA
ATOM     34  C   UNL     1     110.036 129.749 137.836  0.00  0.00    +0.000 C 
BRANCH  34  35
ATOM     35  O   UNL     1     110.086 129.131 138.381  0.00  0.00    +0.000 OA
ATOM     36  C   UNL     1     110.395 129.268 139.133  0.00  0.00    +0.000 C 
ENDBRANCH  34  35
ENDBRANCH  31  34
ENDBRANCH  23  32
ENDBRANCH   4  23
TORSDOF 6
ENDMDL
