MODEL 1
REMARK VINA RESULT:     -10.6      0.000      0.000
REMARK  Name = 232990
REMARK  7 active torsions:
REMARK  status: ('A' for Active; 'I' for Inactive)
REMARK    1  A    between atoms: O_1  and  C_16
REMARK    2  A    between atoms: O_1  and  C_19
REMARK    3  A    between atoms: O_4  and  C_20
REMARK    4  A    between atoms: O_4  and  C_28
REMARK    5  A    between atoms: O_15  and  C_42
REMARK    6  A    between atoms: C_22  and  C_26
REMARK    7  A    between atoms: C_33  and  C_37
REMARK                            x       y       z     vdW  Elec       q    Type
REMARK                         _______ _______ _______ _____ _____    ______ ____
ROOT
ATOM      1  O   UNL     1     107.096 125.646 140.720  0.00  0.00    +0.000 OA
ENDROOT
BRANCH   1   5
ATOM      2  O   UNL     1     104.943 124.293 139.303  0.00  0.00    +0.000 OA
ATOM      3  O   UNL     1     105.613 123.477 141.992  0.00  0.00    +0.000 OA
ATOM      4  O   UNL     1     104.552 122.829 141.260  0.00  0.00    +0.000 OA
ATOM      5  C   UNL     1     106.504 125.072 140.698  0.00  0.00    +0.000 A 
ATOM      6  C   UNL     1     106.019 124.979 139.994  0.00  0.00    +0.000 A 
ATOM      7  C   UNL     1     106.369 124.565 141.377  0.00  0.00    +0.000 A 
ATOM      8  C   UNL     1     105.405 124.378 139.980  0.00  0.00    +0.000 A 
ATOM      9  C   UNL     1     105.275 123.890 140.633  0.00  0.00    +0.000 A 
ATOM     10  C   UNL     1     104.350 123.719 139.277  0.00  0.00    +0.000 C 
ATOM     11  C   UNL     1     105.750 123.970 141.344  0.00  0.00    +0.000 A 
ATOM     12  C   UNL     1     104.220 123.232 139.930  0.00  0.00    +0.000 C 
ATOM     13  C   UNL     1     104.682 123.317 140.608  0.00  0.00    +0.000 C 
BRANCH  10  15
ATOM     14  O   UNL     1     101.812 123.896 137.976  0.00  0.00    +0.000 OA
ATOM     15  C   UNL     1     103.887 123.634 138.600  0.00  0.00    +0.000 A 
ATOM     16  C   UNL     1     103.081 123.808 138.626  0.00  0.00    +0.000 A 
ATOM     17  C   UNL     1     104.230 123.375 137.896  0.00  0.00    +0.000 A 
ATOM     18  C   UNL     1     102.618 123.723 137.949  0.00  0.00    +0.000 A 
ATOM     19  C   UNL     1     103.767 123.289 137.218  0.00  0.00    +0.000 A 
ATOM     20  C   UNL     1     102.961 123.463 137.245  0.00  0.00    +0.000 A 
BRANCH  20  21
ATOM     21  O   UNL     1     102.498 123.378 136.568  0.00  0.00    +0.000 OA
ATOM     22  C   UNL     1     102.813 123.020 135.894  0.00  0.00    +0.000 C 
ENDBRANCH  20  21
ENDBRANCH  10  15
ENDBRANCH   1   5
BRANCH   1  29
ATOM     23  O   UNL     1     106.331 126.664 141.369  0.00  0.00    +0.000 OA
ATOM     24  O   UNL     1     108.332 127.347 142.656  0.00  0.00    +0.000 OA
ATOM     25  O   UNL     1     106.901 128.136 142.876  0.00  0.00    +0.000 OA
ATOM     26  C   UNL     1     107.715 126.496 141.688  0.00  0.00    +0.000 C 
ATOM     27  C   UNL     1     107.665 127.119 142.227  0.00  0.00    +0.000 C 
ATOM     28  C   UNL     1     106.950 127.514 142.338  0.00  0.00    +0.000 C 
ATOM     29  C   UNL     1     107.048 126.269 141.259  0.00  0.00    +0.000 C 
ATOM     30  C   UNL     1     106.283 127.286 141.908  0.00  0.00    +0.000 C 
BRANCH  30  32
ATOM     31  O   UNL     1     105.155 127.976 141.366  0.00  0.00    +0.000 OA
ATOM     32  C   UNL     1     105.567 127.681 142.018  0.00  0.00    +0.000 C 
ENDBRANCH  30  32
BRANCH  26  33
ATOM     33  O   UNL     1     108.430 126.102 141.578  0.00  0.00    +0.000 OA
BRANCH  33  38
ATOM     34  O   UNL     1     108.837 127.095 140.635  0.00  0.00    +0.000 OA
ATOM     35  O   UNL     1     109.908 125.379 141.453  0.00  0.00    +0.000 OA
ATOM     36  O   UNL     1     111.053 126.010 140.447  0.00  0.00    +0.000 OA
ATOM     37  O   UNL     1     110.720 127.365 139.566  0.00  0.00    +0.000 OA
ATOM     38  C   UNL     1     109.003 126.417 141.075  0.00  0.00    +0.000 C 
ATOM     39  C   UNL     1     109.742 126.056 141.012  0.00  0.00    +0.000 C 
ATOM     40  C   UNL     1     110.315 126.371 140.509  0.00  0.00    +0.000 C 
ATOM     41  C   UNL     1     110.148 127.049 140.069  0.00  0.00    +0.000 C 
ATOM     42  C   UNL     1     109.409 127.411 140.131  0.00  0.00    +0.000 C 
ATOM     43  C   UNL     1     109.242 128.088 139.691  0.00  0.00    +0.000 C 
ENDBRANCH  33  38
ENDBRANCH  26  33
ENDBRANCH   1  29
TORSDOF 7
ENDMDL
MODEL 2
REMARK VINA RESULT:     -10.4      3.751      6.398
REMARK  Name = 232990
REMARK  7 active torsions:
REMARK  status: ('A' for Active; 'I' for Inactive)
REMARK    1  A    between atoms: O_1  and  C_16
REMARK    2  A    between atoms: O_1  and  C_19
REMARK    3  A    between atoms: O_4  and  C_20
REMARK    4  A    between atoms: O_4  and  C_28
REMARK    5  A    between atoms: O_15  and  C_42
REMARK    6  A    between atoms: C_22  and  C_26
REMARK    7  A    between atoms: C_33  and  C_37
REMARK                            x       y       z     vdW  Elec       q    Type
REMARK                         _______ _______ _______ _____ _____    ______ ____
ROOT
ATOM      1  O   UNL     1     105.087 128.032 142.760  0.00  0.00    +0.000 OA
ENDROOT
BRANCH   1   5
ATOM      2  O   UNL     1     103.301 130.190 141.964  0.00  0.00    +0.000 OA
ATOM      3  O   UNL     1     103.641 127.908 140.226  0.00  0.00    +0.000 OA
ATOM      4  O   UNL     1     102.765 128.995 139.864  0.00  0.00    +0.000 OA
ATOM      5  C   UNL     1     104.561 128.362 142.217  0.00  0.00    +0.000 A 
ATOM      6  C   UNL     1     104.196 129.123 142.377  0.00  0.00    +0.000 A 
ATOM      7  C   UNL     1     104.375 127.947 141.488  0.00  0.00    +0.000 A 
ATOM      8  C   UNL     1     103.649 129.459 141.805  0.00  0.00    +0.000 A 
ATOM      9  C   UNL     1     103.470 129.061 141.105  0.00  0.00    +0.000 A 
ATOM     10  C   UNL     1     102.775 130.523 141.423  0.00  0.00    +0.000 C 
ATOM     11  C   UNL     1     103.826 128.299 140.929  0.00  0.00    +0.000 A 
ATOM     12  C   UNL     1     102.596 130.124 140.723  0.00  0.00    +0.000 C 
ATOM     13  C   UNL     1     102.944 129.394 140.563  0.00  0.00    +0.000 C 
BRANCH  10  15
ATOM     14  O   UNL     1     102.847 133.377 141.295  0.00  0.00    +0.000 OA
ATOM     15  C   UNL     1     102.427 131.254 141.581  0.00  0.00    +0.000 A 
ATOM     16  C   UNL     1     102.810 131.950 141.359  0.00  0.00    +0.000 A 
ATOM     17  C   UNL     1     101.696 131.289 141.962  0.00  0.00    +0.000 A 
ATOM     18  C   UNL     1     102.464 132.681 141.517  0.00  0.00    +0.000 A 
ATOM     19  C   UNL     1     101.348 132.020 142.120  0.00  0.00    +0.000 A 
ATOM     20  C   UNL     1     101.732 132.716 141.898  0.00  0.00    +0.000 A 
BRANCH  20  21
ATOM     21  O   UNL     1     101.385 133.448 142.056  0.00  0.00    +0.000 OA
ATOM     22  C   UNL     1     100.710 133.491 142.530  0.00  0.00    +0.000 C 
ENDBRANCH  20  21
ENDBRANCH  10  15
ENDBRANCH   1   5
BRANCH   1  29
ATOM     23  O   UNL     1     106.265 128.650 142.239  0.00  0.00    +0.000 OA
ATOM     24  O   UNL     1     107.567 126.612 142.766  0.00  0.00    +0.000 OA
ATOM     25  O   UNL     1     108.311 127.909 142.070  0.00  0.00    +0.000 OA
ATOM     26  C   UNL     1     106.327 127.321 142.763  0.00  0.00    +0.000 C 
ATOM     27  C   UNL     1     107.133 127.291 142.590  0.00  0.00    +0.000 C 
ATOM     28  C   UNL     1     107.505 127.940 142.243  0.00  0.00    +0.000 C 
ATOM     29  C   UNL     1     105.893 128.001 142.588  0.00  0.00    +0.000 C 
ATOM     30  C   UNL     1     107.071 128.619 142.067  0.00  0.00    +0.000 C 
BRANCH  30  32
ATOM     31  O   UNL     1     107.271 129.470 140.937  0.00  0.00    +0.000 OA
ATOM     32  C   UNL     1     107.443 129.268 141.719  0.00  0.00    +0.000 C 
ENDBRANCH  30  32
BRANCH  26  33
ATOM     33  O   UNL     1     105.955 126.673 143.111  0.00  0.00    +0.000 OA
BRANCH  33  38
ATOM     34  O   UNL     1     106.246 127.154 144.425  0.00  0.00    +0.000 OA
ATOM     35  O   UNL     1     105.694 125.163 143.723  0.00  0.00    +0.000 OA
ATOM     36  O   UNL     1     105.855 124.890 145.342  0.00  0.00    +0.000 OA
ATOM     37  O   UNL     1     106.276 126.127 146.350  0.00  0.00    +0.000 OA
ATOM     38  C   UNL     1     106.035 126.536 143.921  0.00  0.00    +0.000 C 
ATOM     39  C   UNL     1     105.905 125.782 144.227  0.00  0.00    +0.000 C 
ATOM     40  C   UNL     1     105.985 125.644 145.036  0.00  0.00    +0.000 C 
ATOM     41  C   UNL     1     106.196 126.263 145.540  0.00  0.00    +0.000 C 
ATOM     42  C   UNL     1     106.326 127.018 145.234  0.00  0.00    +0.000 C 
ATOM     43  C   UNL     1     106.537 127.637 145.738  0.00  0.00    +0.000 C 
ENDBRANCH  33  38
ENDBRANCH  26  33
ENDBRANCH   1  29
TORSDOF 7
ENDMDL
MODEL 3
REMARK VINA RESULT:     -10.2      4.497      7.497
REMARK  Name = 232990
REMARK  7 active torsions:
REMARK  status: ('A' for Active; 'I' for Inactive)
REMARK    1  A    between atoms: O_1  and  C_16
REMARK    2  A    between atoms: O_1  and  C_19
REMARK    3  A    between atoms: O_4  and  C_20
REMARK    4  A    between atoms: O_4  and  C_28
REMARK    5  A    between atoms: O_15  and  C_42
REMARK    6  A    between atoms: C_22  and  C_26
REMARK    7  A    between atoms: C_33  and  C_37
REMARK                            x       y       z     vdW  Elec       q    Type
REMARK                         _______ _______ _______ _____ _____    ______ ____
ROOT
ATOM      1  O   UNL     1     110.638 126.789 137.097  0.00  0.00    +0.000 OA
ENDROOT
BRANCH   1   5
ATOM      2  O   UNL     1     110.004 129.625 136.908  0.00  0.00    +0.000 OA
ATOM      3  O   UNL     1     108.184 127.680 135.789  0.00  0.00    +0.000 OA
ATOM      4  O   UNL     1     107.902 129.092 135.714  0.00  0.00    +0.000 OA
ATOM      5  C   UNL     1     110.134 127.395 136.853  0.00  0.00    +0.000 A 
ATOM      6  C   UNL     1     110.336 128.215 137.012  0.00  0.00    +0.000 A 
ATOM      7  C   UNL     1     109.405 127.210 136.439  0.00  0.00    +0.000 A 
ATOM      8  C   UNL     1     109.806 128.839 136.753  0.00  0.00    +0.000 A 
ATOM      9  C   UNL     1     109.104 128.662 136.355  0.00  0.00    +0.000 A 
ATOM     10  C   UNL     1     109.502 130.233 136.665  0.00  0.00    +0.000 C 
ATOM     11  C   UNL     1     108.887 127.848 136.188  0.00  0.00    +0.000 A 
ATOM     12  C   UNL     1     108.802 130.055 136.267  0.00  0.00    +0.000 C 
ATOM     13  C   UNL     1     108.602 129.270 136.112  0.00  0.00    +0.000 C 
BRANCH  10  15
ATOM     14  O   UNL     1     109.567 132.463 138.452  0.00  0.00    +0.000 OA
ATOM     15  C   UNL     1     109.701 131.019 136.820  0.00  0.00    +0.000 A 
ATOM     16  C   UNL     1     109.535 131.348 137.558  0.00  0.00    +0.000 A 
ATOM     17  C   UNL     1     110.065 131.475 136.237  0.00  0.00    +0.000 A 
ATOM     18  C   UNL     1     109.733 132.133 137.714  0.00  0.00    +0.000 A 
ATOM     19  C   UNL     1     110.264 132.260 136.392  0.00  0.00    +0.000 A 
ATOM     20  C   UNL     1     110.097 132.589 137.131  0.00  0.00    +0.000 A 
BRANCH  20  21
ATOM     21  O   UNL     1     110.296 133.375 137.286  0.00  0.00    +0.000 OA
ATOM     22  C   UNL     1     110.717 133.813 136.728  0.00  0.00    +0.000 C 
ENDBRANCH  20  21
ENDBRANCH  10  15
ENDBRANCH   1   5
BRANCH   1  29
ATOM     23  O   UNL     1     109.953 126.496 138.316  0.00  0.00    +0.000 OA
ATOM     24  O   UNL     1     112.116 126.011 139.416  0.00  0.00    +0.000 OA
ATOM     25  O   UNL     1     110.710 125.879 140.267  0.00  0.00    +0.000 OA
ATOM     26  C   UNL     1     111.378 126.400 138.256  0.00  0.00    +0.000 C 
ATOM     27  C   UNL     1     111.395 126.172 139.049  0.00  0.00    +0.000 C 
ATOM     28  C   UNL     1     110.693 126.107 139.475  0.00  0.00    +0.000 C 
ATOM     29  C   UNL     1     110.657 126.561 137.889  0.00  0.00    +0.000 C 
ATOM     30  C   UNL     1     109.971 126.268 139.109  0.00  0.00    +0.000 C 
BRANCH  30  32
ATOM     31  O   UNL     1     108.568 126.004 139.145  0.00  0.00    +0.000 OA
ATOM     32  C   UNL     1     109.268 126.203 139.534  0.00  0.00    +0.000 C 
ENDBRANCH  30  32
BRANCH  26  33
ATOM     33  O   UNL     1     112.081 126.465 137.830  0.00  0.00    +0.000 OA
BRANCH  33  38
ATOM     34  O   UNL     1     111.992 125.094 137.440  0.00  0.00    +0.000 OA
ATOM     35  O   UNL     1     113.628 126.527 137.259  0.00  0.00    +0.000 OA
ATOM     36  O   UNL     1     114.312 125.186 136.584  0.00  0.00    +0.000 OA
ATOM     37  O   UNL     1     113.449 123.784 136.479  0.00  0.00    +0.000 OA
ATOM     38  C   UNL     1     112.423 125.795 137.492  0.00  0.00    +0.000 C 
ATOM     39  C   UNL     1     113.196 125.826 137.207  0.00  0.00    +0.000 C 
ATOM     40  C   UNL     1     113.539 125.156 136.869  0.00  0.00    +0.000 C 
ATOM     41  C   UNL     1     113.108 124.454 136.817  0.00  0.00    +0.000 C 
ATOM     42  C   UNL     1     112.334 124.423 137.102  0.00  0.00    +0.000 C 
ATOM     43  C   UNL     1     111.902 123.722 137.050  0.00  0.00    +0.000 C 
ENDBRANCH  33  38
ENDBRANCH  26  33
ENDBRANCH   1  29
TORSDOF 7
ENDMDL
MODEL 4
REMARK VINA RESULT:     -10.1      6.347      8.035
REMARK  Name = 232990
REMARK  7 active torsions:
REMARK  status: ('A' for Active; 'I' for Inactive)
REMARK    1  A    between atoms: O_1  and  C_16
REMARK    2  A    between atoms: O_1  and  C_19
REMARK    3  A    between atoms: O_4  and  C_20
REMARK    4  A    between atoms: O_4  and  C_28
REMARK    5  A    between atoms: O_15  and  C_42
REMARK    6  A    between atoms: C_22  and  C_26
REMARK    7  A    between atoms: C_33  and  C_37
REMARK                            x       y       z     vdW  Elec       q    Type
REMARK                         _______ _______ _______ _____ _____    ______ ____
ROOT
ATOM      1  O   UNL     1     112.632 127.701 137.692  0.00  0.00    +0.000 OA
ENDROOT
BRANCH   1   5
ATOM      2  O   UNL     1     110.786 129.900 137.203  0.00  0.00    +0.000 OA
ATOM      3  O   UNL     1     113.617 130.435 137.408  0.00  0.00    +0.000 OA
ATOM      4  O   UNL     1     112.674 131.499 137.166  0.00  0.00    +0.000 OA
ATOM      5  C   UNL     1     112.493 128.505 137.566  0.00  0.00    +0.000 A 
ATOM      6  C   UNL     1     111.692 128.791 137.447  0.00  0.00    +0.000 A 
ATOM      7  C   UNL     1     113.148 129.059 137.554  0.00  0.00    +0.000 A 
ATOM      8  C   UNL     1     111.557 129.630 137.317  0.00  0.00    +0.000 A 
ATOM      9  C   UNL     1     112.186 130.164 137.304  0.00  0.00    +0.000 A 
ATOM     10  C   UNL     1     110.644 130.703 137.077  0.00  0.00    +0.000 C 
ATOM     11  C   UNL     1     112.994 129.894 137.422  0.00  0.00    +0.000 A 
ATOM     12  C   UNL     1     111.274 131.235 137.065  0.00  0.00    +0.000 C 
ATOM     13  C   UNL     1     112.045 130.966 137.178  0.00  0.00    +0.000 C 
BRANCH  10  15
ATOM     14  O   UNL     1     108.229 131.810 138.129  0.00  0.00    +0.000 OA
ATOM     15  C   UNL     1     109.873 130.973 136.963  0.00  0.00    +0.000 A 
ATOM     16  C   UNL     1     109.436 131.256 137.602  0.00  0.00    +0.000 A 
ATOM     17  C   UNL     1     109.538 130.959 136.209  0.00  0.00    +0.000 A 
ATOM     18  C   UNL     1     108.665 131.526 137.489  0.00  0.00    +0.000 A 
ATOM     19  C   UNL     1     108.767 131.229 136.095  0.00  0.00    +0.000 A 
ATOM     20  C   UNL     1     108.331 131.513 136.735  0.00  0.00    +0.000 A 
BRANCH  20  21
ATOM     21  O   UNL     1     107.559 131.783 136.621  0.00  0.00    +0.000 OA
ATOM     22  C   UNL     1     107.223 131.767 135.868  0.00  0.00    +0.000 C 
ENDBRANCH  20  21
ENDBRANCH  10  15
ENDBRANCH   1   5
BRANCH   1  29
ATOM     23  O   UNL     1     112.853 127.758 139.103  0.00  0.00    +0.000 OA
ATOM     24  O   UNL     1     111.590 125.649 139.386  0.00  0.00    +0.000 OA
ATOM     25  O   UNL     1     112.231 126.408 140.701  0.00  0.00    +0.000 OA
ATOM     26  C   UNL     1     112.110 126.674 138.538  0.00  0.00    +0.000 C 
ATOM     27  C   UNL     1     112.011 126.352 139.291  0.00  0.00    +0.000 C 
ATOM     28  C   UNL     1     112.331 126.731 139.949  0.00  0.00    +0.000 C 
ATOM     29  C   UNL     1     112.531 127.378 138.444  0.00  0.00    +0.000 C 
ATOM     30  C   UNL     1     112.752 127.434 139.855  0.00  0.00    +0.000 C 
BRANCH  30  32
ATOM     31  O   UNL     1     113.888 127.946 140.555  0.00  0.00    +0.000 OA
ATOM     32  C   UNL     1     113.074 127.815 140.512  0.00  0.00    +0.000 C 
ENDBRANCH  30  32
BRANCH  26  33
ATOM     33  O   UNL     1     111.790 126.295 137.881  0.00  0.00    +0.000 OA
BRANCH  33  38
ATOM     34  O   UNL     1     113.001 125.572 137.653  0.00  0.00    +0.000 OA
ATOM     35  O   UNL     1     110.970 125.216 136.939  0.00  0.00    +0.000 OA
ATOM     36  O   UNL     1     111.773 123.954 136.241  0.00  0.00    +0.000 OA
ATOM     37  O   UNL     1     113.394 123.772 136.485  0.00  0.00    +0.000 OA
ATOM     38  C   UNL     1     112.190 125.664 137.531  0.00  0.00    +0.000 C 
ATOM     39  C   UNL     1     111.781 125.125 137.061  0.00  0.00    +0.000 C 
ATOM     40  C   UNL     1     112.182 124.493 136.711  0.00  0.00    +0.000 C 
ATOM     41  C   UNL     1     112.993 124.402 136.833  0.00  0.00    +0.000 C 
ATOM     42  C   UNL     1     113.403 124.942 137.305  0.00  0.00    +0.000 C 
ATOM     43  C   UNL     1     114.214 124.851 137.427  0.00  0.00    +0.000 C 
ENDBRANCH  33  38
ENDBRANCH  26  33
ENDBRANCH   1  29
TORSDOF 7
ENDMDL
MODEL 5
REMARK VINA RESULT:     -10.1      6.242      8.009
REMARK  Name = 232990
REMARK  7 active torsions:
REMARK  status: ('A' for Active; 'I' for Inactive)
REMARK    1  A    between atoms: O_1  and  C_16
REMARK    2  A    between atoms: O_1  and  C_19
REMARK    3  A    between atoms: O_4  and  C_20
REMARK    4  A    between atoms: O_4  and  C_28
REMARK    5  A    between atoms: O_15  and  C_42
REMARK    6  A    between atoms: C_22  and  C_26
REMARK    7  A    between atoms: C_33  and  C_37
REMARK                            x       y       z     vdW  Elec       q    Type
REMARK                         _______ _______ _______ _____ _____    ______ ____
ROOT
ATOM      1  O   UNL     1     113.157 129.245 138.832  0.00  0.00    +0.000 OA
ENDROOT
BRANCH   1   5
ATOM      2  O   UNL     1     111.016 129.787 136.934  0.00  0.00    +0.000 OA
ATOM      3  O   UNL     1     113.404 128.428 136.039  0.00  0.00    +0.000 OA
ATOM      4  O   UNL     1     112.324 128.713 135.127  0.00  0.00    +0.000 OA
ATOM      5  C   UNL     1     112.850 129.200 138.067  0.00  0.00    +0.000 A 
ATOM      6  C   UNL     1     112.074 129.525 137.894  0.00  0.00    +0.000 A 
ATOM      7  C   UNL     1     113.304 128.827 137.441  0.00  0.00    +0.000 A 
ATOM      8  C   UNL     1     111.762 129.473 137.095  0.00  0.00    +0.000 A 
ATOM      9  C   UNL     1     112.197 129.115 136.492  0.00  0.00    +0.000 A 
ATOM     10  C   UNL     1     110.706 129.743 136.170  0.00  0.00    +0.000 C 
ATOM     11  C   UNL     1     112.975 128.784 136.648  0.00  0.00    +0.000 A 
ATOM     12  C   UNL     1     111.142 129.385 135.568  0.00  0.00    +0.000 C 
ATOM     13  C   UNL     1     111.888 129.071 135.729  0.00  0.00    +0.000 C 
BRANCH  10  15
ATOM     14  O   UNL     1     107.869 129.431 136.020  0.00  0.00    +0.000 OA
ATOM     15  C   UNL     1     109.961 130.057 136.009  0.00  0.00    +0.000 A 
ATOM     16  C   UNL     1     109.288 129.587 136.095  0.00  0.00    +0.000 A 
ATOM     17  C   UNL     1     109.888 130.841 135.761  0.00  0.00    +0.000 A 
ATOM     18  C   UNL     1     108.542 129.900 135.934  0.00  0.00    +0.000 A 
ATOM     19  C   UNL     1     109.142 131.155 135.600  0.00  0.00    +0.000 A 
ATOM     20  C   UNL     1     108.469 130.684 135.686  0.00  0.00    +0.000 A 
BRANCH  20  21
ATOM     21  O   UNL     1     107.724 130.998 135.525  0.00  0.00    +0.000 OA
ATOM     22  C   UNL     1     107.616 131.815 135.500  0.00  0.00    +0.000 C 
ENDBRANCH  20  21
ENDBRANCH  10  15
ENDBRANCH   1   5
BRANCH   1  29
ATOM     23  O   UNL     1     112.580 127.992 139.202  0.00  0.00    +0.000 OA
ATOM     24  O   UNL     1     114.229 127.773 141.035  0.00  0.00    +0.000 OA
ATOM     25  O   UNL     1     113.102 126.593 140.793  0.00  0.00    +0.000 OA
ATOM     26  C   UNL     1     113.694 128.510 139.933  0.00  0.00    +0.000 C 
ATOM     27  C   UNL     1     113.679 127.846 140.424  0.00  0.00    +0.000 C 
ATOM     28  C   UNL     1     113.116 127.256 140.303  0.00  0.00    +0.000 C 
ATOM     29  C   UNL     1     113.144 128.583 139.322  0.00  0.00    +0.000 C 
ATOM     30  C   UNL     1     112.567 127.329 139.692  0.00  0.00    +0.000 C 
BRANCH  30  32
ATOM     31  O   UNL     1     111.201 126.910 139.664  0.00  0.00    +0.000 OA
ATOM     32  C   UNL     1     112.003 126.739 139.571  0.00  0.00    +0.000 C 
ENDBRANCH  30  32
BRANCH  26  33
ATOM     33  O   UNL     1     114.257 129.100 140.054  0.00  0.00    +0.000 OA
BRANCH  33  38
ATOM     34  O   UNL     1     113.396 129.730 141.004  0.00  0.00    +0.000 OA
ATOM     35  O   UNL     1     115.352 130.320 140.238  0.00  0.00    +0.000 OA
ATOM     36  O   UNL     1     115.038 131.560 141.281  0.00  0.00    +0.000 OA
ATOM     37  O   UNL     1     113.629 131.579 142.140  0.00  0.00    +0.000 OA
ATOM     38  C   UNL     1     114.100 129.720 140.575  0.00  0.00    +0.000 C 
ATOM     39  C   UNL     1     114.647 130.330 140.667  0.00  0.00    +0.000 C 
ATOM     40  C   UNL     1     114.491 130.950 141.189  0.00  0.00    +0.000 C 
ATOM     41  C   UNL     1     113.787 130.960 141.618  0.00  0.00    +0.000 C 
ATOM     42  C   UNL     1     113.239 130.349 141.526  0.00  0.00    +0.000 C 
ATOM     43  C   UNL     1     112.534 130.359 141.955  0.00  0.00    +0.000 C 
ENDBRANCH  33  38
ENDBRANCH  26  33
ENDBRANCH   1  29
TORSDOF 7
ENDMDL
MODEL 6
REMARK VINA RESULT:     -10.1      5.995      9.335
REMARK  Name = 232990
REMARK  7 active torsions:
REMARK  status: ('A' for Active; 'I' for Inactive)
REMARK    1  A    between atoms: O_1  and  C_16
REMARK    2  A    between atoms: O_1  and  C_19
REMARK    3  A    between atoms: O_4  and  C_20
REMARK    4  A    between atoms: O_4  and  C_28
REMARK    5  A    between atoms: O_15  and  C_42
REMARK    6  A    between atoms: C_22  and  C_26
REMARK    7  A    between atoms: C_33  and  C_37
REMARK                            x       y       z     vdW  Elec       q    Type
REMARK                         _______ _______ _______ _____ _____    ______ ____
ROOT
ATOM      1  O   UNL     1     111.997 127.525 137.461  0.00  0.00    +0.000 OA
ENDROOT
BRANCH   1   5
ATOM      2  O   UNL     1     112.894 128.935 139.846  0.00  0.00    +0.000 OA
ATOM      3  O   UNL     1     113.899 126.283 139.295  0.00  0.00    +0.000 OA
ATOM      4  O   UNL     1     114.321 127.011 140.467  0.00  0.00    +0.000 OA
ATOM      5  C   UNL     1     112.453 127.551 138.148  0.00  0.00    +0.000 A 
ATOM      6  C   UNL     1     112.436 128.247 138.652  0.00  0.00    +0.000 A 
ATOM      7  C   UNL     1     112.948 126.884 138.363  0.00  0.00    +0.000 A 
ATOM      8  C   UNL     1     112.914 128.265 139.365  0.00  0.00    +0.000 A 
ATOM      9  C   UNL     1     113.391 127.624 139.573  0.00  0.00    +0.000 A 
ATOM     10  C   UNL     1     113.349 128.964 140.533  0.00  0.00    +0.000 C 
ATOM     11  C   UNL     1     113.420 126.920 139.080  0.00  0.00    +0.000 A 
ATOM     12  C   UNL     1     113.825 128.323 140.740  0.00  0.00    +0.000 C 
ATOM     13  C   UNL     1     113.846 127.652 140.260  0.00  0.00    +0.000 C 
BRANCH  10  15
ATOM     14  O   UNL     1     114.485 131.454 141.357  0.00  0.00    +0.000 OA
ATOM     15  C   UNL     1     113.329 129.635 141.014  0.00  0.00    +0.000 A 
ATOM     16  C   UNL     1     113.917 130.209 140.945  0.00  0.00    +0.000 A 
ATOM     17  C   UNL     1     112.720 129.730 141.562  0.00  0.00    +0.000 A 
ATOM     18  C   UNL     1     113.897 130.880 141.425  0.00  0.00    +0.000 A 
ATOM     19  C   UNL     1     112.700 130.401 142.043  0.00  0.00    +0.000 A 
ATOM     20  C   UNL     1     113.289 130.975 141.974  0.00  0.00    +0.000 A 
BRANCH  20  21
ATOM     21  O   UNL     1     113.268 131.646 142.455  0.00  0.00    +0.000 OA
ATOM     22  C   UNL     1     112.628 131.773 142.959  0.00  0.00    +0.000 C 
ENDBRANCH  20  21
ENDBRANCH  10  15
ENDBRANCH   1   5
BRANCH   1  29
ATOM     23  O   UNL     1     113.000 128.065 136.597  0.00  0.00    +0.000 OA
ATOM     24  O   UNL     1     111.247 129.208 135.276  0.00  0.00    +0.000 OA
ATOM     25  O   UNL     1     112.833 129.366 134.853  0.00  0.00    +0.000 OA
ATOM     26  C   UNL     1     111.621 128.366 136.368  0.00  0.00    +0.000 C 
ATOM     27  C   UNL     1     111.831 128.827 135.716  0.00  0.00    +0.000 C 
ATOM     28  C   UNL     1     112.624 128.906 135.505  0.00  0.00    +0.000 C 
ATOM     29  C   UNL     1     112.205 127.985 136.809  0.00  0.00    +0.000 C 
ATOM     30  C   UNL     1     113.208 128.525 135.945  0.00  0.00    +0.000 C 
BRANCH  30  32
ATOM     31  O   UNL     1     114.494 127.941 135.729  0.00  0.00    +0.000 OA
ATOM     32  C   UNL     1     114.002 128.604 135.734  0.00  0.00    +0.000 C 
ENDBRANCH  30  32
BRANCH  26  33
ATOM     33  O   UNL     1     110.828 128.287 136.580  0.00  0.00    +0.000 OA
BRANCH  33  38
ATOM     34  O   UNL     1     110.696 127.174 135.694  0.00  0.00    +0.000 OA
ATOM     35  O   UNL     1     109.204 128.251 136.866  0.00  0.00    +0.000 OA
ATOM     36  O   UNL     1     108.260 127.120 136.122  0.00  0.00    +0.000 OA
ATOM     37  O   UNL     1     108.941 126.025 135.093  0.00  0.00    +0.000 OA
ATOM     38  C   UNL     1     110.356 127.722 136.208  0.00  0.00    +0.000 C 
ATOM     39  C   UNL     1     109.544 127.704 136.351  0.00  0.00    +0.000 C 
ATOM     40  C   UNL     1     109.072 127.138 135.980  0.00  0.00    +0.000 C 
ATOM     41  C   UNL     1     109.412 126.591 135.465  0.00  0.00    +0.000 C 
ATOM     42  C   UNL     1     110.225 126.609 135.322  0.00  0.00    +0.000 C 
ATOM     43  C   UNL     1     110.566 126.061 134.807  0.00  0.00    +0.000 C 
ENDBRANCH  33  38
ENDBRANCH  26  33
ENDBRANCH   1  29
TORSDOF 7
ENDMDL
MODEL 7
REMARK VINA RESULT:     -10.0      6.951      8.796
REMARK  Name = 232990
REMARK  7 active torsions:
REMARK  status: ('A' for Active; 'I' for Inactive)
REMARK    1  A    between atoms: O_1  and  C_16
REMARK    2  A    between atoms: O_1  and  C_19
REMARK    3  A    between atoms: O_4  and  C_20
REMARK    4  A    between atoms: O_4  and  C_28
REMARK    5  A    between atoms: O_15  and  C_42
REMARK    6  A    between atoms: C_22  and  C_26
REMARK    7  A    between atoms: C_33  and  C_37
REMARK                            x       y       z     vdW  Elec       q    Type
REMARK                         _______ _______ _______ _____ _____    ______ ____
ROOT
ATOM      1  O   UNL     1     111.429 130.005 136.840  0.00  0.00    +0.000 OA
ENDROOT
BRANCH   1   5
ATOM      2  O   UNL     1     112.850 127.467 136.704  0.00  0.00    +0.000 OA
ATOM      3  O   UNL     1     113.869 129.750 135.257  0.00  0.00    +0.000 OA
ATOM      4  O   UNL     1     114.546 128.478 135.212  0.00  0.00    +0.000 OA
ATOM      5  C   UNL     1     112.058 129.551 136.559  0.00  0.00    +0.000 A 
ATOM      6  C   UNL     1     112.128 128.724 136.783  0.00  0.00    +0.000 A 
ATOM      7  C   UNL     1     112.646 129.902 136.042  0.00  0.00    +0.000 A 
ATOM      8  C   UNL     1     112.787 128.260 136.486  0.00  0.00    +0.000 A 
ATOM      9  C   UNL     1     113.353 128.597 135.988  0.00  0.00    +0.000 A 
ATOM     10  C   UNL     1     113.478 127.011 136.424  0.00  0.00    +0.000 C 
ATOM     11  C   UNL     1     113.298 129.422 135.755  0.00  0.00    +0.000 A 
ATOM     12  C   UNL     1     114.043 127.348 135.927  0.00  0.00    +0.000 C 
ATOM     13  C   UNL     1     113.981 128.141 135.709  0.00  0.00    +0.000 C 
BRANCH  10  15
ATOM     14  O   UNL     1     114.752 124.957 137.949  0.00  0.00    +0.000 OA
ATOM     15  C   UNL     1     113.541 126.217 136.642  0.00  0.00    +0.000 A 
ATOM     16  C   UNL     1     114.115 125.983 137.186  0.00  0.00    +0.000 A 
ATOM     17  C   UNL     1     113.030 125.658 136.315  0.00  0.00    +0.000 A 
ATOM     18  C   UNL     1     114.178 125.191 137.405  0.00  0.00    +0.000 A 
ATOM     19  C   UNL     1     113.092 124.865 136.533  0.00  0.00    +0.000 A 
ATOM     20  C   UNL     1     113.667 124.631 137.078  0.00  0.00    +0.000 A 
BRANCH  20  21
ATOM     21  O   UNL     1     113.730 123.838 137.296  0.00  0.00    +0.000 OA
ATOM     22  C   UNL     1     113.077 123.338 137.230  0.00  0.00    +0.000 C 
ENDBRANCH  20  21
ENDBRANCH  10  15
ENDBRANCH   1   5
BRANCH   1  29
ATOM     23  O   UNL     1     110.543 129.569 135.807  0.00  0.00    +0.000 OA
ATOM     24  O   UNL     1     108.605 130.010 137.283  0.00  0.00    +0.000 OA
ATOM     25  O   UNL     1     108.366 129.427 135.759  0.00  0.00    +0.000 OA
ATOM     26  C   UNL     1     110.017 130.008 137.062  0.00  0.00    +0.000 C 
ATOM     27  C   UNL     1     109.251 129.863 136.791  0.00  0.00    +0.000 C 
ATOM     28  C   UNL     1     109.131 129.572 136.029  0.00  0.00    +0.000 C 
ATOM     29  C   UNL     1     110.663 129.861 136.570  0.00  0.00    +0.000 C 
ATOM     30  C   UNL     1     109.777 129.425 135.537  0.00  0.00    +0.000 C 
BRANCH  30  32
ATOM     31  O   UNL     1     109.797 128.336 134.612  0.00  0.00    +0.000 OA
ATOM     32  C   UNL     1     109.658 129.133 134.775  0.00  0.00    +0.000 C 
ENDBRANCH  30  32
BRANCH  26  33
ATOM     33  O   UNL     1     110.137 130.299 137.824  0.00  0.00    +0.000 OA
BRANCH  33  38
ATOM     34  O   UNL     1     110.143 131.636 137.321  0.00  0.00    +0.000 OA
ATOM     35  O   UNL     1     110.153 130.881 139.368  0.00  0.00    +0.000 OA
ATOM     36  O   UNL     1     110.167 132.509 139.636  0.00  0.00    +0.000 OA
ATOM     37  O   UNL     1     110.164 133.555 138.361  0.00  0.00    +0.000 OA
ATOM     38  C   UNL     1     110.144 131.113 137.959  0.00  0.00    +0.000 C 
ATOM     39  C   UNL     1     110.152 131.404 138.730  0.00  0.00    +0.000 C 
ATOM     40  C   UNL     1     110.159 132.218 138.865  0.00  0.00    +0.000 C 
ATOM     41  C   UNL     1     110.158 132.741 138.227  0.00  0.00    +0.000 C 
ATOM     42  C   UNL     1     110.149 132.450 137.454  0.00  0.00    +0.000 C 
ATOM     43  C   UNL     1     110.148 132.974 136.817  0.00  0.00    +0.000 C 
ENDBRANCH  33  38
ENDBRANCH  26  33
ENDBRANCH   1  29
TORSDOF 7
ENDMDL
MODEL 8
REMARK VINA RESULT:     -10.0      1.964      2.803
REMARK  Name = 232990
REMARK  7 active torsions:
REMARK  status: ('A' for Active; 'I' for Inactive)
REMARK    1  A    between atoms: O_1  and  C_16
REMARK    2  A    between atoms: O_1  and  C_19
REMARK    3  A    between atoms: O_4  and  C_20
REMARK    4  A    between atoms: O_4  and  C_28
REMARK    5  A    between atoms: O_15  and  C_42
REMARK    6  A    between atoms: C_22  and  C_26
REMARK    7  A    between atoms: C_33  and  C_37
REMARK                            x       y       z     vdW  Elec       q    Type
REMARK                         _______ _______ _______ _____ _____    ______ ____
ROOT
ATOM      1  O   UNL     1     106.569 126.444 141.900  0.00  0.00    +0.000 OA
ENDROOT
BRANCH   1   5
ATOM      2  O   UNL     1     105.069 124.680 140.134  0.00  0.00    +0.000 OA
ATOM      3  O   UNL     1     107.487 123.719 141.390  0.00  0.00    +0.000 OA
ATOM      4  O   UNL     1     106.719 122.873 140.510  0.00  0.00    +0.000 OA
ATOM      5  C   UNL     1     106.475 125.712 141.530  0.00  0.00    +0.000 A 
ATOM      6  C   UNL     1     105.804 125.573 141.011  0.00  0.00    +0.000 A 
ATOM      7  C   UNL     1     107.048 125.086 141.660  0.00  0.00    +0.000 A 
ATOM      8  C   UNL     1     105.715 124.808 140.631  0.00  0.00    +0.000 A 
ATOM      9  C   UNL     1     106.265 124.205 140.756  0.00  0.00    +0.000 A 
ATOM     10  C   UNL     1     104.973 123.949 139.763  0.00  0.00    +0.000 C 
ATOM     11  C   UNL     1     106.942 124.327 141.271  0.00  0.00    +0.000 A 
ATOM     12  C   UNL     1     105.523 123.347 139.888  0.00  0.00    +0.000 C 
ATOM     13  C   UNL     1     106.169 123.475 140.385  0.00  0.00    +0.000 C 
BRANCH  10  15
ATOM     14  O   UNL     1     102.225 123.246 139.408  0.00  0.00    +0.000 OA
ATOM     15  C   UNL     1     104.326 123.821 139.266  0.00  0.00    +0.000 A 
ATOM     16  C   UNL     1     103.599 123.597 139.585  0.00  0.00    +0.000 A 
ATOM     17  C   UNL     1     104.408 123.916 138.451  0.00  0.00    +0.000 A 
ATOM     18  C   UNL     1     102.953 123.469 139.089  0.00  0.00    +0.000 A 
ATOM     19  C   UNL     1     103.762 123.787 137.954  0.00  0.00    +0.000 A 
ATOM     20  C   UNL     1     103.034 123.564 138.274  0.00  0.00    +0.000 A 
BRANCH  20  21
ATOM     21  O   UNL     1     102.388 123.435 137.777  0.00  0.00    +0.000 OA
ATOM     22  C   UNL     1     102.507 123.287 136.974  0.00  0.00    +0.000 C 
ENDBRANCH  20  21
ENDBRANCH  10  15
ENDBRANCH   1   5
BRANCH   1  29
ATOM     23  O   UNL     1     106.249 125.995 143.218  0.00  0.00    +0.000 OA
ATOM     24  O   UNL     1     105.144 128.160 143.686  0.00  0.00    +0.000 OA
ATOM     25  O   UNL     1     105.193 126.991 144.848  0.00  0.00    +0.000 OA
ATOM     26  C   UNL     1     105.857 127.303 142.793  0.00  0.00    +0.000 C 
ATOM     27  C   UNL     1     105.513 127.439 143.530  0.00  0.00    +0.000 C 
ATOM     28  C   UNL     1     105.537 126.854 144.111  0.00  0.00    +0.000 C 
ATOM     29  C   UNL     1     106.225 126.581 142.637  0.00  0.00    +0.000 C 
ATOM     30  C   UNL     1     105.905 126.133 143.955  0.00  0.00    +0.000 C 
BRANCH  30  32
ATOM     31  O   UNL     1     106.653 125.320 144.862  0.00  0.00    +0.000 OA
ATOM     32  C   UNL     1     105.929 125.548 144.536  0.00  0.00    +0.000 C 
ENDBRANCH  30  32
BRANCH  26  33
ATOM     33  O   UNL     1     105.832 127.887 142.212  0.00  0.00    +0.000 OA
BRANCH  33  38
ATOM     34  O   UNL     1     107.074 128.426 142.668  0.00  0.00    +0.000 OA
ATOM     35  O   UNL     1     105.572 129.248 141.315  0.00  0.00    +0.000 OA
ATOM     36  O   UNL     1     106.684 130.467 141.325  0.00  0.00    +0.000 OA
ATOM     37  O   UNL     1     108.056 130.325 142.230  0.00  0.00    +0.000 OA
ATOM     38  C   UNL     1     106.388 128.497 142.216  0.00  0.00    +0.000 C 
ATOM     39  C   UNL     1     106.258 129.177 141.768  0.00  0.00    +0.000 C 
ATOM     40  C   UNL     1     106.814 129.787 141.772  0.00  0.00    +0.000 C 
ATOM     41  C   UNL     1     107.500 129.716 142.225  0.00  0.00    +0.000 C 
ATOM     42  C   UNL     1     107.630 129.035 142.673  0.00  0.00    +0.000 C 
ATOM     43  C   UNL     1     108.316 128.965 143.126  0.00  0.00    +0.000 C 
ENDBRANCH  33  38
ENDBRANCH  26  33
ENDBRANCH   1  29
TORSDOF 7
ENDMDL
MODEL 9
REMARK VINA RESULT:      -9.9      6.776      8.504
REMARK  Name = 232990
REMARK  7 active torsions:
REMARK  status: ('A' for Active; 'I' for Inactive)
REMARK    1  A    between atoms: O_1  and  C_16
REMARK    2  A    between atoms: O_1  and  C_19
REMARK    3  A    between atoms: O_4  and  C_20
REMARK    4  A    between atoms: O_4  and  C_28
REMARK    5  A    between atoms: O_15  and  C_42
REMARK    6  A    between atoms: C_22  and  C_26
REMARK    7  A    between atoms: C_33  and  C_37
REMARK                            x       y       z     vdW  Elec       q    Type
REMARK                         _______ _______ _______ _____ _____    ______ ____
ROOT
ATOM      1  O   UNL     1     111.954 129.987 137.647  0.00  0.00    +0.000 OA
ENDROOT
BRANCH   1   5
ATOM      2  O   UNL     1     112.837 127.289 136.997  0.00  0.00    +0.000 OA
ATOM      3  O   UNL     1     114.168 129.553 135.794  0.00  0.00    +0.000 OA
ATOM      4  O   UNL     1     114.579 128.203 135.495  0.00  0.00    +0.000 OA
ATOM      5  C   UNL     1     112.459 129.478 137.239  0.00  0.00    +0.000 A 
ATOM      6  C   UNL     1     112.383 128.627 137.333  0.00  0.00    +0.000 A 
ATOM      7  C   UNL     1     113.063 129.795 136.718  0.00  0.00    +0.000 A 
ATOM      8  C   UNL     1     112.913 128.105 136.903  0.00  0.00    +0.000 A 
ATOM      9  C   UNL     1     113.495 128.409 136.402  0.00  0.00    +0.000 A 
ATOM     10  C   UNL     1     113.340 126.778 136.590  0.00  0.00    +0.000 C 
ATOM     11  C   UNL     1     113.584 129.258 136.297  0.00  0.00    +0.000 A 
ATOM     12  C   UNL     1     113.921 127.083 136.089  0.00  0.00    +0.000 C 
ATOM     13  C   UNL     1     113.998 127.898 135.995  0.00  0.00    +0.000 C 
BRANCH  10  15
ATOM     14  O   UNL     1     114.414 124.274 137.452  0.00  0.00    +0.000 OA
ATOM     15  C   UNL     1     113.263 125.962 136.683  0.00  0.00    +0.000 A 
ATOM     16  C   UNL     1     113.877 125.525 137.021  0.00  0.00    +0.000 A 
ATOM     17  C   UNL     1     112.573 125.582 136.439  0.00  0.00    +0.000 A 
ATOM     18  C   UNL     1     113.801 124.710 137.115  0.00  0.00    +0.000 A 
ATOM     19  C   UNL     1     112.496 124.765 136.533  0.00  0.00    +0.000 A 
ATOM     20  C   UNL     1     113.110 124.330 136.871  0.00  0.00    +0.000 A 
BRANCH  20  21
ATOM     21  O   UNL     1     113.033 123.514 136.964  0.00  0.00    +0.000 OA
ATOM     22  C   UNL     1     112.287 123.163 136.937  0.00  0.00    +0.000 C 
ENDBRANCH  20  21
ENDBRANCH  10  15
ENDBRANCH   1   5
BRANCH   1  29
ATOM     23  O   UNL     1     112.812 130.206 138.768  0.00  0.00    +0.000 OA
ATOM     24  O   UNL     1     110.843 130.264 140.265  0.00  0.00    +0.000 OA
ATOM     25  O   UNL     1     112.357 130.464 140.887  0.00  0.00    +0.000 OA
ATOM     26  C   UNL     1     111.397 130.126 138.956  0.00  0.00    +0.000 C 
ATOM     27  C   UNL     1     111.499 130.245 139.766  0.00  0.00    +0.000 C 
ATOM     28  C   UNL     1     112.256 130.345 140.077  0.00  0.00    +0.000 C 
ATOM     29  C   UNL     1     112.054 130.106 138.457  0.00  0.00    +0.000 C 
ATOM     30  C   UNL     1     112.913 130.326 139.578  0.00  0.00    +0.000 C 
BRANCH  30  32
ATOM     31  O   UNL     1     114.177 130.992 139.565  0.00  0.00    +0.000 OA
ATOM     32  C   UNL     1     113.670 130.425 139.888  0.00  0.00    +0.000 C 
ENDBRANCH  30  32
BRANCH  26  33
ATOM     33  O   UNL     1     110.641 130.026 138.645  0.00  0.00    +0.000 OA
BRANCH  33  38
ATOM     34  O   UNL     1     110.524 131.425 138.382  0.00  0.00    +0.000 OA
ATOM     35  O   UNL     1     109.006 129.861 138.491  0.00  0.00    +0.000 OA
ATOM     36  O   UNL     1     108.073 131.179 138.150  0.00  0.00    +0.000 OA
ATOM     37  O   UNL     1     108.774 132.661 137.964  0.00  0.00    +0.000 OA
ATOM     38  C   UNL     1     110.173 130.684 138.475  0.00  0.00    +0.000 C 
ATOM     39  C   UNL     1     109.357 130.602 138.398  0.00  0.00    +0.000 C 
ATOM     40  C   UNL     1     108.890 131.261 138.227  0.00  0.00    +0.000 C 
ATOM     41  C   UNL     1     109.240 132.002 138.134  0.00  0.00    +0.000 C 
ATOM     42  C   UNL     1     110.058 132.084 138.211  0.00  0.00    +0.000 C 
ATOM     43  C   UNL     1     110.409 132.825 138.118  0.00  0.00    +0.000 C 
ENDBRANCH  33  38
ENDBRANCH  26  33
ENDBRANCH   1  29
TORSDOF 7
ENDMDL
MODEL 10
REMARK VINA RESULT:      -9.9      0.949      2.503
REMARK  Name = 232990
REMARK  7 active torsions:
REMARK  status: ('A' for Active; 'I' for Inactive)
REMARK    1  A    between atoms: O_1  and  C_16
REMARK    2  A    between atoms: O_1  and  C_19
REMARK    3  A    between atoms: O_4  and  C_20
REMARK    4  A    between atoms: O_4  and  C_28
REMARK    5  A    between atoms: O_15  and  C_42
REMARK    6  A    between atoms: C_22  and  C_26
REMARK    7  A    between atoms: C_33  and  C_37
REMARK                            x       y       z     vdW  Elec       q    Type
REMARK                         _______ _______ _______ _____ _____    ______ ____
ROOT
ATOM      1  O   UNL     1     106.435 126.224 141.273  0.00  0.00    +0.000 OA
ENDROOT
BRANCH   1   5
ATOM      2  O   UNL     1     104.735 124.547 139.606  0.00  0.00    +0.000 OA
ATOM      3  O   UNL     1     105.665 123.549 142.153  0.00  0.00    +0.000 OA
ATOM      4  O   UNL     1     104.821 122.746 141.302  0.00  0.00    +0.000 OA
ATOM      5  C   UNL     1     106.033 125.515 141.146  0.00  0.00    +0.000 A 
ATOM      6  C   UNL     1     105.582 125.397 140.424  0.00  0.00    +0.000 A 
ATOM      7  C   UNL     1     106.064 124.890 141.734  0.00  0.00    +0.000 A 
ATOM      8  C   UNL     1     105.167 124.655 140.301  0.00  0.00    +0.000 A 
ATOM      9  C   UNL     1     105.195 124.054 140.866  0.00  0.00    +0.000 A 
ATOM     10  C   UNL     1     104.332 123.839 139.477  0.00  0.00    +0.000 C 
ATOM     11  C   UNL     1     105.642 124.155 141.594  0.00  0.00    +0.000 A 
ATOM     12  C   UNL     1     104.361 123.239 140.042  0.00  0.00    +0.000 C 
ATOM     13  C   UNL     1     104.792 123.346 140.737  0.00  0.00    +0.000 C 
BRANCH  10  15
ATOM     14  O   UNL     1     101.836 123.870 138.085  0.00  0.00    +0.000 OA
ATOM     15  C   UNL     1     103.900 123.731 138.782  0.00  0.00    +0.000 A 
ATOM     16  C   UNL     1     103.084 123.854 138.780  0.00  0.00    +0.000 A 
ATOM     17  C   UNL     1     104.284 123.500 138.090  0.00  0.00    +0.000 A 
ATOM     18  C   UNL     1     102.652 123.747 138.087  0.00  0.00    +0.000 A 
ATOM     19  C   UNL     1     103.852 123.392 137.395  0.00  0.00    +0.000 A 
ATOM     20  C   UNL     1     103.036 123.515 137.394  0.00  0.00    +0.000 A 
BRANCH  20  21
ATOM     21  O   UNL     1     102.604 123.407 136.699  0.00  0.00    +0.000 OA
ATOM     22  C   UNL     1     102.959 123.059 136.041  0.00  0.00    +0.000 C 
ENDBRANCH  20  21
ENDBRANCH  10  15
ENDBRANCH   1   5
BRANCH   1  29
ATOM     23  O   UNL     1     107.601 125.983 140.482  0.00  0.00    +0.000 OA
ATOM     24  O   UNL     1     109.019 126.901 142.291  0.00  0.00    +0.000 OA
ATOM     25  O   UNL     1     109.711 126.355 140.897  0.00  0.00    +0.000 OA
ATOM     26  C   UNL     1     107.727 126.563 141.782  0.00  0.00    +0.000 C 
ATOM     27  C   UNL     1     108.546 126.595 141.688  0.00  0.00    +0.000 C 
ATOM     28  C   UNL     1     108.892 126.322 140.991  0.00  0.00    +0.000 C 
ATOM     29  C   UNL     1     107.254 126.257 141.179  0.00  0.00    +0.000 C 
ATOM     30  C   UNL     1     108.420 126.016 140.388  0.00  0.00    +0.000 C 
BRANCH  30  32
ATOM     31  O   UNL     1     108.597 126.115 138.974  0.00  0.00    +0.000 OA
ATOM     32  C   UNL     1     108.765 125.743 139.691  0.00  0.00    +0.000 C 
ENDBRANCH  30  32
BRANCH  26  33
ATOM     33  O   UNL     1     107.381 126.836 142.479  0.00  0.00    +0.000 OA
BRANCH  33  38
ATOM     34  O   UNL     1     107.290 128.162 141.955  0.00  0.00    +0.000 OA
ATOM     35  O   UNL     1     107.139 127.422 144.002  0.00  0.00    +0.000 OA
ATOM     36  O   UNL     1     106.927 129.042 144.239  0.00  0.00    +0.000 OA
ATOM     37  O   UNL     1     106.958 130.074 142.953  0.00  0.00    +0.000 OA
ATOM     38  C   UNL     1     107.275 127.646 142.598  0.00  0.00    +0.000 C 
ATOM     39  C   UNL     1     107.154 127.939 143.359  0.00  0.00    +0.000 C 
ATOM     40  C   UNL     1     107.048 128.748 143.478  0.00  0.00    +0.000 C 
ATOM     41  C   UNL     1     107.063 129.265 142.835  0.00  0.00    +0.000 C 
ATOM     42  C   UNL     1     107.184 128.972 142.072  0.00  0.00    +0.000 C 
ATOM     43  C   UNL     1     107.200 129.488 141.429  0.00  0.00    +0.000 C 
ENDBRANCH  33  38
ENDBRANCH  26  33
ENDBRANCH   1  29
TORSDOF 7
ENDMDL
