MODEL 1
REMARK VINA RESULT:      -9.4      0.000      0.000
REMARK  Name = 
REMARK  5 active torsions:
REMARK  status: ('A' for Active; 'I' for Inactive)
REMARK    1  A    between atoms: C_1  and  O_19
REMARK    2  A    between atoms: C_8  and  O_21
REMARK    3  A    between atoms: C_9  and  C_11
REMARK    4  A    between atoms: O_19  and  C_26
REMARK    5  A    between atoms: O_21  and  C_36
REMARK                            x       y       z     vdW  Elec       q    Type
REMARK                         _______ _______ _______ _____ _____    ______ ____
ROOT
ATOM      1  C   UNL     1     111.799 130.446 143.389  0.00  0.00    +0.000 A 
ATOM      2  C   UNL     1     111.606 129.470 143.509  0.00  0.00    +0.000 A 
ATOM      3  C   UNL     1     111.696 128.843 142.735  0.00  0.00    +0.000 A 
ATOM      4  C   UNL     1     112.082 130.795 142.497  0.00  0.00    +0.000 A 
ATOM      5  C   UNL     1     112.173 130.173 141.723  0.00  0.00    +0.000 A 
ATOM      6  C   UNL     1     111.979 129.196 141.840  0.00  0.00    +0.000 A 
ATOM      7  C   UNL     1     112.070 128.573 141.067  0.00  0.00    +0.000 A 
ATOM      8  C   UNL     1     112.353 128.921 140.171  0.00  0.00    +0.000 A 
ATOM      9  C   UNL     1     112.546 129.898 140.053  0.00  0.00    +0.000 A 
ATOM     10  O   UNL     1     112.456 130.527 140.831  0.00  0.00    +0.000 OA
ATOM     11  O   UNL     1     111.877 127.599 141.186  0.00  0.00    +0.000 OA
ATOM     12  O   UNL     1     111.503 127.869 142.852  0.00  0.00    +0.000 OA
ENDROOT
BRANCH   9  13
ATOM     13  C   UNL     1     112.828 130.245 139.162  0.00  0.00    +0.000 A 
ATOM     14  C   UNL     1     112.164 130.693 138.561  0.00  0.00    +0.000 A 
ATOM     15  C   UNL     1     112.452 131.037 137.670  0.00  0.00    +0.000 A 
ATOM     16  C   UNL     1     113.404 130.935 137.378  0.00  0.00    +0.000 A 
ATOM     17  C   UNL     1     114.066 130.485 137.984  0.00  0.00    +0.000 A 
ATOM     18  C   UNL     1     113.775 130.142 138.873  0.00  0.00    +0.000 A 
ATOM     19  O   UNL     1     113.695 131.280 136.485  0.00  0.00    +0.000 OA
ENDBRANCH   9  13
BRANCH   1  20
ATOM     20  O   UNL     1     111.710 131.072 144.163  0.00  0.00    +0.000 OA
BRANCH  20  25
ATOM     21  C   UNL     1     112.210 132.323 146.441  0.00  0.00    +0.000 C 
ATOM     22  C   UNL     1     111.431 132.949 146.486  0.00  0.00    +0.000 C 
ATOM     23  C   UNL     1     110.751 132.947 145.758  0.00  0.00    +0.000 C 
ATOM     24  C   UNL     1     110.842 132.325 144.987  0.00  0.00    +0.000 C 
ATOM     25  C   UNL     1     111.621 131.698 144.942  0.00  0.00    +0.000 C 
ATOM     26  O   UNL     1     112.309 131.694 145.669  0.00  0.00    +0.000 OA
ATOM     27  O   UNL     1     110.156 132.325 144.257  0.00  0.00    +0.000 OA
ATOM     28  O   UNL     1     109.972 133.573 145.803  0.00  0.00    +0.000 OA
ATOM     29  O   UNL     1     111.336 133.576 147.260  0.00  0.00    +0.000 OA
ATOM     30  C   UNL     1     112.894 132.325 147.172  0.00  0.00    +0.000 C 
ENDBRANCH  20  25
ENDBRANCH   1  20
BRANCH   8  31
ATOM     31  O   UNL     1     112.443 128.297 139.399  0.00  0.00    +0.000 OA
BRANCH  31  36
ATOM     32  C   UNL     1     109.905 127.854 138.799  0.00  0.00    +0.000 C 
ATOM     33  C   UNL     1     109.991 127.066 138.188  0.00  0.00    +0.000 C 
ATOM     34  C   UNL     1     110.892 126.694 137.983  0.00  0.00    +0.000 C 
ATOM     35  C   UNL     1     111.707 127.101 138.384  0.00  0.00    +0.000 C 
ATOM     36  C   UNL     1     111.621 127.889 138.996  0.00  0.00    +0.000 C 
ATOM     37  O   UNL     1     110.719 128.269 139.207  0.00  0.00    +0.000 OA
ATOM     38  O   UNL     1     112.606 126.726 138.177  0.00  0.00    +0.000 OA
ATOM     39  O   UNL     1     110.978 125.906 137.372  0.00  0.00    +0.000 OA
ATOM     40  O   UNL     1     109.174 126.653 137.782  0.00  0.00    +0.000 OA
ENDBRANCH  31  36
ENDBRANCH   8  31
TORSDOF 5
ENDMDL
MODEL 2
REMARK VINA RESULT:      -9.2      4.051      7.018
REMARK  Name = 
REMARK  5 active torsions:
REMARK  status: ('A' for Active; 'I' for Inactive)
REMARK    1  A    between atoms: C_1  and  O_19
REMARK    2  A    between atoms: C_8  and  O_21
REMARK    3  A    between atoms: C_9  and  C_11
REMARK    4  A    between atoms: O_19  and  C_26
REMARK    5  A    between atoms: O_21  and  C_36
REMARK                            x       y       z     vdW  Elec       q    Type
REMARK                         _______ _______ _______ _____ _____    ______ ____
ROOT
ATOM      1  C   UNL     1     108.561 126.010 140.182  0.00  0.00    +0.000 A 
ATOM      2  C   UNL     1     108.665 126.803 140.786  0.00  0.00    +0.000 A 
ATOM      3  C   UNL     1     109.514 127.332 140.774  0.00  0.00    +0.000 A 
ATOM      4  C   UNL     1     109.302 125.746 139.568  0.00  0.00    +0.000 A 
ATOM      5  C   UNL     1     110.150 126.271 139.554  0.00  0.00    +0.000 A 
ATOM      6  C   UNL     1     110.258 127.065 140.157  0.00  0.00    +0.000 A 
ATOM      7  C   UNL     1     111.105 127.590 140.144  0.00  0.00    +0.000 A 
ATOM      8  C   UNL     1     111.851 127.327 139.529  0.00  0.00    +0.000 A 
ATOM      9  C   UNL     1     111.744 126.533 138.925  0.00  0.00    +0.000 A 
ATOM     10  O   UNL     1     110.891 126.002 138.937  0.00  0.00    +0.000 OA
ATOM     11  O   UNL     1     111.210 128.381 140.747  0.00  0.00    +0.000 OA
ATOM     12  O   UNL     1     109.621 128.123 141.376  0.00  0.00    +0.000 OA
ENDROOT
BRANCH   9  13
ATOM     13  C   UNL     1     112.486 126.271 138.314  0.00  0.00    +0.000 A 
ATOM     14  C   UNL     1     113.335 125.890 138.684  0.00  0.00    +0.000 A 
ATOM     15  C   UNL     1     114.074 125.629 138.065  0.00  0.00    +0.000 A 
ATOM     16  C   UNL     1     113.966 125.749 137.077  0.00  0.00    +0.000 A 
ATOM     17  C   UNL     1     113.113 126.131 136.712  0.00  0.00    +0.000 A 
ATOM     18  C   UNL     1     112.377 126.390 137.332  0.00  0.00    +0.000 A 
ATOM     19  O   UNL     1     114.706 125.488 136.457  0.00  0.00    +0.000 OA
ENDBRANCH   9  13
BRANCH   1  20
ATOM     20  O   UNL     1     107.712 125.482 140.193  0.00  0.00    +0.000 OA
BRANCH  20  25
ATOM     21  C   UNL     1     105.380 124.477 139.449  0.00  0.00    +0.000 C 
ATOM     22  C   UNL     1     105.170 123.889 140.232  0.00  0.00    +0.000 C 
ATOM     23  C   UNL     1     105.808 123.836 140.996  0.00  0.00    +0.000 C 
ATOM     24  C   UNL     1     106.652 124.364 140.985  0.00  0.00    +0.000 C 
ATOM     25  C   UNL     1     106.860 124.951 140.201  0.00  0.00    +0.000 C 
ATOM     26  O   UNL     1     106.225 125.011 139.430  0.00  0.00    +0.000 OA
ATOM     27  O   UNL     1     107.289 124.308 141.754  0.00  0.00    +0.000 OA
ATOM     28  O   UNL     1     105.598 123.249 141.778  0.00  0.00    +0.000 OA
ATOM     29  O   UNL     1     104.323 123.357 140.248  0.00  0.00    +0.000 OA
ATOM     30  C   UNL     1     104.739 124.530 138.682  0.00  0.00    +0.000 C 
ENDBRANCH  20  25
ENDBRANCH   1  20
BRANCH   8  31
ATOM     31  O   UNL     1     112.697 127.853 139.517  0.00  0.00    +0.000 OA
BRANCH  31  36
ATOM     32  C   UNL     1     111.995 129.947 138.061  0.00  0.00    +0.000 C 
ATOM     33  C   UNL     1     112.733 130.586 138.283  0.00  0.00    +0.000 C 
ATOM     34  C   UNL     1     113.454 130.311 138.913  0.00  0.00    +0.000 C 
ATOM     35  C   UNL     1     113.444 129.405 139.324  0.00  0.00    +0.000 C 
ATOM     36  C   UNL     1     112.706 128.765 139.103  0.00  0.00    +0.000 C 
ATOM     37  O   UNL     1     111.977 129.034 138.470  0.00  0.00    +0.000 OA
ATOM     38  O   UNL     1     114.166 129.134 139.954  0.00  0.00    +0.000 OA
ATOM     39  O   UNL     1     114.191 130.951 139.135  0.00  0.00    +0.000 OA
ATOM     40  O   UNL     1     112.747 131.499 137.873  0.00  0.00    +0.000 OA
ENDBRANCH  31  36
ENDBRANCH   8  31
TORSDOF 5
ENDMDL
MODEL 3
REMARK VINA RESULT:      -9.1      1.861      2.790
REMARK  Name = 
REMARK  5 active torsions:
REMARK  status: ('A' for Active; 'I' for Inactive)
REMARK    1  A    between atoms: C_1  and  O_19
REMARK    2  A    between atoms: C_8  and  O_21
REMARK    3  A    between atoms: C_9  and  C_11
REMARK    4  A    between atoms: O_19  and  C_26
REMARK    5  A    between atoms: O_21  and  C_36
REMARK                            x       y       z     vdW  Elec       q    Type
REMARK                         _______ _______ _______ _____ _____    ______ ____
ROOT
ATOM      1  C   UNL     1     111.829 129.194 141.817  0.00  0.00    +0.000 A 
ATOM      2  C   UNL     1     111.783 128.229 142.087  0.00  0.00    +0.000 A 
ATOM      3  C   UNL     1     111.757 127.516 141.386  0.00  0.00    +0.000 A 
ATOM      4  C   UNL     1     111.849 129.445 140.851  0.00  0.00    +0.000 A 
ATOM      5  C   UNL     1     111.823 128.736 140.150  0.00  0.00    +0.000 A 
ATOM      6  C   UNL     1     111.777 127.770 140.417  0.00  0.00    +0.000 A 
ATOM      7  C   UNL     1     111.751 127.060 139.717  0.00  0.00    +0.000 A 
ATOM      8  C   UNL     1     111.771 127.309 138.746  0.00  0.00    +0.000 A 
ATOM      9  C   UNL     1     111.817 128.275 138.479  0.00  0.00    +0.000 A 
ATOM     10  O   UNL     1     111.843 128.991 139.183  0.00  0.00    +0.000 OA
ATOM     11  O   UNL     1     111.705 126.097 139.985  0.00  0.00    +0.000 OA
ATOM     12  O   UNL     1     111.711 126.553 141.653  0.00  0.00    +0.000 OA
ENDROOT
BRANCH   9  13
ATOM     13  C   UNL     1     111.836 128.523 137.514  0.00  0.00    +0.000 A 
ATOM     14  C   UNL     1     111.005 128.455 136.959  0.00  0.00    +0.000 A 
ATOM     15  C   UNL     1     111.032 128.705 135.993  0.00  0.00    +0.000 A 
ATOM     16  C   UNL     1     111.887 129.022 135.580  0.00  0.00    +0.000 A 
ATOM     17  C   UNL     1     112.717 129.088 136.142  0.00  0.00    +0.000 A 
ATOM     18  C   UNL     1     112.687 128.837 137.106  0.00  0.00    +0.000 A 
ATOM     19  O   UNL     1     111.915 129.273 134.612  0.00  0.00    +0.000 OA
ENDBRANCH   9  13
BRANCH   1  20
ATOM     20  O   UNL     1     111.855 129.908 142.517  0.00  0.00    +0.000 OA
BRANCH  20  25
ATOM     21  C   UNL     1     111.933 131.088 144.884  0.00  0.00    +0.000 C 
ATOM     22  C   UNL     1     111.936 132.051 144.613  0.00  0.00    +0.000 C 
ATOM     23  C   UNL     1     111.912 132.294 143.648  0.00  0.00    +0.000 C 
ATOM     24  C   UNL     1     111.886 131.584 142.951  0.00  0.00    +0.000 C 
ATOM     25  C   UNL     1     111.883 130.621 143.222  0.00  0.00    +0.000 C 
ATOM     26  O   UNL     1     111.906 130.368 144.191  0.00  0.00    +0.000 OA
ATOM     27  O   UNL     1     111.862 131.833 141.981  0.00  0.00    +0.000 OA
ATOM     28  O   UNL     1     111.916 133.258 143.377  0.00  0.00    +0.000 OA
ATOM     29  O   UNL     1     111.963 132.769 145.310  0.00  0.00    +0.000 OA
ATOM     30  C   UNL     1     111.957 130.844 145.855  0.00  0.00    +0.000 C 
ENDBRANCH  20  25
ENDBRANCH   1  20
BRANCH   8  31
ATOM     31  O   UNL     1     111.745 126.598 138.048  0.00  0.00    +0.000 OA
BRANCH  31  36
ATOM     32  C   UNL     1     114.242 125.728 138.124  0.00  0.00    +0.000 C 
ATOM     33  C   UNL     1     114.172 124.908 137.554  0.00  0.00    +0.000 C 
ATOM     34  C   UNL     1     113.296 124.656 137.153  0.00  0.00    +0.000 C 
ATOM     35  C   UNL     1     112.489 125.216 137.316  0.00  0.00    +0.000 C 
ATOM     36  C   UNL     1     112.558 126.036 137.885  0.00  0.00    +0.000 C 
ATOM     37  O   UNL     1     113.435 126.296 138.293  0.00  0.00    +0.000 OA
ATOM     38  O   UNL     1     111.615 124.961 136.912  0.00  0.00    +0.000 OA
ATOM     39  O   UNL     1     113.227 123.836 136.583  0.00  0.00    +0.000 OA
ATOM     40  O   UNL     1     114.981 124.342 137.387  0.00  0.00    +0.000 OA
ENDBRANCH  31  36
ENDBRANCH   8  31
TORSDOF 5
ENDMDL
MODEL 4
REMARK VINA RESULT:      -9.1      4.470      8.304
REMARK  Name = 
REMARK  5 active torsions:
REMARK  status: ('A' for Active; 'I' for Inactive)
REMARK    1  A    between atoms: C_1  and  O_19
REMARK    2  A    between atoms: C_8  and  O_21
REMARK    3  A    between atoms: C_9  and  C_11
REMARK    4  A    between atoms: O_19  and  C_26
REMARK    5  A    between atoms: O_21  and  C_36
REMARK                            x       y       z     vdW  Elec       q    Type
REMARK                         _______ _______ _______ _____ _____    ______ ____
ROOT
ATOM      1  C   UNL     1     110.690 126.445 139.645  0.00  0.00    +0.000 A 
ATOM      2  C   UNL     1     110.777 126.973 140.493  0.00  0.00    +0.000 A 
ATOM      3  C   UNL     1     110.041 126.953 141.171  0.00  0.00    +0.000 A 
ATOM      4  C   UNL     1     109.872 125.900 139.475  0.00  0.00    +0.000 A 
ATOM      5  C   UNL     1     109.136 125.878 140.149  0.00  0.00    +0.000 A 
ATOM      6  C   UNL     1     109.220 126.404 140.998  0.00  0.00    +0.000 A 
ATOM      7  C   UNL     1     108.486 126.383 141.673  0.00  0.00    +0.000 A 
ATOM      8  C   UNL     1     107.663 125.836 141.504  0.00  0.00    +0.000 A 
ATOM      9  C   UNL     1     107.579 125.309 140.655  0.00  0.00    +0.000 A 
ATOM     10  O   UNL     1     108.318 125.330 139.974  0.00  0.00    +0.000 OA
ATOM     11  O   UNL     1     108.572 126.909 142.519  0.00  0.00    +0.000 OA
ATOM     12  O   UNL     1     110.125 127.478 142.018  0.00  0.00    +0.000 OA
ENDROOT
BRANCH   9  13
ATOM     13  C   UNL     1     106.761 124.766 140.487  0.00  0.00    +0.000 A 
ATOM     14  C   UNL     1     106.080 125.071 139.818  0.00  0.00    +0.000 A 
ATOM     15  C   UNL     1     105.263 124.521 139.655  0.00  0.00    +0.000 A 
ATOM     16  C   UNL     1     105.125 123.667 140.159  0.00  0.00    +0.000 A 
ATOM     17  C   UNL     1     105.810 123.366 140.828  0.00  0.00    +0.000 A 
ATOM     18  C   UNL     1     106.625 123.917 140.988  0.00  0.00    +0.000 A 
ATOM     19  O   UNL     1     104.306 123.116 139.996  0.00  0.00    +0.000 OA
ENDBRANCH   9  13
BRANCH   1  20
ATOM     20  O   UNL     1     111.425 126.465 138.967  0.00  0.00    +0.000 OA
BRANCH  20  25
ATOM     21  C   UNL     1     113.639 125.843 137.658  0.00  0.00    +0.000 C 
ATOM     22  C   UNL     1     113.623 126.527 136.928  0.00  0.00    +0.000 C 
ATOM     23  C   UNL     1     112.876 127.185 136.881  0.00  0.00    +0.000 C 
ATOM     24  C   UNL     1     112.146 127.166 137.557  0.00  0.00    +0.000 C 
ATOM     25  C   UNL     1     112.163 126.481 138.287  0.00  0.00    +0.000 C 
ATOM     26  O   UNL     1     112.909 125.817 138.342  0.00  0.00    +0.000 OA
ATOM     27  O   UNL     1     111.397 127.828 137.506  0.00  0.00    +0.000 OA
ATOM     28  O   UNL     1     112.860 127.868 136.150  0.00  0.00    +0.000 OA
ATOM     29  O   UNL     1     114.355 126.550 136.246  0.00  0.00    +0.000 OA
ATOM     30  C   UNL     1     114.389 125.182 137.705  0.00  0.00    +0.000 C 
ENDBRANCH  20  25
ENDBRANCH   1  20
BRANCH   8  31
ATOM     31  O   UNL     1     106.931 125.816 142.179  0.00  0.00    +0.000 OA
BRANCH  31  36
ATOM     32  C   UNL     1     105.793 128.179 141.835  0.00  0.00    +0.000 C 
ATOM     33  C   UNL     1     105.334 128.298 142.716  0.00  0.00    +0.000 C 
ATOM     34  C   UNL     1     105.410 127.589 143.413  0.00  0.00    +0.000 C 
ATOM     35  C   UNL     1     105.939 126.766 143.237  0.00  0.00    +0.000 C 
ATOM     36  C   UNL     1     106.398 126.647 142.355  0.00  0.00    +0.000 C 
ATOM     37  O   UNL     1     106.327 127.354 141.649  0.00  0.00    +0.000 OA
ATOM     38  O   UNL     1     106.013 126.060 143.936  0.00  0.00    +0.000 OA
ATOM     39  O   UNL     1     104.951 127.708 144.295  0.00  0.00    +0.000 OA
ATOM     40  O   UNL     1     104.801 129.125 142.898  0.00  0.00    +0.000 OA
ENDBRANCH  31  36
ENDBRANCH   8  31
TORSDOF 5
ENDMDL
MODEL 5
REMARK VINA RESULT:      -9.1      1.880      2.988
REMARK  Name = 
REMARK  5 active torsions:
REMARK  status: ('A' for Active; 'I' for Inactive)
REMARK    1  A    between atoms: C_1  and  O_19
REMARK    2  A    between atoms: C_8  and  O_21
REMARK    3  A    between atoms: C_9  and  C_11
REMARK    4  A    between atoms: O_19  and  C_26
REMARK    5  A    between atoms: O_21  and  C_36
REMARK                            x       y       z     vdW  Elec       q    Type
REMARK                         _______ _______ _______ _____ _____    ______ ____
ROOT
ATOM      1  C   UNL     1     110.928 129.660 140.854  0.00  0.00    +0.000 A 
ATOM      2  C   UNL     1     110.067 129.174 140.689  0.00  0.00    +0.000 A 
ATOM      3  C   UNL     1     109.879 128.783 139.788  0.00  0.00    +0.000 A 
ATOM      4  C   UNL     1     111.599 129.755 140.122  0.00  0.00    +0.000 A 
ATOM      5  C   UNL     1     111.416 129.366 139.222  0.00  0.00    +0.000 A 
ATOM      6  C   UNL     1     110.555 128.879 139.053  0.00  0.00    +0.000 A 
ATOM      7  C   UNL     1     110.370 128.489 138.154  0.00  0.00    +0.000 A 
ATOM      8  C   UNL     1     111.043 128.583 137.417  0.00  0.00    +0.000 A 
ATOM      9  C   UNL     1     111.903 129.070 137.585  0.00  0.00    +0.000 A 
ATOM     10  O   UNL     1     112.091 129.463 138.490  0.00  0.00    +0.000 OA
ATOM     11  O   UNL     1     109.512 128.004 137.988  0.00  0.00    +0.000 OA
ATOM     12  O   UNL     1     109.022 128.297 139.620  0.00  0.00    +0.000 OA
ENDROOT
BRANCH   9  13
ATOM     13  C   UNL     1     112.572 129.164 136.852  0.00  0.00    +0.000 A 
ATOM     14  C   UNL     1     112.401 129.790 136.089  0.00  0.00    +0.000 A 
ATOM     15  C   UNL     1     113.075 129.879 135.358  0.00  0.00    +0.000 A 
ATOM     16  C   UNL     1     113.920 129.344 135.388  0.00  0.00    +0.000 A 
ATOM     17  C   UNL     1     114.087 128.718 136.156  0.00  0.00    +0.000 A 
ATOM     18  C   UNL     1     113.412 128.631 136.884  0.00  0.00    +0.000 A 
ATOM     19  O   UNL     1     114.597 129.432 134.657  0.00  0.00    +0.000 OA
ENDBRANCH   9  13
BRANCH   1  20
ATOM     20  O   UNL     1     111.115 130.051 141.755  0.00  0.00    +0.000 OA
BRANCH  20  25
ATOM     21  C   UNL     1     111.626 130.239 144.345  0.00  0.00    +0.000 C 
ATOM     22  C   UNL     1     111.684 131.232 144.453  0.00  0.00    +0.000 C 
ATOM     23  C   UNL     1     111.552 131.825 143.664  0.00  0.00    +0.000 C 
ATOM     24  C   UNL     1     111.363 131.435 142.767  0.00  0.00    +0.000 C 
ATOM     25  C   UNL     1     111.306 130.441 142.660  0.00  0.00    +0.000 C 
ATOM     26  O   UNL     1     111.437 129.838 143.448  0.00  0.00    +0.000 OA
ATOM     27  O   UNL     1     111.232 132.034 141.976  0.00  0.00    +0.000 OA
ATOM     28  O   UNL     1     111.610 132.818 143.772  0.00  0.00    +0.000 OA
ATOM     29  O   UNL     1     111.873 131.629 145.352  0.00  0.00    +0.000 OA
ATOM     30  C   UNL     1     111.758 129.643 145.138  0.00  0.00    +0.000 C 
ENDBRANCH  20  25
ENDBRANCH   1  20
BRANCH   8  31
ATOM     31  O   UNL     1     110.857 128.194 136.519  0.00  0.00    +0.000 OA
BRANCH  31  36
ATOM     32  C   UNL     1     111.439 125.647 136.936  0.00  0.00    +0.000 C 
ATOM     33  C   UNL     1     111.050 125.228 136.115  0.00  0.00    +0.000 C 
ATOM     34  C   UNL     1     110.599 125.799 135.433  0.00  0.00    +0.000 C 
ATOM     35  C   UNL     1     110.534 126.783 135.566  0.00  0.00    +0.000 C 
ATOM     36  C   UNL     1     110.923 127.203 136.387  0.00  0.00    +0.000 C 
ATOM     37  O   UNL     1     111.378 126.636 137.077  0.00  0.00    +0.000 OA
ATOM     38  O   UNL     1     110.082 127.350 134.882  0.00  0.00    +0.000 OA
ATOM     39  O   UNL     1     110.210 125.380 134.612  0.00  0.00    +0.000 OA
ATOM     40  O   UNL     1     111.113 124.239 135.977  0.00  0.00    +0.000 OA
ENDBRANCH  31  36
ENDBRANCH   8  31
TORSDOF 5
ENDMDL
MODEL 6
REMARK VINA RESULT:      -9.0      1.832      2.692
REMARK  Name = 
REMARK  5 active torsions:
REMARK  status: ('A' for Active; 'I' for Inactive)
REMARK    1  A    between atoms: C_1  and  O_19
REMARK    2  A    between atoms: C_8  and  O_21
REMARK    3  A    between atoms: C_9  and  C_11
REMARK    4  A    between atoms: O_19  and  C_26
REMARK    5  A    between atoms: O_21  and  C_36
REMARK                            x       y       z     vdW  Elec       q    Type
REMARK                         _______ _______ _______ _____ _____    ______ ____
ROOT
ATOM      1  C   UNL     1     112.318 129.725 141.568  0.00  0.00    +0.000 A 
ATOM      2  C   UNL     1     112.949 128.958 141.702  0.00  0.00    +0.000 A 
ATOM      3  C   UNL     1     113.190 128.368 140.932  0.00  0.00    +0.000 A 
ATOM      4  C   UNL     1     111.928 129.902 140.666  0.00  0.00    +0.000 A 
ATOM      5  C   UNL     1     112.165 129.315 139.895  0.00  0.00    +0.000 A 
ATOM      6  C   UNL     1     112.797 128.547 140.027  0.00  0.00    +0.000 A 
ATOM      7  C   UNL     1     113.035 127.959 139.257  0.00  0.00    +0.000 A 
ATOM      8  C   UNL     1     112.645 128.134 138.351  0.00  0.00    +0.000 A 
ATOM      9  C   UNL     1     112.013 128.902 138.219  0.00  0.00    +0.000 A 
ATOM     10  O   UNL     1     111.772 129.495 138.993  0.00  0.00    +0.000 OA
ATOM     11  O   UNL     1     113.665 127.194 139.390  0.00  0.00    +0.000 OA
ATOM     12  O   UNL     1     113.819 127.602 141.063  0.00  0.00    +0.000 OA
ENDROOT
BRANCH   9  13
ATOM     13  C   UNL     1     111.625 129.077 137.318  0.00  0.00    +0.000 A 
ATOM     14  C   UNL     1     112.195 129.458 136.587  0.00  0.00    +0.000 A 
ATOM     15  C   UNL     1     111.800 129.630 135.687  0.00  0.00    +0.000 A 
ATOM     16  C   UNL     1     110.836 129.422 135.514  0.00  0.00    +0.000 A 
ATOM     17  C   UNL     1     110.270 129.040 136.250  0.00  0.00    +0.000 A 
ATOM     18  C   UNL     1     110.667 128.869 137.148  0.00  0.00    +0.000 A 
ATOM     19  O   UNL     1     110.440 129.594 134.613  0.00  0.00    +0.000 OA
ENDBRANCH   9  13
BRANCH   1  20
ATOM     20  O   UNL     1     112.077 130.315 142.338  0.00  0.00    +0.000 OA
BRANCH  20  25
ATOM     21  C   UNL     1     110.859 131.237 144.499  0.00  0.00    +0.000 C 
ATOM     22  C   UNL     1     111.364 132.087 144.650  0.00  0.00    +0.000 C 
ATOM     23  C   UNL     1     112.102 132.342 144.032  0.00  0.00    +0.000 C 
ATOM     24  C   UNL     1     112.340 131.755 143.264  0.00  0.00    +0.000 C 
ATOM     25  C   UNL     1     111.835 130.905 143.113  0.00  0.00    +0.000 C 
ATOM     26  O   UNL     1     111.092 130.641 143.730  0.00  0.00    +0.000 OA
ATOM     27  O   UNL     1     113.082 132.015 142.645  0.00  0.00    +0.000 OA
ATOM     28  O   UNL     1     112.606 133.193 144.183  0.00  0.00    +0.000 OA
ATOM     29  O   UNL     1     111.128 132.680 145.421  0.00  0.00    +0.000 OA
ATOM     30  C   UNL     1     110.117 130.980 145.121  0.00  0.00    +0.000 C 
ENDBRANCH  20  25
ENDBRANCH   1  20
BRANCH   8  31
ATOM     31  O   UNL     1     112.884 127.547 137.582  0.00  0.00    +0.000 OA
BRANCH  31  36
ATOM     32  C   UNL     1     111.437 125.389 138.083  0.00  0.00    +0.000 C 
ATOM     33  C   UNL     1     111.909 124.711 137.519  0.00  0.00    +0.000 C 
ATOM     34  C   UNL     1     112.703 124.981 136.980  0.00  0.00    +0.000 C 
ATOM     35  C   UNL     1     113.028 125.921 137.000  0.00  0.00    +0.000 C 
ATOM     36  C   UNL     1     112.556 126.600 137.564  0.00  0.00    +0.000 C 
ATOM     37  O   UNL     1     111.757 126.337 138.109  0.00  0.00    +0.000 OA
ATOM     38  O   UNL     1     113.821 126.186 136.459  0.00  0.00    +0.000 OA
ATOM     39  O   UNL     1     113.175 124.302 136.416  0.00  0.00    +0.000 OA
ATOM     40  O   UNL     1     111.586 123.764 137.496  0.00  0.00    +0.000 OA
ENDBRANCH  31  36
ENDBRANCH   8  31
TORSDOF 5
ENDMDL
MODEL 7
REMARK VINA RESULT:      -9.0      3.578      4.357
REMARK  Name = 
REMARK  5 active torsions:
REMARK  status: ('A' for Active; 'I' for Inactive)
REMARK    1  A    between atoms: C_1  and  O_19
REMARK    2  A    between atoms: C_8  and  O_21
REMARK    3  A    between atoms: C_9  and  C_11
REMARK    4  A    between atoms: O_19  and  C_26
REMARK    5  A    between atoms: O_21  and  C_36
REMARK                            x       y       z     vdW  Elec       q    Type
REMARK                         _______ _______ _______ _____ _____    ______ ____
ROOT
ATOM      1  C   UNL     1     109.074 128.525 140.693  0.00  0.00    +0.000 A 
ATOM      2  C   UNL     1     109.367 127.670 141.128  0.00  0.00    +0.000 A 
ATOM      3  C   UNL     1     110.143 127.161 140.756  0.00  0.00    +0.000 A 
ATOM      4  C   UNL     1     109.556 128.869 139.889  0.00  0.00    +0.000 A 
ATOM      5  C   UNL     1     110.330 128.363 139.515  0.00  0.00    +0.000 A 
ATOM      6  C   UNL     1     110.625 127.508 139.949  0.00  0.00    +0.000 A 
ATOM      7  C   UNL     1     111.399 127.001 139.576  0.00  0.00    +0.000 A 
ATOM      8  C   UNL     1     111.884 127.345 138.769  0.00  0.00    +0.000 A 
ATOM      9  C   UNL     1     111.589 128.200 138.336  0.00  0.00    +0.000 A 
ATOM     10  O   UNL     1     110.810 128.711 138.709  0.00  0.00    +0.000 OA
ATOM     11  O   UNL     1     111.691 126.148 140.009  0.00  0.00    +0.000 OA
ATOM     12  O   UNL     1     110.436 126.308 141.188  0.00  0.00    +0.000 OA
ENDROOT
BRANCH   9  13
ATOM     13  C   UNL     1     112.071 128.541 137.533  0.00  0.00    +0.000 A 
ATOM     14  C   UNL     1     112.981 128.952 137.627  0.00  0.00    +0.000 A 
ATOM     15  C   UNL     1     113.458 129.292 136.819  0.00  0.00    +0.000 A 
ATOM     16  C   UNL     1     113.029 129.223 135.917  0.00  0.00    +0.000 A 
ATOM     17  C   UNL     1     112.117 128.811 135.829  0.00  0.00    +0.000 A 
ATOM     18  C   UNL     1     111.643 128.472 136.638  0.00  0.00    +0.000 A 
ATOM     19  O   UNL     1     113.506 129.564 135.107  0.00  0.00    +0.000 OA
ENDBRANCH   9  13
BRANCH   1  20
ATOM     20  O   UNL     1     108.299 129.035 141.065  0.00  0.00    +0.000 OA
BRANCH  20  25
ATOM     21  C   UNL     1     105.836 129.646 141.816  0.00  0.00    +0.000 C 
ATOM     22  C   UNL     1     105.975 130.567 142.180  0.00  0.00    +0.000 C 
ATOM     23  C   UNL     1     106.885 130.972 142.171  0.00  0.00    +0.000 C 
ATOM     24  C   UNL     1     107.657 130.465 141.801  0.00  0.00    +0.000 C 
ATOM     25  C   UNL     1     107.518 129.543 141.437  0.00  0.00    +0.000 C 
ATOM     26  O   UNL     1     106.607 129.129 141.443  0.00  0.00    +0.000 OA
ATOM     27  O   UNL     1     108.570 130.875 141.793  0.00  0.00    +0.000 OA
ATOM     28  O   UNL     1     107.023 131.894 142.535  0.00  0.00    +0.000 OA
ATOM     29  O   UNL     1     105.201 131.081 142.553  0.00  0.00    +0.000 OA
ATOM     30  C   UNL     1     104.922 129.239 141.826  0.00  0.00    +0.000 C 
ENDBRANCH  20  25
ENDBRANCH   1  20
BRANCH   8  31
ATOM     31  O   UNL     1     112.657 126.837 138.398  0.00  0.00    +0.000 OA
BRANCH  31  36
ATOM     32  C   UNL     1     111.415 124.847 137.175  0.00  0.00    +0.000 C 
ATOM     33  C   UNL     1     112.186 124.244 136.966  0.00  0.00    +0.000 C 
ATOM     34  C   UNL     1     113.109 124.508 137.236  0.00  0.00    +0.000 C 
ATOM     35  C   UNL     1     113.267 125.368 137.711  0.00  0.00    +0.000 C 
ATOM     36  C   UNL     1     112.496 125.972 137.920  0.00  0.00    +0.000 C 
ATOM     37  O   UNL     1     111.565 125.714 137.652  0.00  0.00    +0.000 OA
ATOM     38  O   UNL     1     114.190 125.628 137.978  0.00  0.00    +0.000 OA
ATOM     39  O   UNL     1     113.879 123.905 137.027  0.00  0.00    +0.000 OA
ATOM     40  O   UNL     1     112.032 123.378 136.488  0.00  0.00    +0.000 OA
ENDBRANCH  31  36
ENDBRANCH   8  31
TORSDOF 5
ENDMDL
MODEL 8
REMARK VINA RESULT:      -8.8      2.035      2.594
REMARK  Name = 
REMARK  5 active torsions:
REMARK  status: ('A' for Active; 'I' for Inactive)
REMARK    1  A    between atoms: C_1  and  O_19
REMARK    2  A    between atoms: C_8  and  O_21
REMARK    3  A    between atoms: C_9  and  C_11
REMARK    4  A    between atoms: O_19  and  C_26
REMARK    5  A    between atoms: O_21  and  C_36
REMARK                            x       y       z     vdW  Elec       q    Type
REMARK                         _______ _______ _______ _____ _____    ______ ____
ROOT
ATOM      1  C   UNL     1     110.817 130.863 142.229  0.00  0.00    +0.000 A 
ATOM      2  C   UNL     1     109.932 130.405 142.111  0.00  0.00    +0.000 A 
ATOM      3  C   UNL     1     109.698 129.988 141.233  0.00  0.00    +0.000 A 
ATOM      4  C   UNL     1     111.465 130.903 141.472  0.00  0.00    +0.000 A 
ATOM      5  C   UNL     1     111.235 130.488 140.594  0.00  0.00    +0.000 A 
ATOM      6  C   UNL     1     110.351 130.030 140.473  0.00  0.00    +0.000 A 
ATOM      7  C   UNL     1     110.120 129.615 139.596  0.00  0.00    +0.000 A 
ATOM      8  C   UNL     1     110.770 129.654 138.834  0.00  0.00    +0.000 A 
ATOM      9  C   UNL     1     111.654 130.112 138.954  0.00  0.00    +0.000 A 
ATOM     10  O   UNL     1     111.888 130.531 139.837  0.00  0.00    +0.000 OA
ATOM     11  O   UNL     1     109.238 129.158 139.478  0.00  0.00    +0.000 OA
ATOM     12  O   UNL     1     108.817 129.531 141.113  0.00  0.00    +0.000 OA
ENDROOT
BRANCH   9  13
ATOM     13  C   UNL     1     112.300 130.152 138.197  0.00  0.00    +0.000 A 
ATOM     14  C   UNL     1     112.438 131.008 137.695  0.00  0.00    +0.000 A 
ATOM     15  C   UNL     1     113.086 131.040 136.937  0.00  0.00    +0.000 A 
ATOM     16  C   UNL     1     113.597 130.219 136.679  0.00  0.00    +0.000 A 
ATOM     17  C   UNL     1     113.455 129.364 137.185  0.00  0.00    +0.000 A 
ATOM     18  C   UNL     1     112.806 129.334 137.942  0.00  0.00    +0.000 A 
ATOM     19  O   UNL     1     114.247 130.250 135.919  0.00  0.00    +0.000 OA
ENDBRANCH   9  13
BRANCH   1  20
ATOM     20  O   UNL     1     111.050 131.280 143.107  0.00  0.00    +0.000 OA
BRANCH  20  25
ATOM     21  C   UNL     1     111.333 133.079 145.026  0.00  0.00    +0.000 C 
ATOM     22  C   UNL     1     111.747 132.521 145.747  0.00  0.00    +0.000 C 
ATOM     23  C   UNL     1     111.926 131.555 145.584  0.00  0.00    +0.000 C 
ATOM     24  C   UNL     1     111.695 131.141 144.709  0.00  0.00    +0.000 C 
ATOM     25  C   UNL     1     111.281 131.700 143.989  0.00  0.00    +0.000 C 
ATOM     26  O   UNL     1     111.098 132.672 144.144  0.00  0.00    +0.000 OA
ATOM     27  O   UNL     1     111.876 130.170 144.549  0.00  0.00    +0.000 OA
ATOM     28  O   UNL     1     112.339 130.997 146.305  0.00  0.00    +0.000 OA
ATOM     29  O   UNL     1     111.980 132.933 146.629  0.00  0.00    +0.000 OA
ATOM     30  C   UNL     1     111.154 134.050 145.190  0.00  0.00    +0.000 C 
ENDBRANCH  20  25
ENDBRANCH   1  20
BRANCH   8  31
ATOM     31  O   UNL     1     110.537 129.239 137.959  0.00  0.00    +0.000 OA
BRANCH  31  36
ATOM     32  C   UNL     1     108.843 131.010 136.963  0.00  0.00    +0.000 C 
ATOM     33  C   UNL     1     108.397 130.464 136.252  0.00  0.00    +0.000 C 
ATOM     34  C   UNL     1     108.667 129.515 136.113  0.00  0.00    +0.000 C 
ATOM     35  C   UNL     1     109.377 129.107 136.679  0.00  0.00    +0.000 C 
ATOM     36  C   UNL     1     109.823 129.652 137.390  0.00  0.00    +0.000 C 
ATOM     37  O   UNL     1     109.557 130.607 137.536  0.00  0.00    +0.000 OA
ATOM     38  O   UNL     1     109.643 128.157 136.537  0.00  0.00    +0.000 OA
ATOM     39  O   UNL     1     108.221 128.970 135.402  0.00  0.00    +0.000 OA
ATOM     40  O   UNL     1     107.683 130.871 135.681  0.00  0.00    +0.000 OA
ENDBRANCH  31  36
ENDBRANCH   8  31
TORSDOF 5
ENDMDL
