MODEL 1
REMARK VINA RESULT:     -11.5      0.000      0.000
REMARK  Name = 44258982
REMARK  8 active torsions:
REMARK  status: ('A' for Active; 'I' for Inactive)
REMARK    1  A    between atoms: O_2  and  C_20
REMARK    2  A    between atoms: O_2  and  C_27
REMARK    3  A    between atoms: O_3  and  C_23
REMARK    4  A    between atoms: O_3  and  C_29
REMARK    5  A    between atoms: O_10  and  C_32
REMARK    6  A    between atoms: O_10  and  C_37
REMARK    7  A    between atoms: C_25  and  C_29
REMARK    8  A    between atoms: C_38  and  C_41
REMARK                            x       y       z     vdW  Elec       q    Type
REMARK                         _______ _______ _______ _____ _____    ______ ____
ROOT
ATOM      1  O   UNL     1     111.680 126.569 136.227  0.00  0.00    +0.000 OA
ATOM      2  O   UNL     1     110.314 127.114 134.613  0.00  0.00    +0.000 OA
ATOM      3  O   UNL     1     110.065 125.485 134.695  0.00  0.00    +0.000 OA
ATOM      4  O   UNL     1     110.892 124.579 135.798  0.00  0.00    +0.000 OA
ATOM      5  C   UNL     1     111.266 127.022 135.675  0.00  0.00    +0.000 C 
ATOM      6  C   UNL     1     110.728 126.661 135.164  0.00  0.00    +0.000 C 
ATOM      7  C   UNL     1     110.603 125.847 135.206  0.00  0.00    +0.000 C 
ATOM      8  C   UNL     1     111.017 125.393 135.757  0.00  0.00    +0.000 C 
ATOM      9  C   UNL     1     111.555 125.754 136.267  0.00  0.00    +0.000 C 
ENDROOT
BRANCH   9  10
ATOM     10  O   UNL     1     111.969 125.301 136.819  0.00  0.00    +0.000 OA
BRANCH  10  15
ATOM     11  O   UNL     1     113.032 126.007 138.589  0.00  0.00    +0.000 OA
ATOM     12  O   UNL     1     110.705 125.684 137.809  0.00  0.00    +0.000 OA
ATOM     13  O   UNL     1     110.187 126.176 139.063  0.00  0.00    +0.000 OA
ATOM     14  O   UNL     1     112.057 127.010 141.145  0.00  0.00    +0.000 OA
ATOM     15  C   UNL     1     112.113 125.601 137.575  0.00  0.00    +0.000 A 
ATOM     16  C   UNL     1     112.888 125.708 137.835  0.00  0.00    +0.000 A 
ATOM     17  C   UNL     1     111.481 125.792 138.069  0.00  0.00    +0.000 A 
ATOM     18  C   UNL     1     111.625 126.091 138.825  0.00  0.00    +0.000 A 
ATOM     19  C   UNL     1     112.401 126.199 139.085  0.00  0.00    +0.000 A 
ATOM     20  C   UNL     1     110.959 126.287 139.331  0.00  0.00    +0.000 A 
ATOM     21  C   UNL     1     112.564 126.510 139.869  0.00  0.00    +0.000 A 
ATOM     22  C   UNL     1     111.102 126.599 140.119  0.00  0.00    +0.000 A 
ATOM     23  C   UNL     1     111.910 126.711 140.390  0.00  0.00    +0.000 A 
BRANCH  16  25
ATOM     24  O   UNL     1     115.412 124.939 135.853  0.00  0.00    +0.000 OA
ATOM     25  C   UNL     1     113.520 125.517 137.339  0.00  0.00    +0.000 A 
ATOM     26  C   UNL     1     113.959 126.114 136.980  0.00  0.00    +0.000 A 
ATOM     27  C   UNL     1     113.711 124.726 137.203  0.00  0.00    +0.000 A 
ATOM     28  C   UNL     1     114.590 125.923 136.484  0.00  0.00    +0.000 A 
ATOM     29  C   UNL     1     114.342 124.533 136.708  0.00  0.00    +0.000 A 
ATOM     30  C   UNL     1     114.782 125.132 136.348  0.00  0.00    +0.000 A 
ENDBRANCH  16  25
ENDBRANCH  10  15
ENDBRANCH   9  10
BRANCH   5  31
ATOM     31  C   UNL     1     111.391 127.837 135.634  0.00  0.00    +0.000 C 
BRANCH  31  32
ATOM     32  O   UNL     1     111.233 128.313 136.289  0.00  0.00    +0.000 OA
BRANCH  32  39
ATOM     33  O   UNL     1     112.379 129.115 135.994  0.00  0.00    +0.000 OA
ATOM     34  O   UNL     1     110.769 129.399 137.441  0.00  0.00    +0.000 OA
ATOM     35  O   UNL     1     113.060 131.003 136.851  0.00  0.00    +0.000 OA
ATOM     36  C   UNL     1     111.914 130.201 137.146  0.00  0.00    +0.000 C 
ATOM     37  C   UNL     1     111.458 129.528 137.005  0.00  0.00    +0.000 C 
ATOM     38  C   UNL     1     112.604 130.330 136.710  0.00  0.00    +0.000 C 
ATOM     39  C   UNL     1     111.690 128.985 136.429  0.00  0.00    +0.000 C 
ATOM     40  C   UNL     1     112.836 129.787 136.134  0.00  0.00    +0.000 C 
ATOM     41  C   UNL     1     113.524 129.917 135.699  0.00  0.00    +0.000 C 
BRANCH  36  42
ATOM     42  O   UNL     1     111.682 130.744 137.722  0.00  0.00    +0.000 OA
BRANCH  42  47
ATOM     43  O   UNL     1     110.961 131.486 136.736  0.00  0.00    +0.000 OA
ATOM     44  O   UNL     1     111.098 131.741 138.899  0.00  0.00    +0.000 OA
ATOM     45  O   UNL     1     110.084 132.981 138.503  0.00  0.00    +0.000 OA
ATOM     46  O   UNL     1     109.655 133.225 136.928  0.00  0.00    +0.000 OA
ATOM     47  C   UNL     1     111.175 131.364 137.523  0.00  0.00    +0.000 C 
ATOM     48  C   UNL     1     110.883 131.863 138.111  0.00  0.00    +0.000 C 
ATOM     49  C   UNL     1     110.377 132.483 137.914  0.00  0.00    +0.000 C 
ATOM     50  C   UNL     1     110.162 132.604 137.127  0.00  0.00    +0.000 C 
ATOM     51  C   UNL     1     110.455 132.106 136.538  0.00  0.00    +0.000 C 
ENDBRANCH  42  47
ENDBRANCH  36  42
ENDBRANCH  32  39
ENDBRANCH  31  32
ENDBRANCH   5  31
TORSDOF 8
ENDMDL
MODEL 2
REMARK VINA RESULT:     -11.5      2.222      4.054
REMARK  Name = 44258982
REMARK  8 active torsions:
REMARK  status: ('A' for Active; 'I' for Inactive)
REMARK    1  A    between atoms: O_2  and  C_20
REMARK    2  A    between atoms: O_2  and  C_27
REMARK    3  A    between atoms: O_3  and  C_23
REMARK    4  A    between atoms: O_3  and  C_29
REMARK    5  A    between atoms: O_10  and  C_32
REMARK    6  A    between atoms: O_10  and  C_37
REMARK    7  A    between atoms: C_25  and  C_29
REMARK    8  A    between atoms: C_38  and  C_41
REMARK                            x       y       z     vdW  Elec       q    Type
REMARK                         _______ _______ _______ _____ _____    ______ ____
ROOT
ATOM      1  O   UNL     1     111.331 127.943 137.265  0.00  0.00    +0.000 OA
ATOM      2  O   UNL     1     109.268 128.318 137.876  0.00  0.00    +0.000 OA
ATOM      3  O   UNL     1     109.102 128.263 136.236  0.00  0.00    +0.000 OA
ATOM      4  O   UNL     1     110.421 127.995 135.281  0.00  0.00    +0.000 OA
ATOM      5  C   UNL     1     110.671 128.077 137.742  0.00  0.00    +0.000 C 
ATOM      6  C   UNL     1     109.928 128.184 137.399  0.00  0.00    +0.000 C 
ATOM      7  C   UNL     1     109.845 128.156 136.579  0.00  0.00    +0.000 C 
ATOM      8  C   UNL     1     110.505 128.022 136.102  0.00  0.00    +0.000 C 
ATOM      9  C   UNL     1     111.247 127.916 136.445  0.00  0.00    +0.000 C 
ENDROOT
BRANCH   9  10
ATOM     10  O   UNL     1     111.906 127.782 135.967  0.00  0.00    +0.000 OA
BRANCH  10  15
ATOM     11  O   UNL     1     113.863 127.015 136.555  0.00  0.00    +0.000 OA
ATOM     12  O   UNL     1     111.540 126.205 136.288  0.00  0.00    +0.000 OA
ATOM     13  O   UNL     1     111.925 124.877 136.698  0.00  0.00    +0.000 OA
ATOM     14  O   UNL     1     114.714 124.357 137.392  0.00  0.00    +0.000 OA
ATOM     15  C   UNL     1     112.498 127.263 136.217  0.00  0.00    +0.000 A 
ATOM     16  C   UNL     1     113.273 127.533 136.306  0.00  0.00    +0.000 A 
ATOM     17  C   UNL     1     112.314 126.475 136.377  0.00  0.00    +0.000 A 
ATOM     18  C   UNL     1     112.906 125.956 136.626  0.00  0.00    +0.000 A 
ATOM     19  C   UNL     1     113.681 126.226 136.716  0.00  0.00    +0.000 A 
ATOM     20  C   UNL     1     112.703 125.138 136.790  0.00  0.00    +0.000 A 
ATOM     21  C   UNL     1     114.305 125.696 136.974  0.00  0.00    +0.000 A 
ATOM     22  C   UNL     1     113.314 124.593 137.050  0.00  0.00    +0.000 A 
ATOM     23  C   UNL     1     114.121 124.874 137.143  0.00  0.00    +0.000 A 
BRANCH  16  25
ATOM     24  O   UNL     1     114.003 130.687 135.667  0.00  0.00    +0.000 OA
ATOM     25  C   UNL     1     113.455 128.322 136.146  0.00  0.00    +0.000 A 
ATOM     26  C   UNL     1     113.481 128.589 135.366  0.00  0.00    +0.000 A 
ATOM     27  C   UNL     1     113.612 128.842 136.766  0.00  0.00    +0.000 A 
ATOM     28  C   UNL     1     113.664 129.378 135.206  0.00  0.00    +0.000 A 
ATOM     29  C   UNL     1     113.795 129.631 136.607  0.00  0.00    +0.000 A 
ATOM     30  C   UNL     1     113.821 129.899 135.826  0.00  0.00    +0.000 A 
ENDBRANCH  16  25
ENDBRANCH  10  15
ENDBRANCH   9  10
BRANCH   5  31
ATOM     31  C   UNL     1     110.754 128.105 138.563  0.00  0.00    +0.000 C 
BRANCH  31  32
ATOM     32  O   UNL     1     111.212 128.695 138.912  0.00  0.00    +0.000 OA
BRANCH  32  39
ATOM     33  O   UNL     1     111.586 127.804 139.965  0.00  0.00    +0.000 OA
ATOM     34  O   UNL     1     111.848 129.961 139.758  0.00  0.00    +0.000 OA
ATOM     35  O   UNL     1     112.596 128.179 141.863  0.00  0.00    +0.000 OA
ATOM     36  C   UNL     1     112.222 129.070 140.810  0.00  0.00    +0.000 C 
ATOM     37  C   UNL     1     111.876 129.198 140.073  0.00  0.00    +0.000 C 
ATOM     38  C   UNL     1     112.250 128.307 141.125  0.00  0.00    +0.000 C 
ATOM     39  C   UNL     1     111.558 128.565 139.650  0.00  0.00    +0.000 C 
ATOM     40  C   UNL     1     111.932 127.674 140.703  0.00  0.00    +0.000 C 
ATOM     41  C   UNL     1     111.961 126.913 141.017  0.00  0.00    +0.000 C 
BRANCH  36  42
ATOM     42  O   UNL     1     112.540 129.703 141.233  0.00  0.00    +0.000 OA
BRANCH  42  47
ATOM     43  O   UNL     1     113.800 129.512 140.586  0.00  0.00    +0.000 OA
ATOM     44  O   UNL     1     113.101 131.097 141.915  0.00  0.00    +0.000 OA
ATOM     45  O   UNL     1     114.641 131.603 141.608  0.00  0.00    +0.000 OA
ATOM     46  O   UNL     1     115.620 130.716 140.619  0.00  0.00    +0.000 OA
ATOM     47  C   UNL     1     113.310 129.956 141.079  0.00  0.00    +0.000 C 
ATOM     48  C   UNL     1     113.591 130.653 141.420  0.00  0.00    +0.000 C 
ATOM     49  C   UNL     1     114.361 130.906 141.267  0.00  0.00    +0.000 C 
ATOM     50  C   UNL     1     114.850 130.462 140.773  0.00  0.00    +0.000 C 
ATOM     51  C   UNL     1     114.569 129.765 140.432  0.00  0.00    +0.000 C 
ENDBRANCH  42  47
ENDBRANCH  36  42
ENDBRANCH  32  39
ENDBRANCH  31  32
ENDBRANCH   5  31
TORSDOF 8
ENDMDL
MODEL 3
REMARK VINA RESULT:     -11.3      2.022      4.662
REMARK  Name = 44258982
REMARK  8 active torsions:
REMARK  status: ('A' for Active; 'I' for Inactive)
REMARK    1  A    between atoms: O_2  and  C_20
REMARK    2  A    between atoms: O_2  and  C_27
REMARK    3  A    between atoms: O_3  and  C_23
REMARK    4  A    between atoms: O_3  and  C_29
REMARK    5  A    between atoms: O_10  and  C_32
REMARK    6  A    between atoms: O_10  and  C_37
REMARK    7  A    between atoms: C_25  and  C_29
REMARK    8  A    between atoms: C_38  and  C_41
REMARK                            x       y       z     vdW  Elec       q    Type
REMARK                         _______ _______ _______ _____ _____    ______ ____
ROOT
ATOM      1  O   UNL     1     111.318 126.522 137.019  0.00  0.00    +0.000 OA
ATOM      2  O   UNL     1     111.387 124.430 137.641  0.00  0.00    +0.000 OA
ATOM      3  O   UNL     1     111.234 124.265 136.006  0.00  0.00    +0.000 OA
ATOM      4  O   UNL     1     111.138 125.604 135.047  0.00  0.00    +0.000 OA
ATOM      5  C   UNL     1     111.367 125.853 137.499  0.00  0.00    +0.000 C 
ATOM      6  C   UNL     1     111.339 125.100 137.161  0.00  0.00    +0.000 C 
ATOM      7  C   UNL     1     111.262 125.018 136.344  0.00  0.00    +0.000 C 
ATOM      8  C   UNL     1     111.214 125.688 135.864  0.00  0.00    +0.000 C 
ATOM      9  C   UNL     1     111.242 126.439 136.202  0.00  0.00    +0.000 C 
ENDROOT
BRANCH   9  10
ATOM     10  O   UNL     1     111.194 127.109 135.722  0.00  0.00    +0.000 OA
BRANCH  10  15
ATOM     11  O   UNL     1     111.722 129.168 136.215  0.00  0.00    +0.000 OA
ATOM     12  O   UNL     1     112.838 126.998 135.802  0.00  0.00    +0.000 OA
ATOM     13  O   UNL     1     114.136 127.592 136.017  0.00  0.00    +0.000 OA
ATOM     14  O   UNL     1     114.307 130.435 136.661  0.00  0.00    +0.000 OA
ATOM     15  C   UNL     1     111.644 127.777 135.900  0.00  0.00    +0.000 A 
ATOM     16  C   UNL     1     111.272 128.501 136.038  0.00  0.00    +0.000 A 
ATOM     17  C   UNL     1     112.466 127.721 135.940  0.00  0.00    +0.000 A 
ATOM     18  C   UNL     1     112.917 128.390 136.117  0.00  0.00    +0.000 A 
ATOM     19  C   UNL     1     112.545 129.113 136.255  0.00  0.00    +0.000 A 
ATOM     20  C   UNL     1     113.772 128.319 136.156  0.00  0.00    +0.000 A 
ATOM     21  C   UNL     1     113.002 129.816 136.441  0.00  0.00    +0.000 A 
ATOM     22  C   UNL     1     114.247 129.012 136.340  0.00  0.00    +0.000 A 
ATOM     23  C   UNL     1     113.860 129.765 136.484  0.00  0.00    +0.000 A 
BRANCH  16  25
ATOM     24  O   UNL     1     107.983 128.719 135.875  0.00  0.00    +0.000 OA
ATOM     25  C   UNL     1     110.450 128.555 135.998  0.00  0.00    +0.000 A 
ATOM     26  C   UNL     1     110.006 128.621 136.690  0.00  0.00    +0.000 A 
ATOM     27  C   UNL     1     110.071 128.544 135.265  0.00  0.00    +0.000 A 
ATOM     28  C   UNL     1     109.184 128.676 136.650  0.00  0.00    +0.000 A 
ATOM     29  C   UNL     1     109.249 128.599 135.224  0.00  0.00    +0.000 A 
ATOM     30  C   UNL     1     108.805 128.665 135.917  0.00  0.00    +0.000 A 
ENDBRANCH  16  25
ENDBRANCH  10  15
ENDBRANCH   9  10
BRANCH   5  31
ATOM     31  C   UNL     1     111.443 125.935 138.316  0.00  0.00    +0.000 C 
BRANCH  31  32
ATOM     32  O   UNL     1     112.165 126.164 138.643  0.00  0.00    +0.000 OA
BRANCH  32  39
ATOM     33  O   UNL     1     111.556 126.373 139.918  0.00  0.00    +0.000 OA
ATOM     34  O   UNL     1     113.489 127.018 139.135  0.00  0.00    +0.000 OA
ATOM     35  O   UNL     1     112.270 127.436 141.686  0.00  0.00    +0.000 OA
ATOM     36  C   UNL     1     112.879 127.227 140.410  0.00  0.00    +0.000 C 
ATOM     37  C   UNL     1     112.853 126.909 139.650  0.00  0.00    +0.000 C 
ATOM     38  C   UNL     1     112.243 127.118 140.925  0.00  0.00    +0.000 C 
ATOM     39  C   UNL     1     112.191 126.482 139.404  0.00  0.00    +0.000 C 
ATOM     40  C   UNL     1     111.582 126.691 140.679  0.00  0.00    +0.000 C 
ATOM     41  C   UNL     1     110.947 126.582 141.194  0.00  0.00    +0.000 C 
BRANCH  36  42
ATOM     42  O   UNL     1     113.541 127.654 140.657  0.00  0.00    +0.000 OA
BRANCH  42  47
ATOM     43  O   UNL     1     112.938 128.869 140.207  0.00  0.00    +0.000 OA
ATOM     44  O   UNL     1     114.963 128.452 140.907  0.00  0.00    +0.000 OA
ATOM     45  O   UNL     1     115.072 130.066 140.583  0.00  0.00    +0.000 OA
ATOM     46  O   UNL     1     113.758 130.882 140.007  0.00  0.00    +0.000 OA
ATOM     47  C   UNL     1     113.595 128.461 140.494  0.00  0.00    +0.000 C 
ATOM     48  C   UNL     1     114.306 128.860 140.619  0.00  0.00    +0.000 C 
ATOM     49  C   UNL     1     114.361 129.667 140.457  0.00  0.00    +0.000 C 
ATOM     50  C   UNL     1     113.703 130.074 140.170  0.00  0.00    +0.000 C 
ATOM     51  C   UNL     1     112.992 129.675 140.044  0.00  0.00    +0.000 C 
ENDBRANCH  42  47
ENDBRANCH  36  42
ENDBRANCH  32  39
ENDBRANCH  31  32
ENDBRANCH   5  31
TORSDOF 8
ENDMDL
MODEL 4
REMARK VINA RESULT:     -11.3      1.661      5.890
REMARK  Name = 44258982
REMARK  8 active torsions:
REMARK  status: ('A' for Active; 'I' for Inactive)
REMARK    1  A    between atoms: O_2  and  C_20
REMARK    2  A    between atoms: O_2  and  C_27
REMARK    3  A    between atoms: O_3  and  C_23
REMARK    4  A    between atoms: O_3  and  C_29
REMARK    5  A    between atoms: O_10  and  C_32
REMARK    6  A    between atoms: O_10  and  C_37
REMARK    7  A    between atoms: C_25  and  C_29
REMARK    8  A    between atoms: C_38  and  C_41
REMARK                            x       y       z     vdW  Elec       q    Type
REMARK                         _______ _______ _______ _____ _____    ______ ____
ROOT
ATOM      1  O   UNL     1     113.161 129.400 139.111  0.00  0.00    +0.000 OA
ATOM      2  O   UNL     1     114.042 128.728 140.992  0.00  0.00    +0.000 OA
ATOM      3  O   UNL     1     114.867 130.136 140.747  0.00  0.00    +0.000 OA
ATOM      4  O   UNL     1     114.555 131.053 139.411  0.00  0.00    +0.000 OA
ATOM      5  C   UNL     1     113.317 128.942 139.779  0.00  0.00    +0.000 C 
ATOM      6  C   UNL     1     113.886 129.187 140.324  0.00  0.00    +0.000 C 
ATOM      7  C   UNL     1     114.298 129.890 140.201  0.00  0.00    +0.000 C 
ATOM      8  C   UNL     1     114.142 130.349 139.533  0.00  0.00    +0.000 C 
ATOM      9  C   UNL     1     113.574 130.104 138.989  0.00  0.00    +0.000 C 
ENDROOT
BRANCH   9  10
ATOM     10  O   UNL     1     113.418 130.563 138.321  0.00  0.00    +0.000 OA
BRANCH  10  15
ATOM     11  O   UNL     1     111.737 130.435 136.934  0.00  0.00    +0.000 OA
ATOM     12  O   UNL     1     112.179 131.071 139.285  0.00  0.00    +0.000 OA
ATOM     13  O   UNL     1     110.784 131.377 139.493  0.00  0.00    +0.000 OA
ATOM     14  O   UNL     1     108.908 131.033 137.282  0.00  0.00    +0.000 OA
ATOM     15  C   UNL     1     112.651 130.605 138.019  0.00  0.00    +0.000 A 
ATOM     16  C   UNL     1     112.503 130.393 137.235  0.00  0.00    +0.000 A 
ATOM     17  C   UNL     1     112.032 130.859 138.501  0.00  0.00    +0.000 A 
ATOM     18  C   UNL     1     111.264 130.901 138.199  0.00  0.00    +0.000 A 
ATOM     19  C   UNL     1     111.117 130.689 137.416  0.00  0.00    +0.000 A 
ATOM     20  C   UNL     1     110.628 131.167 138.711  0.00  0.00    +0.000 A 
ATOM     21  C   UNL     1     110.323 130.728 137.090  0.00  0.00    +0.000 A 
ATOM     22  C   UNL     1     109.827 131.213 138.403  0.00  0.00    +0.000 A 
ATOM     23  C   UNL     1     109.673 130.992 137.587  0.00  0.00    +0.000 A 
BRANCH  16  25
ATOM     24  O   UNL     1     114.984 129.379 135.310  0.00  0.00    +0.000 OA
ATOM     25  C   UNL     1     113.123 130.138 136.754  0.00  0.00    +0.000 A 
ATOM     26  C   UNL     1     113.183 129.344 136.543  0.00  0.00    +0.000 A 
ATOM     27  C   UNL     1     113.684 130.680 136.484  0.00  0.00    +0.000 A 
ATOM     28  C   UNL     1     113.804 129.090 136.061  0.00  0.00    +0.000 A 
ATOM     29  C   UNL     1     114.304 130.427 136.002  0.00  0.00    +0.000 A 
ATOM     30  C   UNL     1     114.364 129.631 135.791  0.00  0.00    +0.000 A 
ENDBRANCH  16  25
ENDBRANCH  10  15
ENDBRANCH   9  10
BRANCH   5  31
ATOM     31  C   UNL     1     112.904 128.238 139.902  0.00  0.00    +0.000 C 
BRANCH  31  32
ATOM     32  O   UNL     1     112.846 127.681 139.296  0.00  0.00    +0.000 OA
BRANCH  32  39
ATOM     33  O   UNL     1     111.573 127.245 139.776  0.00  0.00    +0.000 OA
ATOM     34  O   UNL     1     112.965 126.318 138.374  0.00  0.00    +0.000 OA
ATOM     35  O   UNL     1     110.419 125.446 139.334  0.00  0.00    +0.000 OA
ATOM     36  C   UNL     1     111.692 125.882 138.854  0.00  0.00    +0.000 C 
ATOM     37  C   UNL     1     112.299 126.441 138.845  0.00  0.00    +0.000 C 
ATOM     38  C   UNL     1     111.025 126.005 139.325  0.00  0.00    +0.000 C 
ATOM     39  C   UNL     1     112.239 127.123 139.306  0.00  0.00    +0.000 C 
ATOM     40  C   UNL     1     110.966 126.687 139.786  0.00  0.00    +0.000 C 
ATOM     41  C   UNL     1     110.300 126.809 140.256  0.00  0.00    +0.000 C 
BRANCH  36  42
ATOM     42  O   UNL     1     111.752 125.201 138.393  0.00  0.00    +0.000 OA
BRANCH  42  47
ATOM     43  O   UNL     1     111.090 125.866 137.315  0.00  0.00    +0.000 OA
ATOM     44  O   UNL     1     112.030 123.899 137.418  0.00  0.00    +0.000 OA
ATOM     45  O   UNL     1     111.508 123.913 135.853  0.00  0.00    +0.000 OA
ATOM     46  O   UNL     1     110.708 125.230 135.263  0.00  0.00    +0.000 OA
ATOM     47  C   UNL     1     111.490 125.209 137.610  0.00  0.00    +0.000 C 
ATOM     48  C   UNL     1     111.630 124.558 137.123  0.00  0.00    +0.000 C 
ATOM     49  C   UNL     1     111.369 124.564 136.340  0.00  0.00    +0.000 C 
ATOM     50  C   UNL     1     110.969 125.223 136.046  0.00  0.00    +0.000 C 
ATOM     51  C   UNL     1     110.830 125.874 136.533  0.00  0.00    +0.000 C 
ENDBRANCH  42  47
ENDBRANCH  36  42
ENDBRANCH  32  39
ENDBRANCH  31  32
ENDBRANCH   5  31
TORSDOF 8
ENDMDL
MODEL 5
REMARK VINA RESULT:     -11.2      1.450      3.044
REMARK  Name = 44258982
REMARK  8 active torsions:
REMARK  status: ('A' for Active; 'I' for Inactive)
REMARK    1  A    between atoms: O_2  and  C_20
REMARK    2  A    between atoms: O_2  and  C_27
REMARK    3  A    between atoms: O_3  and  C_23
REMARK    4  A    between atoms: O_3  and  C_29
REMARK    5  A    between atoms: O_10  and  C_32
REMARK    6  A    between atoms: O_10  and  C_37
REMARK    7  A    between atoms: C_25  and  C_29
REMARK    8  A    between atoms: C_38  and  C_41
REMARK                            x       y       z     vdW  Elec       q    Type
REMARK                         _______ _______ _______ _____ _____    ______ ____
ROOT
ATOM      1  O   UNL     1     111.065 126.741 138.240  0.00  0.00    +0.000 OA
ATOM      2  O   UNL     1     108.909 126.919 137.946  0.00  0.00    +0.000 OA
ATOM      3  O   UNL     1     108.964 125.895 139.238  0.00  0.00    +0.000 OA
ATOM      4  O   UNL     1     110.419 125.434 139.865  0.00  0.00    +0.000 OA
ATOM      5  C   UNL     1     110.338 126.971 137.927  0.00  0.00    +0.000 C 
ATOM      6  C   UNL     1     109.637 126.689 138.260  0.00  0.00    +0.000 C 
ATOM      7  C   UNL     1     109.665 126.177 138.906  0.00  0.00    +0.000 C 
ATOM      8  C   UNL     1     110.392 125.947 139.219  0.00  0.00    +0.000 C 
ATOM      9  C   UNL     1     111.092 126.229 138.886  0.00  0.00    +0.000 C 
ENDROOT
BRANCH   9  10
ATOM     10  O   UNL     1     111.820 125.998 139.200  0.00  0.00    +0.000 OA
BRANCH  10  15
ATOM     11  O   UNL     1     113.811 126.214 138.332  0.00  0.00    +0.000 OA
ATOM     12  O   UNL     1     111.730 124.931 137.944  0.00  0.00    +0.000 OA
ATOM     13  O   UNL     1     112.317 124.271 136.803  0.00  0.00    +0.000 OA
ATOM     14  O   UNL     1     115.059 124.920 136.040  0.00  0.00    +0.000 OA
ATOM     15  C   UNL     1     112.469 125.892 138.701  0.00  0.00    +0.000 A 
ATOM     16  C   UNL     1     113.163 126.320 138.830  0.00  0.00    +0.000 A 
ATOM     17  C   UNL     1     112.424 125.359 138.074  0.00  0.00    +0.000 A 
ATOM     18  C   UNL     1     113.073 125.253 137.575  0.00  0.00    +0.000 A 
ATOM     19  C   UNL     1     113.767 125.680 137.704  0.00  0.00    +0.000 A 
ATOM     20  C   UNL     1     113.014 124.694 136.925  0.00  0.00    +0.000 A 
ATOM     21  C   UNL     1     114.449 125.579 137.193  0.00  0.00    +0.000 A 
ATOM     22  C   UNL     1     113.687 124.579 136.402  0.00  0.00    +0.000 A 
ATOM     23  C   UNL     1     114.409 125.024 136.537  0.00  0.00    +0.000 A 
BRANCH  16  25
ATOM     24  O   UNL     1     113.339 128.452 141.343  0.00  0.00    +0.000 OA
ATOM     25  C   UNL     1     113.207 126.854 139.458  0.00  0.00    +0.000 A 
ATOM     26  C   UNL     1     113.204 127.665 139.312  0.00  0.00    +0.000 A 
ATOM     27  C   UNL     1     113.254 126.575 140.233  0.00  0.00    +0.000 A 
ATOM     28  C   UNL     1     113.248 128.198 139.940  0.00  0.00    +0.000 A 
ATOM     29  C   UNL     1     113.298 127.107 140.862  0.00  0.00    +0.000 A 
ATOM     30  C   UNL     1     113.295 127.919 140.715  0.00  0.00    +0.000 A 
ENDBRANCH  16  25
ENDBRANCH  10  15
ENDBRANCH   9  10
BRANCH   5  31
ATOM     31  C   UNL     1     110.310 127.484 137.281  0.00  0.00    +0.000 C 
BRANCH  31  32
ATOM     32  O   UNL     1     110.805 128.143 137.254  0.00  0.00    +0.000 OA
BRANCH  32  39
ATOM     33  O   UNL     1     110.374 128.525 135.947  0.00  0.00    +0.000 OA
ATOM     34  O   UNL     1     111.187 129.713 137.588  0.00  0.00    +0.000 OA
ATOM     35  O   UNL     1     110.325 130.478 134.972  0.00  0.00    +0.000 OA
ATOM     36  C   UNL     1     110.756 130.095 136.280  0.00  0.00    +0.000 C 
ATOM     37  C   UNL     1     110.876 129.511 136.850  0.00  0.00    +0.000 C 
ATOM     38  C   UNL     1     110.445 129.894 135.542  0.00  0.00    +0.000 C 
ATOM     39  C   UNL     1     110.685 128.726 136.683  0.00  0.00    +0.000 C 
ATOM     40  C   UNL     1     110.254 129.108 135.376  0.00  0.00    +0.000 C 
ATOM     41  C   UNL     1     109.943 128.907 134.639  0.00  0.00    +0.000 C 
BRANCH  36  42
ATOM     42  O   UNL     1     110.947 130.880 136.447  0.00  0.00    +0.000 OA
BRANCH  42  47
ATOM     43  O   UNL     1     109.642 131.100 136.985  0.00  0.00    +0.000 OA
ATOM     44  O   UNL     1     111.445 132.329 137.060  0.00  0.00    +0.000 OA
ATOM     45  O   UNL     1     110.388 133.273 137.906  0.00  0.00    +0.000 OA
ATOM     46  O   UNL     1     108.834 132.769 138.138  0.00  0.00    +0.000 OA
ATOM     47  C   UNL     1     110.418 131.352 136.869  0.00  0.00    +0.000 C 
ATOM     48  C   UNL     1     110.667 132.076 137.176  0.00  0.00    +0.000 C 
ATOM     49  C   UNL     1     110.139 132.549 137.599  0.00  0.00    +0.000 C 
ATOM     50  C   UNL     1     109.363 132.296 137.715  0.00  0.00    +0.000 C 
ATOM     51  C   UNL     1     109.114 131.572 137.408  0.00  0.00    +0.000 C 
ENDBRANCH  42  47
ENDBRANCH  36  42
ENDBRANCH  32  39
ENDBRANCH  31  32
ENDBRANCH   5  31
TORSDOF 8
ENDMDL
MODEL 6
REMARK VINA RESULT:     -11.1      1.746      2.923
REMARK  Name = 44258982
REMARK  8 active torsions:
REMARK  status: ('A' for Active; 'I' for Inactive)
REMARK    1  A    between atoms: O_2  and  C_20
REMARK    2  A    between atoms: O_2  and  C_27
REMARK    3  A    between atoms: O_3  and  C_23
REMARK    4  A    between atoms: O_3  and  C_29
REMARK    5  A    between atoms: O_10  and  C_32
REMARK    6  A    between atoms: O_10  and  C_37
REMARK    7  A    between atoms: C_25  and  C_29
REMARK    8  A    between atoms: C_38  and  C_41
REMARK                            x       y       z     vdW  Elec       q    Type
REMARK                         _______ _______ _______ _____ _____    ______ ____
ROOT
ATOM      1  O   UNL     1     112.510 127.785 137.056  0.00  0.00    +0.000 OA
ATOM      2  O   UNL     1     113.085 129.362 135.659  0.00  0.00    +0.000 OA
ATOM      3  O   UNL     1     114.363 128.329 135.507  0.00  0.00    +0.000 OA
ATOM      4  O   UNL     1     114.406 126.934 136.388  0.00  0.00    +0.000 OA
ATOM      5  C   UNL     1     112.488 128.483 136.616  0.00  0.00    +0.000 C 
ATOM      6  C   UNL     1     113.106 128.664 136.099  0.00  0.00    +0.000 C 
ATOM      7  C   UNL     1     113.745 128.148 136.024  0.00  0.00    +0.000 C 
ATOM      8  C   UNL     1     113.766 127.450 136.464  0.00  0.00    +0.000 C 
ATOM      9  C   UNL     1     113.149 127.269 136.980  0.00  0.00    +0.000 C 
ENDROOT
BRANCH   9  10
ATOM     10  O   UNL     1     113.171 126.572 137.420  0.00  0.00    +0.000 OA
BRANCH  10  15
ATOM     11  O   UNL     1     111.809 125.921 138.997  0.00  0.00    +0.000 OA
ATOM     12  O   UNL     1     113.565 127.626 138.626  0.00  0.00    +0.000 OA
ATOM     13  O   UNL     1     113.392 128.136 139.965  0.00  0.00    +0.000 OA
ATOM     14  O   UNL     1     111.406 126.898 141.712  0.00  0.00    +0.000 OA
ATOM     15  C   UNL     1     112.782 126.531 138.147  0.00  0.00    +0.000 A 
ATOM     16  C   UNL     1     112.197 125.962 138.271  0.00  0.00    +0.000 A 
ATOM     17  C   UNL     1     112.980 127.058 138.750  0.00  0.00    +0.000 A 
ATOM     18  C   UNL     1     112.591 127.017 139.477  0.00  0.00    +0.000 A 
ATOM     19  C   UNL     1     112.006 126.448 139.601  0.00  0.00    +0.000 A 
ATOM     20  C   UNL     1     112.806 127.571 140.097  0.00  0.00    +0.000 A 
ATOM     21  C   UNL     1     111.595 126.395 140.353  0.00  0.00    +0.000 A 
ATOM     22  C   UNL     1     112.405 127.533 140.857  0.00  0.00    +0.000 A 
ATOM     23  C   UNL     1     111.796 126.941 140.986  0.00  0.00    +0.000 A 
BRANCH  16  25
ATOM     24  O   UNL     1     111.413 123.853 135.857  0.00  0.00    +0.000 OA
ATOM     25  C   UNL     1     112.000 125.435 137.667  0.00  0.00    +0.000 A 
ATOM     26  C   UNL     1     111.300 125.535 137.244  0.00  0.00    +0.000 A 
ATOM     27  C   UNL     1     112.506 124.809 137.487  0.00  0.00    +0.000 A 
ATOM     28  C   UNL     1     111.103 125.008 136.640  0.00  0.00    +0.000 A 
ATOM     29  C   UNL     1     112.310 124.281 136.883  0.00  0.00    +0.000 A 
ATOM     30  C   UNL     1     111.608 124.381 136.460  0.00  0.00    +0.000 A 
ENDBRANCH  16  25
ENDBRANCH  10  15
ENDBRANCH   9  10
BRANCH   5  31
ATOM     31  C   UNL     1     111.850 128.999 136.691  0.00  0.00    +0.000 C 
BRANCH  31  32
ATOM     32  O   UNL     1     111.078 128.708 136.673  0.00  0.00    +0.000 OA
BRANCH  32  39
ATOM     33  O   UNL     1     110.514 129.349 137.818  0.00  0.00    +0.000 OA
ATOM     34  O   UNL     1     109.761 129.143 135.780  0.00  0.00    +0.000 OA
ATOM     35  O   UNL     1     108.632 130.426 138.071  0.00  0.00    +0.000 OA
ATOM     36  C   UNL     1     109.196 129.784 136.925  0.00  0.00    +0.000 C 
ATOM     37  C   UNL     1     109.808 129.355 136.576  0.00  0.00    +0.000 C 
ATOM     38  C   UNL     1     109.244 129.996 137.722  0.00  0.00    +0.000 C 
ATOM     39  C   UNL     1     110.467 129.137 137.023  0.00  0.00    +0.000 C 
ATOM     40  C   UNL     1     109.902 129.779 138.168  0.00  0.00    +0.000 C 
ATOM     41  C   UNL     1     109.949 129.991 138.964  0.00  0.00    +0.000 C 
BRANCH  36  42
ATOM     42  O   UNL     1     108.537 130.002 136.479  0.00  0.00    +0.000 OA
BRANCH  42  47
ATOM     43  O   UNL     1     109.253 131.121 135.952  0.00  0.00    +0.000 OA
ATOM     44  O   UNL     1     107.149 130.564 135.787  0.00  0.00    +0.000 OA
ATOM     45  O   UNL     1     107.170 131.964 134.914  0.00  0.00    +0.000 OA
ATOM     46  O   UNL     1     108.579 132.802 134.733  0.00  0.00    +0.000 OA
ATOM     47  C   UNL     1     108.549 130.702 136.042  0.00  0.00    +0.000 C 
ATOM     48  C   UNL     1     107.854 130.983 135.697  0.00  0.00    +0.000 C 
ATOM     49  C   UNL     1     107.864 131.683 135.260  0.00  0.00    +0.000 C 
ATOM     50  C   UNL     1     108.569 132.102 135.170  0.00  0.00    +0.000 C 
ATOM     51  C   UNL     1     109.263 131.821 135.516  0.00  0.00    +0.000 C 
ENDBRANCH  42  47
ENDBRANCH  36  42
ENDBRANCH  32  39
ENDBRANCH  31  32
ENDBRANCH   5  31
TORSDOF 8
ENDMDL
MODEL 7
REMARK VINA RESULT:     -11.1      2.446      4.539
REMARK  Name = 44258982
REMARK  8 active torsions:
REMARK  status: ('A' for Active; 'I' for Inactive)
REMARK    1  A    between atoms: O_2  and  C_20
REMARK    2  A    between atoms: O_2  and  C_27
REMARK    3  A    between atoms: O_3  and  C_23
REMARK    4  A    between atoms: O_3  and  C_29
REMARK    5  A    between atoms: O_10  and  C_32
REMARK    6  A    between atoms: O_10  and  C_37
REMARK    7  A    between atoms: C_25  and  C_29
REMARK    8  A    between atoms: C_38  and  C_41
REMARK                            x       y       z     vdW  Elec       q    Type
REMARK                         _______ _______ _______ _____ _____    ______ ____
ROOT
ATOM      1  O   UNL     1     111.561 127.261 137.874  0.00  0.00    +0.000 OA
ATOM      2  O   UNL     1     111.576 126.008 139.662  0.00  0.00    +0.000 OA
ATOM      3  O   UNL     1     111.061 124.926 138.528  0.00  0.00    +0.000 OA
ATOM      4  O   UNL     1     110.879 125.400 136.958  0.00  0.00    +0.000 OA
ATOM      5  C   UNL     1     111.652 127.024 138.659  0.00  0.00    +0.000 C 
ATOM      6  C   UNL     1     111.485 126.245 138.877  0.00  0.00    +0.000 C 
ATOM      7  C   UNL     1     111.228 125.705 138.310  0.00  0.00    +0.000 C 
ATOM      8  C   UNL     1     111.137 125.942 137.525  0.00  0.00    +0.000 C 
ATOM      9  C   UNL     1     111.303 126.719 137.307  0.00  0.00    +0.000 C 
ENDROOT
BRANCH   9  10
ATOM     10  O   UNL     1     111.212 126.956 136.522  0.00  0.00    +0.000 OA
BRANCH  10  15
ATOM     11  O   UNL     1     111.829 128.830 135.588  0.00  0.00    +0.000 OA
ATOM     12  O   UNL     1     112.853 126.786 136.536  0.00  0.00    +0.000 OA
ATOM     13  O   UNL     1     114.177 127.279 136.241  0.00  0.00    +0.000 OA
ATOM     14  O   UNL     1     114.470 129.888 134.964  0.00  0.00    +0.000 OA
ATOM     15  C   UNL     1     111.692 127.553 136.213  0.00  0.00    +0.000 A 
ATOM     16  C   UNL     1     111.350 128.234 135.897  0.00  0.00    +0.000 A 
ATOM     17  C   UNL     1     112.512 127.467 136.220  0.00  0.00    +0.000 A 
ATOM     18  C   UNL     1     112.991 128.064 135.910  0.00  0.00    +0.000 A 
ATOM     19  C   UNL     1     112.650 128.745 135.594  0.00  0.00    +0.000 A 
ATOM     20  C   UNL     1     113.844 127.963 135.923  0.00  0.00    +0.000 A 
ATOM     21  C   UNL     1     113.138 129.373 135.270  0.00  0.00    +0.000 A 
ATOM     22  C   UNL     1     114.349 128.581 135.602  0.00  0.00    +0.000 A 
ATOM     23  C   UNL     1     113.993 129.290 135.274  0.00  0.00    +0.000 A 
BRANCH  16  25
ATOM     24  O   UNL     1     108.068 128.574 135.873  0.00  0.00    +0.000 OA
ATOM     25  C   UNL     1     110.529 128.319 135.891  0.00  0.00    +0.000 A 
ATOM     26  C   UNL     1     110.073 127.884 135.359  0.00  0.00    +0.000 A 
ATOM     27  C   UNL     1     110.165 128.839 136.417  0.00  0.00    +0.000 A 
ATOM     28  C   UNL     1     109.253 127.968 135.353  0.00  0.00    +0.000 A 
ATOM     29  C   UNL     1     109.344 128.924 136.411  0.00  0.00    +0.000 A 
ATOM     30  C   UNL     1     108.888 128.488 135.879  0.00  0.00    +0.000 A 
ENDBRANCH  16  25
ENDBRANCH  10  15
ENDBRANCH   9  10
BRANCH   5  31
ATOM     31  C   UNL     1     111.909 127.565 139.226  0.00  0.00    +0.000 C 
BRANCH  31  32
ATOM     32  O   UNL     1     111.555 128.308 139.279  0.00  0.00    +0.000 OA
BRANCH  32  39
ATOM     33  O   UNL     1     112.788 129.023 139.385  0.00  0.00    +0.000 OA
ATOM     34  O   UNL     1     110.814 129.449 140.212  0.00  0.00    +0.000 OA
ATOM     35  O   UNL     1     113.279 130.878 140.426  0.00  0.00    +0.000 OA
ATOM     36  C   UNL     1     112.046 130.163 140.319  0.00  0.00    +0.000 C 
ATOM     37  C   UNL     1     111.616 129.521 140.032  0.00  0.00    +0.000 C 
ATOM     38  C   UNL     1     112.849 130.235 140.139  0.00  0.00    +0.000 C 
ATOM     39  C   UNL     1     111.987 128.950 139.565  0.00  0.00    +0.000 C 
ATOM     40  C   UNL     1     113.220 129.665 139.672  0.00  0.00    +0.000 C 
ATOM     41  C   UNL     1     114.021 129.737 139.492  0.00  0.00    +0.000 C 
BRANCH  36  42
ATOM     42  O   UNL     1     111.676 130.733 140.786  0.00  0.00    +0.000 OA
BRANCH  42  47
ATOM     43  O   UNL     1     112.003 129.986 141.959  0.00  0.00    +0.000 OA
ATOM     44  O   UNL     1     110.929 131.871 141.719  0.00  0.00    +0.000 OA
ATOM     45  O   UNL     1     110.883 131.693 143.359  0.00  0.00    +0.000 OA
ATOM     46  O   UNL     1     111.584 130.376 144.065  0.00  0.00    +0.000 OA
ATOM     47  C   UNL     1     111.653 130.643 141.606  0.00  0.00    +0.000 C 
ATOM     48  C   UNL     1     111.280 131.212 142.072  0.00  0.00    +0.000 C 
ATOM     49  C   UNL     1     111.257 131.124 142.892  0.00  0.00    +0.000 C 
ATOM     50  C   UNL     1     111.607 130.466 143.245  0.00  0.00    +0.000 C 
ATOM     51  C   UNL     1     111.980 129.897 142.778  0.00  0.00    +0.000 C 
ENDBRANCH  42  47
ENDBRANCH  36  42
ENDBRANCH  32  39
ENDBRANCH  31  32
ENDBRANCH   5  31
TORSDOF 8
ENDMDL
MODEL 8
REMARK VINA RESULT:     -11.1      1.952      4.960
REMARK  Name = 44258982
REMARK  8 active torsions:
REMARK  status: ('A' for Active; 'I' for Inactive)
REMARK    1  A    between atoms: O_2  and  C_20
REMARK    2  A    between atoms: O_2  and  C_27
REMARK    3  A    between atoms: O_3  and  C_23
REMARK    4  A    between atoms: O_3  and  C_29
REMARK    5  A    between atoms: O_10  and  C_32
REMARK    6  A    between atoms: O_10  and  C_37
REMARK    7  A    between atoms: C_25  and  C_29
REMARK    8  A    between atoms: C_38  and  C_41
REMARK                            x       y       z     vdW  Elec       q    Type
REMARK                         _______ _______ _______ _____ _____    ______ ____
ROOT
ATOM      1  O   UNL     1     112.650 127.870 137.674  0.00  0.00    +0.000 OA
ATOM      2  O   UNL     1     112.776 129.814 138.658  0.00  0.00    +0.000 OA
ATOM      3  O   UNL     1     113.706 130.081 137.321  0.00  0.00    +0.000 OA
ATOM      4  O   UNL     1     113.931 128.874 136.219  0.00  0.00    +0.000 OA
ATOM      5  C   UNL     1     112.537 128.473 138.225  0.00  0.00    +0.000 C 
ATOM      6  C   UNL     1     112.889 129.211 138.108  0.00  0.00    +0.000 C 
ATOM      7  C   UNL     1     113.354 129.343 137.439  0.00  0.00    +0.000 C 
ATOM      8  C   UNL     1     113.466 128.740 136.888  0.00  0.00    +0.000 C 
ATOM      9  C   UNL     1     113.115 128.004 137.006  0.00  0.00    +0.000 C 
ENDROOT
BRANCH   9  10
ATOM     10  O   UNL     1     113.228 127.400 136.455  0.00  0.00    +0.000 OA
BRANCH  10  15
ATOM     11  O   UNL     1     111.957 125.685 135.996  0.00  0.00    +0.000 OA
ATOM     12  O   UNL     1     111.910 128.153 135.808  0.00  0.00    +0.000 OA
ATOM     13  O   UNL     1     110.594 128.110 135.216  0.00  0.00    +0.000 OA
ATOM     14  O   UNL     1     109.303 125.524 134.806  0.00  0.00    +0.000 OA
ATOM     15  C   UNL     1     112.584 126.953 136.194  0.00  0.00    +0.000 A 
ATOM     16  C   UNL     1     112.600 126.131 136.256  0.00  0.00    +0.000 A 
ATOM     17  C   UNL     1     111.925 127.330 135.871  0.00  0.00    +0.000 A 
ATOM     18  C   UNL     1     111.282 126.884 135.610  0.00  0.00    +0.000 A 
ATOM     19  C   UNL     1     111.298 126.061 135.672  0.00  0.00    +0.000 A 
ATOM     20  C   UNL     1     110.602 127.288 135.275  0.00  0.00    +0.000 A 
ATOM     21  C   UNL     1     110.634 125.586 135.404  0.00  0.00    +0.000 A 
ATOM     22  C   UNL     1     109.928 126.828 135.001  0.00  0.00    +0.000 A 
ATOM     23  C   UNL     1     109.945 125.972 135.066  0.00  0.00    +0.000 A 
BRANCH  16  25
ATOM     24  O   UNL     1     115.239 124.628 137.548  0.00  0.00    +0.000 OA
ATOM     25  C   UNL     1     113.259 125.755 136.580  0.00  0.00    +0.000 A 
ATOM     26  C   UNL     1     113.205 125.387 137.316  0.00  0.00    +0.000 A 
ATOM     27  C   UNL     1     113.973 125.747 136.167  0.00  0.00    +0.000 A 
ATOM     28  C   UNL     1     113.865 125.011 137.639  0.00  0.00    +0.000 A 
ATOM     29  C   UNL     1     114.633 125.372 136.489  0.00  0.00    +0.000 A 
ATOM     30  C   UNL     1     114.579 125.004 137.226  0.00  0.00    +0.000 A 
ENDBRANCH  16  25
ENDBRANCH  10  15
ENDBRANCH   9  10
BRANCH   5  31
ATOM     31  C   UNL     1     112.073 128.341 138.894  0.00  0.00    +0.000 C 
BRANCH  31  32
ATOM     32  O   UNL     1     111.836 127.574 139.087  0.00  0.00    +0.000 OA
BRANCH  32  39
ATOM     33  O   UNL     1     111.916 127.839 140.489  0.00  0.00    +0.000 OA
ATOM     34  O   UNL     1     110.808 126.318 139.383  0.00  0.00    +0.000 OA
ATOM     35  O   UNL     1     110.967 126.849 142.187  0.00  0.00    +0.000 OA
ATOM     36  C   UNL     1     110.887 126.584 140.785  0.00  0.00    +0.000 C 
ATOM     37  C   UNL     1     111.105 126.765 140.010  0.00  0.00    +0.000 C 
ATOM     38  C   UNL     1     111.185 127.030 141.412  0.00  0.00    +0.000 C 
ATOM     39  C   UNL     1     111.619 127.393 139.862  0.00  0.00    +0.000 C 
ATOM     40  C   UNL     1     111.699 127.658 141.264  0.00  0.00    +0.000 C 
ATOM     41  C   UNL     1     111.996 128.105 141.891  0.00  0.00    +0.000 C 
BRANCH  36  42
ATOM     42  O   UNL     1     110.373 125.956 140.933  0.00  0.00    +0.000 OA
BRANCH  42  47
ATOM     43  O   UNL     1     109.267 126.860 140.948  0.00  0.00    +0.000 OA
ATOM     44  O   UNL     1     109.334 124.682 141.075  0.00  0.00    +0.000 OA
ATOM     45  O   UNL     1     107.708 124.950 141.161  0.00  0.00    +0.000 OA
ATOM     46  O   UNL     1     107.121 126.491 141.105  0.00  0.00    +0.000 OA
ATOM     47  C   UNL     1     109.560 126.090 140.976  0.00  0.00    +0.000 C 
ATOM     48  C   UNL     1     109.041 125.453 141.047  0.00  0.00    +0.000 C 
ATOM     49  C   UNL     1     108.228 125.587 141.090  0.00  0.00    +0.000 C 
ATOM     50  C   UNL     1     107.935 126.357 141.062  0.00  0.00    +0.000 C 
ATOM     51  C   UNL     1     108.455 126.994 140.991  0.00  0.00    +0.000 C 
ENDBRANCH  42  47
ENDBRANCH  36  42
ENDBRANCH  32  39
ENDBRANCH  31  32
ENDBRANCH   5  31
TORSDOF 8
ENDMDL
MODEL 9
REMARK VINA RESULT:     -11.0      1.735      3.847
REMARK  Name = 44258982
REMARK  8 active torsions:
REMARK  status: ('A' for Active; 'I' for Inactive)
REMARK    1  A    between atoms: O_2  and  C_20
REMARK    2  A    between atoms: O_2  and  C_27
REMARK    3  A    between atoms: O_3  and  C_23
REMARK    4  A    between atoms: O_3  and  C_29
REMARK    5  A    between atoms: O_10  and  C_32
REMARK    6  A    between atoms: O_10  and  C_37
REMARK    7  A    between atoms: C_25  and  C_29
REMARK    8  A    between atoms: C_38  and  C_41
REMARK                            x       y       z     vdW  Elec       q    Type
REMARK                         _______ _______ _______ _____ _____    ______ ____
ROOT
ATOM      1  O   UNL     1     112.120 128.131 138.236  0.00  0.00    +0.000 OA
ATOM      2  O   UNL     1     111.990 128.316 140.407  0.00  0.00    +0.000 OA
ATOM      3  O   UNL     1     113.301 127.325 140.257  0.00  0.00    +0.000 OA
ATOM      4  O   UNL     1     113.825 126.871 138.760  0.00  0.00    +0.000 OA
ATOM      5  C   UNL     1     111.858 128.358 138.984  0.00  0.00    +0.000 C 
ATOM      6  C   UNL     1     112.252 128.089 139.659  0.00  0.00    +0.000 C 
ATOM      7  C   UNL     1     112.907 127.594 139.583  0.00  0.00    +0.000 C 
ATOM      8  C   UNL     1     113.169 127.367 138.834  0.00  0.00    +0.000 C 
ATOM      9  C   UNL     1     112.776 127.635 138.161  0.00  0.00    +0.000 C 
ENDROOT
BRANCH   9  10
ATOM     10  O   UNL     1     113.038 127.409 137.412  0.00  0.00    +0.000 OA
BRANCH  10  15
ATOM     11  O   UNL     1     111.949 127.379 135.521  0.00  0.00    +0.000 OA
ATOM     12  O   UNL     1     111.940 126.211 137.703  0.00  0.00    +0.000 OA
ATOM     13  O   UNL     1     110.834 125.382 137.286  0.00  0.00    +0.000 OA
ATOM     14  O   UNL     1     109.718 125.742 134.612  0.00  0.00    +0.000 OA
ATOM     15  C   UNL     1     112.492 127.199 136.830  0.00  0.00    +0.000 A 
ATOM     16  C   UNL     1     112.495 127.588 136.102  0.00  0.00    +0.000 A 
ATOM     17  C   UNL     1     111.943 126.601 136.975  0.00  0.00    +0.000 A 
ATOM     18  C   UNL     1     111.397 126.391 136.393  0.00  0.00    +0.000 A 
ATOM     19  C   UNL     1     111.400 126.780 135.665  0.00  0.00    +0.000 A 
ATOM     20  C   UNL     1     110.831 125.766 136.556  0.00  0.00    +0.000 A 
ATOM     21  C   UNL     1     110.837 126.572 135.051  0.00  0.00    +0.000 A 
ATOM     22  C   UNL     1     110.259 125.544 135.953  0.00  0.00    +0.000 A 
ATOM     23  C   UNL     1     110.262 125.949 135.196  0.00  0.00    +0.000 A 
BRANCH  16  25
ATOM     24  O   UNL     1     114.689 129.984 135.524  0.00  0.00    +0.000 OA
ATOM     25  C   UNL     1     113.044 128.187 135.958  0.00  0.00    +0.000 A 
ATOM     26  C   UNL     1     113.839 128.000 135.849  0.00  0.00    +0.000 A 
ATOM     27  C   UNL     1     112.797 128.973 135.922  0.00  0.00    +0.000 A 
ATOM     28  C   UNL     1     114.389 128.599 135.704  0.00  0.00    +0.000 A 
ATOM     29  C   UNL     1     113.345 129.572 135.777  0.00  0.00    +0.000 A 
ATOM     30  C   UNL     1     114.141 129.385 135.669  0.00  0.00    +0.000 A 
ENDBRANCH  16  25
ENDBRANCH  10  15
ENDBRANCH   9  10
BRANCH   5  31
ATOM     31  C   UNL     1     111.203 128.853 139.060  0.00  0.00    +0.000 C 
BRANCH  31  32
ATOM     32  O   UNL     1     110.853 129.180 138.389  0.00  0.00    +0.000 OA
BRANCH  32  39
ATOM     33  O   UNL     1     110.199 130.196 139.152  0.00  0.00    +0.000 OA
ATOM     34  O   UNL     1     109.746 129.376 137.181  0.00  0.00    +0.000 OA
ATOM     35  O   UNL     1     108.439 131.408 138.707  0.00  0.00    +0.000 OA
ATOM     36  C   UNL     1     109.092 130.392 137.944  0.00  0.00    +0.000 C 
ATOM     37  C   UNL     1     109.696 129.835 137.865  0.00  0.00    +0.000 C 
ATOM     38  C   UNL     1     109.042 130.851 138.628  0.00  0.00    +0.000 C 
ATOM     39  C   UNL     1     110.249 129.737 138.469  0.00  0.00    +0.000 C 
ATOM     40  C   UNL     1     109.596 130.754 139.232  0.00  0.00    +0.000 C 
ATOM     41  C   UNL     1     109.546 131.213 139.915  0.00  0.00    +0.000 C 
BRANCH  36  42
ATOM     42  O   UNL     1     108.539 130.490 137.340  0.00  0.00    +0.000 OA
BRANCH  42  47
ATOM     43  O   UNL     1     109.364 131.494 136.746  0.00  0.00    +0.000 OA
ATOM     44  O   UNL     1     107.461 130.641 136.100  0.00  0.00    +0.000 OA
ATOM     45  O   UNL     1     107.747 131.722 134.886  0.00  0.00    +0.000 OA
ATOM     46  O   UNL     1     109.111 132.650 134.912  0.00  0.00    +0.000 OA
ATOM     47  C   UNL     1     108.682 131.030 136.733  0.00  0.00    +0.000 C 
ATOM     48  C   UNL     1     108.143 131.106 136.113  0.00  0.00    +0.000 C 
ATOM     49  C   UNL     1     108.286 131.646 135.506  0.00  0.00    +0.000 C 
ATOM     50  C   UNL     1     108.968 132.109 135.519  0.00  0.00    +0.000 C 
ATOM     51  C   UNL     1     109.507 132.034 136.139  0.00  0.00    +0.000 C 
ENDBRANCH  42  47
ENDBRANCH  36  42
ENDBRANCH  32  39
ENDBRANCH  31  32
ENDBRANCH   5  31
TORSDOF 8
ENDMDL
MODEL 10
REMARK VINA RESULT:     -11.0      2.160      4.921
REMARK  Name = 44258982
REMARK  8 active torsions:
REMARK  status: ('A' for Active; 'I' for Inactive)
REMARK    1  A    between atoms: O_2  and  C_20
REMARK    2  A    between atoms: O_2  and  C_27
REMARK    3  A    between atoms: O_3  and  C_23
REMARK    4  A    between atoms: O_3  and  C_29
REMARK    5  A    between atoms: O_10  and  C_32
REMARK    6  A    between atoms: O_10  and  C_37
REMARK    7  A    between atoms: C_25  and  C_29
REMARK    8  A    between atoms: C_38  and  C_41
REMARK                            x       y       z     vdW  Elec       q    Type
REMARK                         _______ _______ _______ _____ _____    ______ ____
ROOT
ATOM      1  O   UNL     1     112.103 127.696 137.187  0.00  0.00    +0.000 OA
ATOM      2  O   UNL     1     113.290 129.442 137.745  0.00  0.00    +0.000 OA
ATOM      3  O   UNL     1     113.299 129.572 136.100  0.00  0.00    +0.000 OA
ATOM      4  O   UNL     1     112.511 128.452 135.180  0.00  0.00    +0.000 OA
ATOM      5  C   UNL     1     112.497 128.256 137.647  0.00  0.00    +0.000 C 
ATOM      6  C   UNL     1     112.896 128.882 137.285  0.00  0.00    +0.000 C 
ATOM      7  C   UNL     1     112.900 128.946 136.463  0.00  0.00    +0.000 C 
ATOM      8  C   UNL     1     112.506 128.386 136.002  0.00  0.00    +0.000 C 
ATOM      9  C   UNL     1     112.108 127.762 136.365  0.00  0.00    +0.000 C 
ENDROOT
BRANCH   9  10
ATOM     10  O   UNL     1     111.714 127.202 135.904  0.00  0.00    +0.000 OA
BRANCH  10  15
ATOM     11  O   UNL     1     110.967 125.237 136.492  0.00  0.00    +0.000 OA
ATOM     12  O   UNL     1     113.130 126.386 136.133  0.00  0.00    +0.000 OA
ATOM     13  O   UNL     1     113.856 125.188 136.481  0.00  0.00    +0.000 OA
ATOM     14  O   UNL     1     112.365 122.783 137.206  0.00  0.00    +0.000 OA
ATOM     15  C   UNL     1     111.701 126.410 136.139  0.00  0.00    +0.000 A 
ATOM     16  C   UNL     1     110.980 126.027 136.258  0.00  0.00    +0.000 A 
ATOM     17  C   UNL     1     112.409 126.003 136.253  0.00  0.00    +0.000 A 
ATOM     18  C   UNL     1     112.395 125.211 136.487  0.00  0.00    +0.000 A 
ATOM     19  C   UNL     1     111.675 124.828 136.607  0.00  0.00    +0.000 A 
ATOM     20  C   UNL     1     113.139 124.797 136.603  0.00  0.00    +0.000 A 
ATOM     21  C   UNL     1     111.647 124.005 136.851  0.00  0.00    +0.000 A 
ATOM     22  C   UNL     1     113.132 123.973 136.847  0.00  0.00    +0.000 A 
ATOM     23  C   UNL     1     112.382 123.574 136.972  0.00  0.00    +0.000 A 
BRANCH  16  25
ATOM     24  O   UNL     1     108.150 127.662 135.802  0.00  0.00    +0.000 OA
ATOM     25  C   UNL     1     110.272 126.436 136.144  0.00  0.00    +0.000 A 
ATOM     26  C   UNL     1     110.026 126.630 135.381  0.00  0.00    +0.000 A 
ATOM     27  C   UNL     1     109.811 126.651 136.793  0.00  0.00    +0.000 A 
ATOM     28  C   UNL     1     109.319 127.039 135.266  0.00  0.00    +0.000 A 
ATOM     29  C   UNL     1     109.103 127.059 136.680  0.00  0.00    +0.000 A 
ATOM     30  C   UNL     1     108.857 127.254 135.916  0.00  0.00    +0.000 A 
ENDBRANCH  16  25
ENDBRANCH  10  15
ENDBRANCH   9  10
BRANCH   5  31
ATOM     31  C   UNL     1     112.493 128.192 138.470  0.00  0.00    +0.000 C 
BRANCH  31  32
ATOM     32  O   UNL     1     111.777 128.170 138.879  0.00  0.00    +0.000 OA
BRANCH  32  39
ATOM     33  O   UNL     1     112.410 127.491 139.965  0.00  0.00    +0.000 OA
ATOM     34  O   UNL     1     110.401 128.324 139.776  0.00  0.00    +0.000 OA
ATOM     35  O   UNL     1     111.667 126.966 141.950  0.00  0.00    +0.000 OA
ATOM     36  C   UNL     1     111.034 127.645 140.863  0.00  0.00    +0.000 C 
ATOM     37  C   UNL     1     111.062 127.945 140.095  0.00  0.00    +0.000 C 
ATOM     38  C   UNL     1     111.695 127.267 141.182  0.00  0.00    +0.000 C 
ATOM     39  C   UNL     1     111.750 127.869 139.647  0.00  0.00    +0.000 C 
ATOM     40  C   UNL     1     112.383 127.190 140.733  0.00  0.00    +0.000 C 
ATOM     41  C   UNL     1     113.043 126.812 141.052  0.00  0.00    +0.000 C 
BRANCH  36  42
ATOM     42  O   UNL     1     110.346 127.722 141.312  0.00  0.00    +0.000 OA
BRANCH  42  47
ATOM     43  O   UNL     1     109.828 126.523 140.733  0.00  0.00    +0.000 OA
ATOM     44  O   UNL     1     109.066 127.775 142.351  0.00  0.00    +0.000 OA
ATOM     45  O   UNL     1     107.906 126.602 142.292  0.00  0.00    +0.000 OA
ATOM     46  O   UNL     1     108.028 125.376 141.194  0.00  0.00    +0.000 OA
ATOM     47  C   UNL     1     109.767 127.135 141.282  0.00  0.00    +0.000 C 
ATOM     48  C   UNL     1     109.127 127.161 141.801  0.00  0.00    +0.000 C 
ATOM     49  C   UNL     1     108.547 126.575 141.772  0.00  0.00    +0.000 C 
ATOM     50  C   UNL     1     108.608 125.963 141.223  0.00  0.00    +0.000 C 
ATOM     51  C   UNL     1     109.249 125.937 140.704  0.00  0.00    +0.000 C 
ENDBRANCH  42  47
ENDBRANCH  36  42
ENDBRANCH  32  39
ENDBRANCH  31  32
ENDBRANCH   5  31
TORSDOF 8
ENDMDL
