MODEL 1
REMARK VINA RESULT:     -10.5      0.000      0.000
REMARK  Name = 24211972
REMARK  6 active torsions:
REMARK  status: ('A' for Active; 'I' for Inactive)
REMARK    1  A    between atoms: O_1  and  C_16
REMARK    2  A    between atoms: O_1  and  C_19
REMARK    3  A    between atoms: O_5  and  C_21
REMARK    4  A    between atoms: O_5  and  C_28
REMARK    5  A    between atoms: C_22  and  C_26
REMARK    6  A    between atoms: C_35  and  C_37
REMARK                            x       y       z     vdW  Elec       q    Type
REMARK                         _______ _______ _______ _____ _____    ______ ____
ROOT
ATOM      1  O   UNL     1     105.209 128.057 142.811  0.00  0.00    +0.000 OA
ENDROOT
BRANCH   1   6
ATOM      2  O   UNL     1     103.318 130.103 141.959  0.00  0.00    +0.000 OA
ATOM      3  O   UNL     1     103.788 127.805 140.272  0.00  0.00    +0.000 OA
ATOM      4  O   UNL     1     102.859 128.837 139.882  0.00  0.00    +0.000 OA
ATOM      5  O   UNL     1     102.087 130.267 140.164  0.00  0.00    +0.000 OA
ATOM      6  C   UNL     1     104.670 128.347 142.258  0.00  0.00    +0.000 A 
ATOM      7  C   UNL     1     104.264 129.092 142.399  0.00  0.00    +0.000 A 
ATOM      8  C   UNL     1     104.510 127.909 141.537  0.00  0.00    +0.000 A 
ATOM      9  C   UNL     1     103.705 129.387 141.818  0.00  0.00    +0.000 A 
ATOM     10  C   UNL     1     103.947 128.220 140.967  0.00  0.00    +0.000 A 
ATOM     11  C   UNL     1     103.552 128.965 141.126  0.00  0.00    +0.000 A 
ATOM     12  C   UNL     1     103.012 129.259 140.575  0.00  0.00    +0.000 A 
ATOM     13  C   UNL     1     102.779 130.396 141.408  0.00  0.00    +0.000 A 
ATOM     14  C   UNL     1     102.626 129.974 140.716  0.00  0.00    +0.000 A 
BRANCH  13  16
ATOM     15  O   UNL     1     101.233 133.256 141.972  0.00  0.00    +0.000 OA
ATOM     16  C   UNL     1     102.393 131.111 141.549  0.00  0.00    +0.000 A 
ATOM     17  C   UNL     1     102.740 131.821 141.312  0.00  0.00    +0.000 A 
ATOM     18  C   UNL     1     101.659 131.115 141.927  0.00  0.00    +0.000 A 
ATOM     19  C   UNL     1     102.353 132.536 141.454  0.00  0.00    +0.000 A 
ATOM     20  C   UNL     1     101.273 131.831 142.068  0.00  0.00    +0.000 A 
ATOM     21  C   UNL     1     101.620 132.541 141.831  0.00  0.00    +0.000 A 
ENDBRANCH  13  16
ENDBRANCH   1   6
BRANCH   1  28
ATOM     22  O   UNL     1     106.366 128.703 142.277  0.00  0.00    +0.000 OA
ATOM     23  O   UNL     1     107.732 126.715 142.831  0.00  0.00    +0.000 OA
ATOM     24  O   UNL     1     108.433 128.023 142.113  0.00  0.00    +0.000 OA
ATOM     25  C   UNL     1     106.470 127.386 142.821  0.00  0.00    +0.000 C 
ATOM     26  C   UNL     1     107.277 127.377 142.646  0.00  0.00    +0.000 C 
ATOM     27  C   UNL     1     107.627 128.032 142.287  0.00  0.00    +0.000 C 
ATOM     28  C   UNL     1     106.014 128.049 142.636  0.00  0.00    +0.000 C 
ATOM     29  C   UNL     1     107.172 128.695 142.103  0.00  0.00    +0.000 C 
BRANCH  29  31
ATOM     30  O   UNL     1     107.324 129.550 140.968  0.00  0.00    +0.000 OA
ATOM     31  C   UNL     1     107.522 129.349 141.743  0.00  0.00    +0.000 C 
ENDBRANCH  29  31
BRANCH  25  32
ATOM     32  O   UNL     1     106.119 126.731 143.180  0.00  0.00    +0.000 OA
BRANCH  32  37
ATOM     33  O   UNL     1     106.453 127.248 144.471  0.00  0.00    +0.000 OA
ATOM     34  O   UNL     1     105.668 125.301 143.869  0.00  0.00    +0.000 OA
ATOM     35  O   UNL     1     105.776 125.102 145.504  0.00  0.00    +0.000 OA
ATOM     36  O   UNL     1     106.335 126.334 146.449  0.00  0.00    +0.000 OA
ATOM     37  C   UNL     1     106.173 126.632 143.998  0.00  0.00    +0.000 C 
ATOM     38  C   UNL     1     105.948 125.917 144.342  0.00  0.00    +0.000 C 
ATOM     39  C   UNL     1     106.002 125.818 145.160  0.00  0.00    +0.000 C 
ATOM     40  C   UNL     1     106.281 126.433 145.633  0.00  0.00    +0.000 C 
ATOM     41  C   UNL     1     106.506 127.148 145.288  0.00  0.00    +0.000 C 
ATOM     42  C   UNL     1     106.786 127.764 145.761  0.00  0.00    +0.000 C 
ENDBRANCH  32  37
ENDBRANCH  25  32
ENDBRANCH   1  28
TORSDOF 6
ENDMDL
MODEL 2
REMARK VINA RESULT:     -10.4      3.580      5.994
REMARK  Name = 24211972
REMARK  6 active torsions:
REMARK  status: ('A' for Active; 'I' for Inactive)
REMARK    1  A    between atoms: O_1  and  C_16
REMARK    2  A    between atoms: O_1  and  C_19
REMARK    3  A    between atoms: O_5  and  C_21
REMARK    4  A    between atoms: O_5  and  C_28
REMARK    5  A    between atoms: C_22  and  C_26
REMARK    6  A    between atoms: C_35  and  C_37
REMARK                            x       y       z     vdW  Elec       q    Type
REMARK                         _______ _______ _______ _____ _____    ______ ____
ROOT
ATOM      1  O   UNL     1     107.226 125.711 140.720  0.00  0.00    +0.000 OA
ENDROOT
BRANCH   1   6
ATOM      2  O   UNL     1     104.999 124.395 139.381  0.00  0.00    +0.000 OA
ATOM      3  O   UNL     1     105.772 123.545 142.032  0.00  0.00    +0.000 OA
ATOM      4  O   UNL     1     104.674 122.916 141.340  0.00  0.00    +0.000 OA
ATOM      5  O   UNL     1     103.691 122.769 140.023  0.00  0.00    +0.000 OA
ATOM      6  C   UNL     1     106.627 125.144 140.717  0.00  0.00    +0.000 A 
ATOM      7  C   UNL     1     106.111 125.062 140.034  0.00  0.00    +0.000 A 
ATOM      8  C   UNL     1     106.514 124.630 141.396  0.00  0.00    +0.000 A 
ATOM      9  C   UNL     1     105.490 124.469 140.040  0.00  0.00    +0.000 A 
ATOM     10  C   UNL     1     105.888 124.043 141.384  0.00  0.00    +0.000 A 
ATOM     11  C   UNL     1     105.382 123.976 140.693  0.00  0.00    +0.000 A 
ATOM     12  C   UNL     1     104.783 123.410 140.687  0.00  0.00    +0.000 A 
ATOM     13  C   UNL     1     104.399 123.829 139.376  0.00  0.00    +0.000 A 
ATOM     14  C   UNL     1     104.291 123.336 140.029  0.00  0.00    +0.000 A 
BRANCH  13  16
ATOM     15  O   UNL     1     102.432 123.534 136.742  0.00  0.00    +0.000 OA
ATOM     16  C   UNL     1     103.907 123.755 138.718  0.00  0.00    +0.000 A 
ATOM     17  C   UNL     1     103.134 124.042 138.746  0.00  0.00    +0.000 A 
ATOM     18  C   UNL     1     104.189 123.394 138.031  0.00  0.00    +0.000 A 
ATOM     19  C   UNL     1     102.643 123.968 138.088  0.00  0.00    +0.000 A 
ATOM     20  C   UNL     1     103.697 123.321 137.372  0.00  0.00    +0.000 A 
ATOM     21  C   UNL     1     102.924 123.607 137.401  0.00  0.00    +0.000 A 
ENDBRANCH  13  16
ENDBRANCH   1   6
BRANCH   1  28
ATOM     22  O   UNL     1     106.489 126.742 141.379  0.00  0.00    +0.000 OA
ATOM     23  O   UNL     1     108.529 127.415 142.609  0.00  0.00    +0.000 OA
ATOM     24  O   UNL     1     107.112 128.221 142.858  0.00  0.00    +0.000 OA
ATOM     25  C   UNL     1     107.877 126.563 141.664  0.00  0.00    +0.000 C 
ATOM     26  C   UNL     1     107.849 127.191 142.199  0.00  0.00    +0.000 C 
ATOM     27  C   UNL     1     107.140 127.593 142.324  0.00  0.00    +0.000 C 
ATOM     28  C   UNL     1     107.197 126.338 141.254  0.00  0.00    +0.000 C 
ATOM     29  C   UNL     1     106.460 127.369 141.914  0.00  0.00    +0.000 C 
BRANCH  29  31
ATOM     30  O   UNL     1     105.280 127.988 141.397  0.00  0.00    +0.000 OA
ATOM     31  C   UNL     1     105.752 127.772 142.039  0.00  0.00    +0.000 C 
ENDBRANCH  29  31
BRANCH  25  32
ATOM     32  O   UNL     1     108.586 126.160 141.539  0.00  0.00    +0.000 OA
BRANCH  32  37
ATOM     33  O   UNL     1     108.963 127.118 140.547  0.00  0.00    +0.000 OA
ATOM     34  O   UNL     1     110.084 125.474 141.446  0.00  0.00    +0.000 OA
ATOM     35  O   UNL     1     111.210 126.088 140.407  0.00  0.00    +0.000 OA
ATOM     36  O   UNL     1     110.837 127.389 139.463  0.00  0.00    +0.000 OA
ATOM     37  C   UNL     1     109.149 126.467 141.020  0.00  0.00    +0.000 C 
ATOM     38  C   UNL     1     109.898 126.124 140.973  0.00  0.00    +0.000 C 
ATOM     39  C   UNL     1     110.461 126.432 140.454  0.00  0.00    +0.000 C 
ATOM     40  C   UNL     1     110.275 127.082 139.981  0.00  0.00    +0.000 C 
ATOM     41  C   UNL     1     109.526 127.425 140.029  0.00  0.00    +0.000 C 
ATOM     42  C   UNL     1     109.340 128.075 139.556  0.00  0.00    +0.000 C 
ENDBRANCH  32  37
ENDBRANCH  25  32
ENDBRANCH   1  28
TORSDOF 6
ENDMDL
MODEL 3
REMARK VINA RESULT:     -10.4      7.405     10.664
REMARK  Name = 24211972
REMARK  6 active torsions:
REMARK  status: ('A' for Active; 'I' for Inactive)
REMARK    1  A    between atoms: O_1  and  C_16
REMARK    2  A    between atoms: O_1  and  C_19
REMARK    3  A    between atoms: O_5  and  C_21
REMARK    4  A    between atoms: O_5  and  C_28
REMARK    5  A    between atoms: C_22  and  C_26
REMARK    6  A    between atoms: C_35  and  C_37
REMARK                            x       y       z     vdW  Elec       q    Type
REMARK                         _______ _______ _______ _____ _____    ______ ____
ROOT
ATOM      1  O   UNL     1     111.430 129.723 136.954  0.00  0.00    +0.000 OA
ENDROOT
BRANCH   1   6
ATOM      2  O   UNL     1     112.929 127.228 136.834  0.00  0.00    +0.000 OA
ATOM      3  O   UNL     1     113.890 129.538 135.390  0.00  0.00    +0.000 OA
ATOM      4  O   UNL     1     114.606 128.287 135.354  0.00  0.00    +0.000 OA
ATOM      5  O   UNL     1     114.776 126.706 135.795  0.00  0.00    +0.000 OA
ATOM      6  C   UNL     1     112.075 129.288 136.679  0.00  0.00    +0.000 A 
ATOM      7  C   UNL     1     112.169 128.464 136.905  0.00  0.00    +0.000 A 
ATOM      8  C   UNL     1     112.657 129.655 136.165  0.00  0.00    +0.000 A 
ATOM      9  C   UNL     1     112.844 128.019 136.614  0.00  0.00    +0.000 A 
ATOM     10  C   UNL     1     113.326 129.194 135.884  0.00  0.00    +0.000 A 
ATOM     11  C   UNL     1     113.403 128.372 136.121  0.00  0.00    +0.000 A 
ATOM     12  C   UNL     1     114.047 127.934 135.848  0.00  0.00    +0.000 A 
ATOM     13  C   UNL     1     113.573 126.791 136.561  0.00  0.00    +0.000 A 
ATOM     14  C   UNL     1     114.132 127.144 136.068  0.00  0.00    +0.000 A 
BRANCH  13  16
ATOM     15  O   UNL     1     113.913 123.629 137.443  0.00  0.00    +0.000 OA
ATOM     16  C   UNL     1     113.658 126.000 136.782  0.00  0.00    +0.000 A 
ATOM     17  C   UNL     1     113.205 125.418 136.411  0.00  0.00    +0.000 A 
ATOM     18  C   UNL     1     114.196 125.792 137.372  0.00  0.00    +0.000 A 
ATOM     19  C   UNL     1     113.291 124.628 136.632  0.00  0.00    +0.000 A 
ATOM     20  C   UNL     1     114.281 125.002 137.593  0.00  0.00    +0.000 A 
ATOM     21  C   UNL     1     113.828 124.420 137.222  0.00  0.00    +0.000 A 
ENDBRANCH  13  16
ENDBRANCH   1   6
BRANCH   1  28
ATOM     22  O   UNL     1     110.608 129.309 135.861  0.00  0.00    +0.000 OA
ATOM     23  O   UNL     1     108.583 129.817 137.191  0.00  0.00    +0.000 OA
ATOM     24  O   UNL     1     108.437 129.234 135.655  0.00  0.00    +0.000 OA
ATOM     25  C   UNL     1     110.007 129.770 137.072  0.00  0.00    +0.000 C 
ATOM     26  C   UNL     1     109.258 129.648 136.747  0.00  0.00    +0.000 C 
ATOM     27  C   UNL     1     109.185 129.356 135.979  0.00  0.00    +0.000 C 
ATOM     28  C   UNL     1     110.682 129.601 136.629  0.00  0.00    +0.000 C 
ATOM     29  C   UNL     1     109.860 129.187 135.536  0.00  0.00    +0.000 C 
BRANCH  29  31
ATOM     30  O   UNL     1     109.934 128.100 134.612  0.00  0.00    +0.000 OA
ATOM     31  C   UNL     1     109.786 128.896 134.768  0.00  0.00    +0.000 C 
ENDBRANCH  29  31
BRANCH  25  32
ATOM     32  O   UNL     1     110.080 130.061 137.841  0.00  0.00    +0.000 OA
BRANCH  32  37
ATOM     33  O   UNL     1     110.070 131.399 137.336  0.00  0.00    +0.000 OA
ATOM     34  O   UNL     1     110.111 130.644 139.384  0.00  0.00    +0.000 OA
ATOM     35  O   UNL     1     110.115 132.273 139.651  0.00  0.00    +0.000 OA
ATOM     36  O   UNL     1     110.090 133.318 138.374  0.00  0.00    +0.000 OA
ATOM     37  C   UNL     1     110.083 130.876 137.974  0.00  0.00    +0.000 C 
ATOM     38  C   UNL     1     110.098 131.167 138.746  0.00  0.00    +0.000 C 
ATOM     39  C   UNL     1     110.100 131.982 138.879  0.00  0.00    +0.000 C 
ATOM     40  C   UNL     1     110.088 132.504 138.241  0.00  0.00    +0.000 C 
ATOM     41  C   UNL     1     110.073 132.212 137.469  0.00  0.00    +0.000 C 
ATOM     42  C   UNL     1     110.060 132.735 136.831  0.00  0.00    +0.000 C 
ENDBRANCH  32  37
ENDBRANCH  25  32
ENDBRANCH   1  28
TORSDOF 6
ENDMDL
MODEL 4
REMARK VINA RESULT:     -10.4      6.428      8.314
REMARK  Name = 24211972
REMARK  6 active torsions:
REMARK  status: ('A' for Active; 'I' for Inactive)
REMARK    1  A    between atoms: O_1  and  C_16
REMARK    2  A    between atoms: O_1  and  C_19
REMARK    3  A    between atoms: O_5  and  C_21
REMARK    4  A    between atoms: O_5  and  C_28
REMARK    5  A    between atoms: C_22  and  C_26
REMARK    6  A    between atoms: C_35  and  C_37
REMARK                            x       y       z     vdW  Elec       q    Type
REMARK                         _______ _______ _______ _____ _____    ______ ____
ROOT
ATOM      1  O   UNL     1     110.595 127.030 137.013  0.00  0.00    +0.000 OA
ENDROOT
BRANCH   1   6
ATOM      2  O   UNL     1     110.014 129.880 137.171  0.00  0.00    +0.000 OA
ATOM      3  O   UNL     1     108.225 128.139 135.717  0.00  0.00    +0.000 OA
ATOM      4  O   UNL     1     107.968 129.555 135.816  0.00  0.00    +0.000 OA
ATOM      5  O   UNL     1     108.373 131.062 136.351  0.00  0.00    +0.000 OA
ATOM      6  C   UNL     1     110.114 127.674 136.827  0.00  0.00    +0.000 A 
ATOM      7  C   UNL     1     110.319 128.462 137.102  0.00  0.00    +0.000 A 
ATOM      8  C   UNL     1     109.404 127.562 136.356  0.00  0.00    +0.000 A 
ATOM      9  C   UNL     1     109.812 129.126 136.904  0.00  0.00    +0.000 A 
ATOM     10  C   UNL     1     108.909 128.238 136.168  0.00  0.00    +0.000 A 
ATOM     11  C   UNL     1     109.130 129.017 136.452  0.00  0.00    +0.000 A 
ATOM     12  C   UNL     1     108.651 129.663 136.268  0.00  0.00    +0.000 A 
ATOM     13  C   UNL     1     109.535 130.525 136.987  0.00  0.00    +0.000 A 
ATOM     14  C   UNL     1     108.853 130.417 136.535  0.00  0.00    +0.000 A 
BRANCH  13  16
ATOM     15  O   UNL     1     110.344 133.541 138.055  0.00  0.00    +0.000 OA
ATOM     16  C   UNL     1     109.737 131.279 137.254  0.00  0.00    +0.000 A 
ATOM     17  C   UNL     1     109.463 131.545 137.986  0.00  0.00    +0.000 A 
ATOM     18  C   UNL     1     110.213 131.767 136.789  0.00  0.00    +0.000 A 
ATOM     19  C   UNL     1     109.666 132.298 138.252  0.00  0.00    +0.000 A 
ATOM     20  C   UNL     1     110.415 132.521 137.056  0.00  0.00    +0.000 A 
ATOM     21  C   UNL     1     110.142 132.787 137.788  0.00  0.00    +0.000 A 
ENDBRANCH  13  16
ENDBRANCH   1   6
BRANCH   1  28
ATOM     22  O   UNL     1     109.881 126.627 138.183  0.00  0.00    +0.000 OA
ATOM     23  O   UNL     1     112.013 125.982 139.262  0.00  0.00    +0.000 OA
ATOM     24  O   UNL     1     110.589 125.794 140.072  0.00  0.00    +0.000 OA
ATOM     25  C   UNL     1     111.304 126.506 138.137  0.00  0.00    +0.000 C 
ATOM     26  C   UNL     1     111.303 126.197 138.902  0.00  0.00    +0.000 C 
ATOM     27  C   UNL     1     110.590 126.103 139.307  0.00  0.00    +0.000 C 
ATOM     28  C   UNL     1     110.593 126.721 137.777  0.00  0.00    +0.000 C 
ATOM     29  C   UNL     1     109.879 126.318 138.947  0.00  0.00    +0.000 C 
BRANCH  29  31
ATOM     30  O   UNL     1     108.485 126.007 138.943  0.00  0.00    +0.000 OA
ATOM     31  C   UNL     1     109.167 126.224 139.352  0.00  0.00    +0.000 C 
ENDBRANCH  29  31
BRANCH  25  32
ATOM     32  O   UNL     1     112.017 126.600 137.732  0.00  0.00    +0.000 OA
BRANCH  32  37
ATOM     33  O   UNL     1     111.922 125.273 137.208  0.00  0.00    +0.000 OA
ATOM     34  O   UNL     1     113.602 126.666 137.278  0.00  0.00    +0.000 OA
ATOM     35  O   UNL     1     114.299 125.372 136.527  0.00  0.00    +0.000 OA
ATOM     36  O   UNL     1     113.412 124.013 136.231  0.00  0.00    +0.000 OA
ATOM     37  C   UNL     1     112.366 125.953 137.356  0.00  0.00    +0.000 C 
ATOM     38  C   UNL     1     113.158 125.986 137.130  0.00  0.00    +0.000 C 
ATOM     39  C   UNL     1     113.507 125.339 136.754  0.00  0.00    +0.000 C 
ATOM     40  C   UNL     1     113.063 124.659 136.606  0.00  0.00    +0.000 C 
ATOM     41  C   UNL     1     112.271 124.627 136.833  0.00  0.00    +0.000 C 
ATOM     42  C   UNL     1     111.827 123.948 136.685  0.00  0.00    +0.000 C 
ENDBRANCH  32  37
ENDBRANCH  25  32
ENDBRANCH   1  28
TORSDOF 6
ENDMDL
MODEL 5
REMARK VINA RESULT:     -10.4      6.930     10.199
REMARK  Name = 24211972
REMARK  6 active torsions:
REMARK  status: ('A' for Active; 'I' for Inactive)
REMARK    1  A    between atoms: O_1  and  C_16
REMARK    2  A    between atoms: O_1  and  C_19
REMARK    3  A    between atoms: O_5  and  C_21
REMARK    4  A    between atoms: O_5  and  C_28
REMARK    5  A    between atoms: C_22  and  C_26
REMARK    6  A    between atoms: C_35  and  C_37
REMARK                            x       y       z     vdW  Elec       q    Type
REMARK                         _______ _______ _______ _____ _____    ______ ____
ROOT
ATOM      1  O   UNL     1     110.861 129.596 136.744  0.00  0.00    +0.000 OA
ENDROOT
BRANCH   1   6
ATOM      2  O   UNL     1     111.809 126.842 136.772  0.00  0.00    +0.000 OA
ATOM      3  O   UNL     1     113.655 128.977 136.156  0.00  0.00    +0.000 OA
ATOM      4  O   UNL     1     114.089 127.602 136.179  0.00  0.00    +0.000 OA
ATOM      5  O   UNL     1     113.785 125.995 136.393  0.00  0.00    +0.000 OA
ATOM      6  C   UNL     1     111.471 129.048 136.653  0.00  0.00    +0.000 A 
ATOM      7  C   UNL     1     111.320 128.209 136.763  0.00  0.00    +0.000 A 
ATOM      8  C   UNL     1     112.263 129.311 136.447  0.00  0.00    +0.000 A 
ATOM      9  C   UNL     1     111.961 127.646 136.665  0.00  0.00    +0.000 A 
ATOM     10  C   UNL     1     112.891 128.733 136.353  0.00  0.00    +0.000 A 
ATOM     11  C   UNL     1     112.721 127.899 136.468  0.00  0.00    +0.000 A 
ATOM     12  C   UNL     1     113.329 127.349 136.377  0.00  0.00    +0.000 A 
ATOM     13  C   UNL     1     112.417 126.291 136.681  0.00  0.00    +0.000 A 
ATOM     14  C   UNL     1     113.177 126.545 136.484  0.00  0.00    +0.000 A 
BRANCH  13  16
ATOM     15  O   UNL     1     111.810 123.076 137.108  0.00  0.00    +0.000 OA
ATOM     16  C   UNL     1     112.265 125.487 136.788  0.00  0.00    +0.000 A 
ATOM     17  C   UNL     1     112.379 125.141 137.529  0.00  0.00    +0.000 A 
ATOM     18  C   UNL     1     112.000 125.030 136.154  0.00  0.00    +0.000 A 
ATOM     19  C   UNL     1     112.227 124.338 137.635  0.00  0.00    +0.000 A 
ATOM     20  C   UNL     1     111.849 124.226 136.261  0.00  0.00    +0.000 A 
ATOM     21  C   UNL     1     111.962 123.880 137.001  0.00  0.00    +0.000 A 
ENDBRANCH  13  16
ENDBRANCH   1   6
BRANCH   1  28
ATOM     22  O   UNL     1     111.139 129.876 138.118  0.00  0.00    +0.000 OA
ATOM     23  O   UNL     1     108.727 130.248 138.529  0.00  0.00    +0.000 OA
ATOM     24  O   UNL     1     109.808 130.404 139.765  0.00  0.00    +0.000 OA
ATOM     25  C   UNL     1     109.795 129.922 137.636  0.00  0.00    +0.000 C 
ATOM     26  C   UNL     1     109.531 130.124 138.392  0.00  0.00    +0.000 C 
ATOM     27  C   UNL     1     110.072 130.202 139.010  0.00  0.00    +0.000 C 
ATOM     28  C   UNL     1     110.599 129.798 137.499  0.00  0.00    +0.000 C 
ATOM     29  C   UNL     1     110.876 130.078 138.872  0.00  0.00    +0.000 C 
BRANCH  29  31
ATOM     30  O   UNL     1     112.016 130.720 139.446  0.00  0.00    +0.000 OA
ATOM     31  C   UNL     1     111.416 130.155 139.490  0.00  0.00    +0.000 C 
ENDBRANCH  29  31
BRANCH  25  32
ATOM     32  O   UNL     1     109.253 129.844 137.018  0.00  0.00    +0.000 OA
BRANCH  32  37
ATOM     33  O   UNL     1     109.437 131.211 136.643  0.00  0.00    +0.000 OA
ATOM     34  O   UNL     1     107.869 129.784 136.123  0.00  0.00    +0.000 OA
ATOM     35  O   UNL     1     107.361 131.121 135.299  0.00  0.00    +0.000 OA
ATOM     36  O   UNL     1     108.237 132.517 135.372  0.00  0.00    +0.000 OA
ATOM     37  C   UNL     1     108.999 130.513 136.607  0.00  0.00    +0.000 C 
ATOM     38  C   UNL     1     108.307 130.483 136.159  0.00  0.00    +0.000 C 
ATOM     39  C   UNL     1     108.053 131.152 135.747  0.00  0.00    +0.000 C 
ATOM     40  C   UNL     1     108.491 131.850 135.784  0.00  0.00    +0.000 C 
ATOM     41  C   UNL     1     109.183 131.879 136.232  0.00  0.00    +0.000 C 
ATOM     42  C   UNL     1     109.621 132.577 136.268  0.00  0.00    +0.000 C 
ENDBRANCH  32  37
ENDBRANCH  25  32
ENDBRANCH   1  28
TORSDOF 6
ENDMDL
MODEL 6
REMARK VINA RESULT:     -10.3      2.980      5.658
REMARK  Name = 24211972
REMARK  6 active torsions:
REMARK  status: ('A' for Active; 'I' for Inactive)
REMARK    1  A    between atoms: O_1  and  C_16
REMARK    2  A    between atoms: O_1  and  C_19
REMARK    3  A    between atoms: O_5  and  C_21
REMARK    4  A    between atoms: O_5  and  C_28
REMARK    5  A    between atoms: C_22  and  C_26
REMARK    6  A    between atoms: C_35  and  C_37
REMARK                            x       y       z     vdW  Elec       q    Type
REMARK                         _______ _______ _______ _____ _____    ______ ____
ROOT
ATOM      1  O   UNL     1     106.535 126.615 141.864  0.00  0.00    +0.000 OA
ENDROOT
BRANCH   1   6
ATOM      2  O   UNL     1     104.972 124.802 140.204  0.00  0.00    +0.000 OA
ATOM      3  O   UNL     1     107.475 123.901 141.332  0.00  0.00    +0.000 OA
ATOM      4  O   UNL     1     106.675 123.031 140.505  0.00  0.00    +0.000 OA
ATOM      5  O   UNL     1     105.335 122.739 139.589  0.00  0.00    +0.000 OA
ATOM      6  C   UNL     1     106.435 125.877 141.508  0.00  0.00    +0.000 A 
ATOM      7  C   UNL     1     105.738 125.719 141.029  0.00  0.00    +0.000 A 
ATOM      8  C   UNL     1     107.025 125.263 141.612  0.00  0.00    +0.000 A 
ATOM      9  C   UNL     1     105.642 124.948 140.662  0.00  0.00    +0.000 A 
ATOM     10  C   UNL     1     106.913 124.498 141.237  0.00  0.00    +0.000 A 
ATOM     11  C   UNL     1     106.210 124.358 140.762  0.00  0.00    +0.000 A 
ATOM     12  C   UNL     1     106.108 123.622 140.405  0.00  0.00    +0.000 A 
ATOM     13  C   UNL     1     104.869 124.065 139.846  0.00  0.00    +0.000 A 
ATOM     14  C   UNL     1     105.437 123.475 139.947  0.00  0.00    +0.000 A 
BRANCH  13  16
ATOM     15  O   UNL     1     102.188 123.480 138.015  0.00  0.00    +0.000 OA
ATOM     16  C   UNL     1     104.199 123.919 139.388  0.00  0.00    +0.000 A 
ATOM     17  C   UNL     1     104.195 124.117 138.587  0.00  0.00    +0.000 A 
ATOM     18  C   UNL     1     103.532 123.574 139.732  0.00  0.00    +0.000 A 
ATOM     19  C   UNL     1     103.525 123.971 138.130  0.00  0.00    +0.000 A 
ATOM     20  C   UNL     1     102.862 123.428 139.274  0.00  0.00    +0.000 A 
ATOM     21  C   UNL     1     102.858 123.626 138.473  0.00  0.00    +0.000 A 
ENDBRANCH  13  16
ENDBRANCH   1   6
BRANCH   1  28
ATOM     22  O   UNL     1     106.274 126.176 143.199  0.00  0.00    +0.000 OA
ATOM     23  O   UNL     1     105.179 128.340 143.696  0.00  0.00    +0.000 OA
ATOM     24  O   UNL     1     105.283 127.180 144.864  0.00  0.00    +0.000 OA
ATOM     25  C   UNL     1     105.857 127.477 142.780  0.00  0.00    +0.000 C 
ATOM     26  C   UNL     1     105.544 127.619 143.530  0.00  0.00    +0.000 C 
ATOM     27  C   UNL     1     105.596 127.038 144.114  0.00  0.00    +0.000 C 
ATOM     28  C   UNL     1     106.222 126.756 142.614  0.00  0.00    +0.000 C 
ATOM     29  C   UNL     1     105.961 126.317 143.949  0.00  0.00    +0.000 C 
BRANCH  29  31
ATOM     30  O   UNL     1     106.747 125.538 144.853  0.00  0.00    +0.000 OA
ATOM     31  C   UNL     1     106.013 125.738 144.533  0.00  0.00    +0.000 C 
ENDBRANCH  29  31
BRANCH  25  32
ATOM     32  O   UNL     1     105.805 128.057 142.196  0.00  0.00    +0.000 OA
BRANCH  32  37
ATOM     33  O   UNL     1     107.064 128.608 142.590  0.00  0.00    +0.000 OA
ATOM     34  O   UNL     1     105.474 129.429 141.340  0.00  0.00    +0.000 OA
ATOM     35  O   UNL     1     106.567 130.664 141.307  0.00  0.00    +0.000 OA
ATOM     36  O   UNL     1     107.991 130.529 142.129  0.00  0.00    +0.000 OA
ATOM     37  C   UNL     1     106.352 128.675 142.179  0.00  0.00    +0.000 C 
ATOM     38  C   UNL     1     106.186 129.361 141.751  0.00  0.00    +0.000 C 
ATOM     39  C   UNL     1     106.733 129.979 141.735  0.00  0.00    +0.000 C 
ATOM     40  C   UNL     1     107.445 129.911 142.146  0.00  0.00    +0.000 C 
ATOM     41  C   UNL     1     107.610 129.225 142.573  0.00  0.00    +0.000 C 
ATOM     42  C   UNL     1     108.322 129.157 142.984  0.00  0.00    +0.000 C 
ENDBRANCH  32  37
ENDBRANCH  25  32
ENDBRANCH   1  28
TORSDOF 6
ENDMDL
MODEL 7
REMARK VINA RESULT:     -10.2      6.489      9.772
REMARK  Name = 24211972
REMARK  6 active torsions:
REMARK  status: ('A' for Active; 'I' for Inactive)
REMARK    1  A    between atoms: O_1  and  C_16
REMARK    2  A    between atoms: O_1  and  C_19
REMARK    3  A    between atoms: O_5  and  C_21
REMARK    4  A    between atoms: O_5  and  C_28
REMARK    5  A    between atoms: C_22  and  C_26
REMARK    6  A    between atoms: C_35  and  C_37
REMARK                            x       y       z     vdW  Elec       q    Type
REMARK                         _______ _______ _______ _____ _____    ______ ____
ROOT
ATOM      1  O   UNL     1     110.284 128.712 137.748  0.00  0.00    +0.000 OA
ENDROOT
BRANCH   1   6
ATOM      2  O   UNL     1     112.241 126.566 137.524  0.00  0.00    +0.000 OA
ATOM      3  O   UNL     1     109.598 125.984 138.533  0.00  0.00    +0.000 OA
ATOM      4  O   UNL     1     110.592 124.946 138.409  0.00  0.00    +0.000 OA
ATOM      5  O   UNL     1     112.108 124.440 138.000  0.00  0.00    +0.000 OA
ATOM      6  C   UNL     1     110.490 127.918 137.840  0.00  0.00    +0.000 A 
ATOM      7  C   UNL     1     111.278 127.648 137.629  0.00  0.00    +0.000 A 
ATOM      8  C   UNL     1     109.918 127.355 138.147  0.00  0.00    +0.000 A 
ATOM      9  C   UNL     1     111.483 126.819 137.728  0.00  0.00    +0.000 A 
ATOM     10  C   UNL     1     110.141 126.531 138.239  0.00  0.00    +0.000 A 
ATOM     11  C   UNL     1     110.933 126.280 138.023  0.00  0.00    +0.000 A 
ATOM     12  C   UNL     1     111.141 125.487 138.114  0.00  0.00    +0.000 A 
ATOM     13  C   UNL     1     112.449 125.773 137.614  0.00  0.00    +0.000 A 
ATOM     14  C   UNL     1     111.899 125.233 137.909  0.00  0.00    +0.000 A 
BRANCH  13  16
ATOM     15  O   UNL     1     115.481 124.758 136.796  0.00  0.00    +0.000 OA
ATOM     16  C   UNL     1     113.207 125.519 137.410  0.00  0.00    +0.000 A 
ATOM     17  C   UNL     1     113.814 125.542 137.968  0.00  0.00    +0.000 A 
ATOM     18  C   UNL     1     113.358 125.243 136.647  0.00  0.00    +0.000 A 
ATOM     19  C   UNL     1     114.572 125.288 137.763  0.00  0.00    +0.000 A 
ATOM     20  C   UNL     1     114.116 124.990 136.442  0.00  0.00    +0.000 A 
ATOM     21  C   UNL     1     114.723 125.012 137.001  0.00  0.00    +0.000 A 
ENDBRANCH  13  16
ENDBRANCH   1   6
BRANCH   1  28
ATOM     22  O   UNL     1     110.096 128.677 136.332  0.00  0.00    +0.000 OA
ATOM     23  O   UNL     1     108.195 130.249 136.547  0.00  0.00    +0.000 OA
ATOM     24  O   UNL     1     108.641 129.691 135.060  0.00  0.00    +0.000 OA
ATOM     25  C   UNL     1     109.240 129.480 137.148  0.00  0.00    +0.000 C 
ATOM     26  C   UNL     1     108.829 129.725 136.475  0.00  0.00    +0.000 C 
ATOM     27  C   UNL     1     109.052 129.446 135.732  0.00  0.00    +0.000 C 
ATOM     28  C   UNL     1     109.874 128.956 137.077  0.00  0.00    +0.000 C 
ATOM     29  C   UNL     1     109.685 128.922 135.660  0.00  0.00    +0.000 C 
BRANCH  29  31
ATOM     30  O   UNL     1     110.686 128.732 134.658  0.00  0.00    +0.000 OA
ATOM     31  C   UNL     1     109.907 128.643 134.917  0.00  0.00    +0.000 C 
ENDBRANCH  29  31
BRANCH  25  32
ATOM     32  O   UNL     1     109.017 129.759 137.892  0.00  0.00    +0.000 OA
BRANCH  32  37
ATOM     33  O   UNL     1     109.879 130.888 137.725  0.00  0.00    +0.000 OA
ATOM     34  O   UNL     1     108.532 130.346 139.356  0.00  0.00    +0.000 OA
ATOM     35  O   UNL     1     109.151 131.767 139.921  0.00  0.00    +0.000 OA
ATOM     36  O   UNL     1     110.254 132.602 139.022  0.00  0.00    +0.000 OA
ATOM     37  C   UNL     1     109.327 130.471 138.174  0.00  0.00    +0.000 C 
ATOM     38  C   UNL     1     109.084 130.763 138.906  0.00  0.00    +0.000 C 
ATOM     39  C   UNL     1     109.393 131.475 139.189  0.00  0.00    +0.000 C 
ATOM     40  C   UNL     1     109.945 131.892 138.740  0.00  0.00    +0.000 C 
ATOM     41  C   UNL     1     110.187 131.598 138.008  0.00  0.00    +0.000 C 
ATOM     42  C   UNL     1     110.739 132.016 137.558  0.00  0.00    +0.000 C 
ENDBRANCH  32  37
ENDBRANCH  25  32
ENDBRANCH   1  28
TORSDOF 6
ENDMDL
MODEL 8
REMARK VINA RESULT:     -10.2      7.594     10.186
REMARK  Name = 24211972
REMARK  6 active torsions:
REMARK  status: ('A' for Active; 'I' for Inactive)
REMARK    1  A    between atoms: O_1  and  C_16
REMARK    2  A    between atoms: O_1  and  C_19
REMARK    3  A    between atoms: O_5  and  C_21
REMARK    4  A    between atoms: O_5  and  C_28
REMARK    5  A    between atoms: C_22  and  C_26
REMARK    6  A    between atoms: C_35  and  C_37
REMARK                            x       y       z     vdW  Elec       q    Type
REMARK                         _______ _______ _______ _____ _____    ______ ____
ROOT
ATOM      1  O   UNL     1     111.198 129.440 136.943  0.00  0.00    +0.000 OA
ENDROOT
BRANCH   1   6
ATOM      2  O   UNL     1     111.620 126.571 136.661  0.00  0.00    +0.000 OA
ATOM      3  O   UNL     1     109.996 127.970 134.724  0.00  0.00    +0.000 OA
ATOM      4  O   UNL     1     110.226 126.550 134.615  0.00  0.00    +0.000 OA
ATOM      5  O   UNL     1     110.903 125.151 135.167  0.00  0.00    +0.000 OA
ATOM      6  C   UNL     1     111.071 128.734 136.535  0.00  0.00    +0.000 A 
ATOM      7  C   UNL     1     111.421 128.001 136.817  0.00  0.00    +0.000 A 
ATOM      8  C   UNL     1     110.587 128.726 135.825  0.00  0.00    +0.000 A 
ATOM      9  C   UNL     1     111.282 127.271 136.386  0.00  0.00    +0.000 A 
ATOM     10  C   UNL     1     110.459 127.987 135.407  0.00  0.00    +0.000 A 
ATOM     11  C   UNL     1     110.817 127.265 135.704  0.00  0.00    +0.000 A 
ATOM     12  C   UNL     1     110.691 126.558 135.298  0.00  0.00    +0.000 A 
ATOM     13  C   UNL     1     111.494 125.864 136.255  0.00  0.00    +0.000 A 
ATOM     14  C   UNL     1     111.030 125.858 135.573  0.00  0.00    +0.000 A 
BRANCH  13  16
ATOM     15  O   UNL     1     112.849 123.064 137.356  0.00  0.00    +0.000 OA
ATOM     16  C   UNL     1     111.833 125.164 136.530  0.00  0.00    +0.000 A 
ATOM     17  C   UNL     1     111.405 124.669 137.033  0.00  0.00    +0.000 A 
ATOM     18  C   UNL     1     112.599 124.960 136.302  0.00  0.00    +0.000 A 
ATOM     19  C   UNL     1     111.744 123.969 137.307  0.00  0.00    +0.000 A 
ATOM     20  C   UNL     1     112.938 124.259 136.578  0.00  0.00    +0.000 A 
ATOM     21  C   UNL     1     112.510 123.764 137.080  0.00  0.00    +0.000 A 
ENDBRANCH  13  16
ENDBRANCH   1   6
BRANCH   1  28
ATOM     22  O   UNL     1     112.477 129.654 136.342  0.00  0.00    +0.000 OA
ATOM     23  O   UNL     1     113.175 130.994 138.302  0.00  0.00    +0.000 OA
ATOM     24  O   UNL     1     114.219 130.761 137.047  0.00  0.00    +0.000 OA
ATOM     25  C   UNL     1     112.186 130.216 137.623  0.00  0.00    +0.000 C 
ATOM     26  C   UNL     1     112.942 130.547 137.649  0.00  0.00    +0.000 C 
ATOM     27  C   UNL     1     113.464 130.431 137.021  0.00  0.00    +0.000 C 
ATOM     28  C   UNL     1     111.953 129.770 136.969  0.00  0.00    +0.000 C 
ATOM     29  C   UNL     1     113.232 129.984 136.367  0.00  0.00    +0.000 C 
BRANCH  29  31
ATOM     30  O   UNL     1     113.505 130.002 134.965  0.00  0.00    +0.000 OA
ATOM     31  C   UNL     1     113.754 129.868 135.740  0.00  0.00    +0.000 C 
ENDBRANCH  29  31
BRANCH  25  32
ATOM     32  O   UNL     1     111.664 130.333 138.250  0.00  0.00    +0.000 OA
BRANCH  32  37
ATOM     33  O   UNL     1     111.210 131.547 137.647  0.00  0.00    +0.000 OA
ATOM     34  O   UNL     1     110.612 130.562 139.501  0.00  0.00    +0.000 OA
ATOM     35  O   UNL     1     109.633 131.890 139.523  0.00  0.00    +0.000 OA
ATOM     36  O   UNL     1     109.706 132.989 138.295  0.00  0.00    +0.000 OA
ATOM     37  C   UNL     1     111.174 130.997 138.261  0.00  0.00    +0.000 C 
ATOM     38  C   UNL     1     110.649 131.111 138.887  0.00  0.00    +0.000 C 
ATOM     39  C   UNL     1     110.159 131.776 138.898  0.00  0.00    +0.000 C 
ATOM     40  C   UNL     1     110.195 132.325 138.284  0.00  0.00    +0.000 C 
ATOM     41  C   UNL     1     110.721 132.210 137.658  0.00  0.00    +0.000 C 
ATOM     42  C   UNL     1     110.758 132.760 137.044  0.00  0.00    +0.000 C 
ENDBRANCH  32  37
ENDBRANCH  25  32
ENDBRANCH   1  28
TORSDOF 6
ENDMDL
MODEL 9
REMARK VINA RESULT:     -10.1      7.970      9.107
REMARK  Name = 24211972
REMARK  6 active torsions:
REMARK  status: ('A' for Active; 'I' for Inactive)
REMARK    1  A    between atoms: O_1  and  C_16
REMARK    2  A    between atoms: O_1  and  C_19
REMARK    3  A    between atoms: O_5  and  C_21
REMARK    4  A    between atoms: O_5  and  C_28
REMARK    5  A    between atoms: C_22  and  C_26
REMARK    6  A    between atoms: C_35  and  C_37
REMARK                            x       y       z     vdW  Elec       q    Type
REMARK                         _______ _______ _______ _____ _____    ______ ____
ROOT
ATOM      1  O   UNL     1     111.876 128.623 137.182  0.00  0.00    +0.000 OA
ENDROOT
BRANCH   1   6
ATOM      2  O   UNL     1     109.923 130.634 136.390  0.00  0.00    +0.000 OA
ATOM      3  O   UNL     1     111.907 131.284 138.387  0.00  0.00    +0.000 OA
ATOM      4  O   UNL     1     110.925 132.255 137.970  0.00  0.00    +0.000 OA
ATOM      5  O   UNL     1     109.630 132.694 137.049  0.00  0.00    +0.000 OA
ATOM      6  C   UNL     1     111.564 129.384 137.250  0.00  0.00    +0.000 A 
ATOM      7  C   UNL     1     110.889 129.620 136.772  0.00  0.00    +0.000 A 
ATOM      8  C   UNL     1     111.911 129.947 137.798  0.00  0.00    +0.000 A 
ATOM      9  C   UNL     1     110.571 130.414 136.850  0.00  0.00    +0.000 A 
ATOM     10  C   UNL     1     111.580 130.737 137.862  0.00  0.00    +0.000 A 
ATOM     11  C   UNL     1     110.905 130.954 137.377  0.00  0.00    +0.000 A 
ATOM     12  C   UNL     1     110.591 131.714 137.443  0.00  0.00    +0.000 A 
ATOM     13  C   UNL     1     109.609 131.395 136.456  0.00  0.00    +0.000 A 
ATOM     14  C   UNL     1     109.943 131.934 136.982  0.00  0.00    +0.000 A 
BRANCH  13  16
ATOM     15  O   UNL     1     107.018 132.276 134.612  0.00  0.00    +0.000 OA
ATOM     16  C   UNL     1     108.961 131.615 135.995  0.00  0.00    +0.000 A 
ATOM     17  C   UNL     1     108.195 131.498 136.278  0.00  0.00    +0.000 A 
ATOM     18  C   UNL     1     109.080 131.952 135.251  0.00  0.00    +0.000 A 
ATOM     19  C   UNL     1     107.548 131.718 135.816  0.00  0.00    +0.000 A 
ATOM     20  C   UNL     1     108.433 132.173 134.790  0.00  0.00    +0.000 A 
ATOM     21  C   UNL     1     107.666 132.056 135.073  0.00  0.00    +0.000 A 
ENDBRANCH  13  16
ENDBRANCH   1   6
BRANCH   1  28
ATOM     22  O   UNL     1     112.781 129.049 136.162  0.00  0.00    +0.000 OA
ATOM     23  O   UNL     1     114.121 126.995 136.494  0.00  0.00    +0.000 OA
ATOM     24  O   UNL     1     114.580 128.105 135.364  0.00  0.00    +0.000 OA
ATOM     25  C   UNL     1     112.998 127.809 136.838  0.00  0.00    +0.000 C 
ATOM     26  C   UNL     1     113.675 127.679 136.383  0.00  0.00    +0.000 C 
ATOM     27  C   UNL     1     113.904 128.235 135.818  0.00  0.00    +0.000 C 
ATOM     28  C   UNL     1     112.551 128.494 136.728  0.00  0.00    +0.000 C 
ATOM     29  C   UNL     1     113.457 128.920 135.707  0.00  0.00    +0.000 C 
BRANCH  29  31
ATOM     30  O   UNL     1     114.026 130.189 135.378  0.00  0.00    +0.000 OA
ATOM     31  C   UNL     1     113.686 129.474 135.142  0.00  0.00    +0.000 C 
ENDBRANCH  29  31
BRANCH  25  32
ATOM     32  O   UNL     1     112.769 127.254 137.403  0.00  0.00    +0.000 OA
BRANCH  32  37
ATOM     33  O   UNL     1     111.993 126.558 136.425  0.00  0.00    +0.000 OA
ATOM     34  O   UNL     1     112.574 125.996 138.453  0.00  0.00    +0.000 OA
ATOM     35  O   UNL     1     111.700 124.671 138.000  0.00  0.00    +0.000 OA
ATOM     36  O   UNL     1     111.022 124.605 136.497  0.00  0.00    +0.000 OA
ATOM     37  C   UNL     1     112.332 126.591 137.176  0.00  0.00    +0.000 C 
ATOM     38  C   UNL     1     112.234 125.962 137.702  0.00  0.00    +0.000 C 
ATOM     39  C   UNL     1     111.797 125.300 137.475  0.00  0.00    +0.000 C 
ATOM     40  C   UNL     1     111.458 125.267 136.723  0.00  0.00    +0.000 C 
ATOM     41  C   UNL     1     111.556 125.896 136.199  0.00  0.00    +0.000 C 
ATOM     42  C   UNL     1     111.217 125.863 135.447  0.00  0.00    +0.000 C 
ENDBRANCH  32  37
ENDBRANCH  25  32
ENDBRANCH   1  28
TORSDOF 6
ENDMDL
MODEL 10
REMARK VINA RESULT:     -10.1      3.003      4.970
REMARK  Name = 24211972
REMARK  6 active torsions:
REMARK  status: ('A' for Active; 'I' for Inactive)
REMARK    1  A    between atoms: O_1  and  C_16
REMARK    2  A    between atoms: O_1  and  C_19
REMARK    3  A    between atoms: O_5  and  C_21
REMARK    4  A    between atoms: O_5  and  C_28
REMARK    5  A    between atoms: C_22  and  C_26
REMARK    6  A    between atoms: C_35  and  C_37
REMARK                            x       y       z     vdW  Elec       q    Type
REMARK                         _______ _______ _______ _____ _____    ______ ____
ROOT
ATOM      1  O   UNL     1     106.195 125.711 143.771  0.00  0.00    +0.000 OA
ENDROOT
BRANCH   1   6
ATOM      2  O   UNL     1     105.302 124.933 141.110  0.00  0.00    +0.000 OA
ATOM      3  O   UNL     1     107.994 125.913 141.480  0.00  0.00    +0.000 OA
ATOM      4  O   UNL     1     107.518 125.519 140.176  0.00  0.00    +0.000 OA
ATOM      5  O   UNL     1     106.332 124.940 139.186  0.00  0.00    +0.000 OA
ATOM      6  C   UNL     1     106.344 125.618 142.965  0.00  0.00    +0.000 A 
ATOM      7  C   UNL     1     105.730 125.316 142.444  0.00  0.00    +0.000 A 
ATOM      8  C   UNL     1     107.113 125.821 142.641  0.00  0.00    +0.000 A 
ATOM      9  C   UNL     1     105.894 125.223 141.606  0.00  0.00    +0.000 A 
ATOM     10  C   UNL     1     107.258 125.720 141.800  0.00  0.00    +0.000 A 
ATOM     11  C   UNL     1     106.633 125.418 141.295  0.00  0.00    +0.000 A 
ATOM     12  C   UNL     1     106.779 125.324 140.488  0.00  0.00    +0.000 A 
ATOM     13  C   UNL     1     105.448 124.839 140.304  0.00  0.00    +0.000 A 
ATOM     14  C   UNL     1     106.186 125.034 139.993  0.00  0.00    +0.000 A 
BRANCH  13  16
ATOM     15  O   UNL     1     103.077 123.680 138.322  0.00  0.00    +0.000 OA
ATOM     16  C   UNL     1     104.855 124.549 139.808  0.00  0.00    +0.000 A 
ATOM     17  C   UNL     1     104.362 125.073 139.404  0.00  0.00    +0.000 A 
ATOM     18  C   UNL     1     104.756 123.735 139.716  0.00  0.00    +0.000 A 
ATOM     19  C   UNL     1     103.770 124.783 138.909  0.00  0.00    +0.000 A 
ATOM     20  C   UNL     1     104.163 123.445 139.221  0.00  0.00    +0.000 A 
ATOM     21  C   UNL     1     103.670 123.970 138.817  0.00  0.00    +0.000 A 
ENDBRANCH  13  16
ENDBRANCH   1   6
BRANCH   1  28
ATOM     22  O   UNL     1     105.696 127.043 143.638  0.00  0.00    +0.000 OA
ATOM     23  O   UNL     1     106.496 127.571 145.920  0.00  0.00    +0.000 OA
ATOM     24  O   UNL     1     105.731 128.727 145.026  0.00  0.00    +0.000 OA
ATOM     25  C   UNL     1     106.345 126.640 144.845  0.00  0.00    +0.000 C 
ATOM     26  C   UNL     1     106.229 127.395 145.159  0.00  0.00    +0.000 C 
ATOM     27  C   UNL     1     105.846 127.973 144.712  0.00  0.00    +0.000 C 
ATOM     28  C   UNL     1     106.079 126.464 144.085  0.00  0.00    +0.000 C 
ATOM     29  C   UNL     1     105.580 127.797 143.951  0.00  0.00    +0.000 C 
BRANCH  29  31
ATOM     30  O   UNL     1     104.506 128.189 143.093  0.00  0.00    +0.000 OA
ATOM     31  C   UNL     1     105.198 128.375 143.504  0.00  0.00    +0.000 C 
ENDBRANCH  29  31
BRANCH  25  32
ATOM     32  O   UNL     1     106.728 126.063 145.293  0.00  0.00    +0.000 OA
BRANCH  32  37
ATOM     33  O   UNL     1     105.487 125.604 145.835  0.00  0.00    +0.000 OA
ATOM     34  O   UNL     1     107.541 125.307 146.514  0.00  0.00    +0.000 OA
ATOM     35  O   UNL     1     106.707 124.471 147.667  0.00  0.00    +0.000 OA
ATOM     36  O   UNL     1     105.060 124.391 147.598  0.00  0.00    +0.000 OA
ATOM     37  C   UNL     1     106.311 125.644 145.869  0.00  0.00    +0.000 C 
ATOM     38  C   UNL     1     106.717 125.267 146.480  0.00  0.00    +0.000 C 
ATOM     39  C   UNL     1     106.300 124.849 147.056  0.00  0.00    +0.000 C 
ATOM     40  C   UNL     1     105.477 124.809 147.022  0.00  0.00    +0.000 C 
ATOM     41  C   UNL     1     105.071 125.186 146.411  0.00  0.00    +0.000 C 
ATOM     42  C   UNL     1     104.247 125.146 146.377  0.00  0.00    +0.000 C 
ENDBRANCH  32  37
ENDBRANCH  25  32
ENDBRANCH   1  28
TORSDOF 6
ENDMDL
