MODEL 1
REMARK VINA RESULT:      -8.1      0.000      0.000
REMARK  Name = 10636929
REMARK  2 active torsions:
REMARK  status: ('A' for Active; 'I' for Inactive)
REMARK    1  A    between atoms: O_2  and  C_12
REMARK    2  A    between atoms: C_6  and  C_8
REMARK                            x       y       z     vdW  Elec       q    Type
REMARK                         _______ _______ _______ _____ _____    ______ ____
ROOT
ATOM      1  O   UNL     1     112.080 125.652 136.208  0.00  0.00    +0.000 OA
ATOM      2  O   UNL     1     111.970 123.276 136.893  0.00  0.00    +0.000 OA
ATOM      3  O   UNL     1     114.938 125.700 136.765  0.00  0.00    +0.000 OA
ATOM      4  C   UNL     1     111.361 125.249 136.184  0.00  0.00    +0.000 C 
ATOM      5  C   UNL     1     111.324 124.457 136.413  0.00  0.00    +0.000 C 
ATOM      6  C   UNL     1     112.726 124.471 136.688  0.00  0.00    +0.000 A 
ATOM      7  C   UNL     1     112.763 125.263 136.460  0.00  0.00    +0.000 A 
ATOM      8  C   UNL     1     112.007 124.068 136.665  0.00  0.00    +0.000 C 
ATOM      9  C   UNL     1     113.506 125.694 136.480  0.00  0.00    +0.000 A 
ATOM     10  C   UNL     1     113.430 124.055 136.953  0.00  0.00    +0.000 A 
ATOM     11  C   UNL     1     114.220 125.295 136.742  0.00  0.00    +0.000 A 
ATOM     12  C   UNL     1     114.182 124.470 136.979  0.00  0.00    +0.000 A 
ENDROOT
BRANCH   4  14
ATOM     13  O   UNL     1     108.629 126.803 135.176  0.00  0.00    +0.000 OA
ATOM     14  C   UNL     1     110.678 125.637 135.933  0.00  0.00    +0.000 A 
ATOM     15  C   UNL     1     110.234 126.080 136.468  0.00  0.00    +0.000 A 
ATOM     16  C   UNL     1     110.440 125.582 135.145  0.00  0.00    +0.000 A 
ATOM     17  C   UNL     1     109.551 126.469 136.217  0.00  0.00    +0.000 A 
ATOM     18  C   UNL     1     109.756 125.971 134.893  0.00  0.00    +0.000 A 
ATOM     19  C   UNL     1     109.313 126.414 135.429  0.00  0.00    +0.000 A 
ENDBRANCH   4  14
BRANCH   9  20
ATOM     20  O   UNL     1     113.533 126.486 136.250  0.00  0.00    +0.000 OA
ATOM     21  C   UNL     1     113.820 127.058 136.772  0.00  0.00    +0.000 C 
ENDBRANCH   9  20
TORSDOF 2
ENDMDL
MODEL 2
REMARK VINA RESULT:      -8.0     11.955     12.732
REMARK  Name = 10636929
REMARK  2 active torsions:
REMARK  status: ('A' for Active; 'I' for Inactive)
REMARK    1  A    between atoms: O_2  and  C_12
REMARK    2  A    between atoms: C_6  and  C_8
REMARK                            x       y       z     vdW  Elec       q    Type
REMARK                         _______ _______ _______ _____ _____    ______ ____
ROOT
ATOM      1  O   UNL     1     105.611 124.479 147.372  0.00  0.00    +0.000 OA
ATOM      2  O   UNL     1     106.855 125.735 145.640  0.00  0.00    +0.000 OA
ATOM      3  O   UNL     1     107.902 124.639 149.162  0.00  0.00    +0.000 OA
ATOM      4  C   UNL     1     105.253 124.646 146.647  0.00  0.00    +0.000 C 
ATOM      5  C   UNL     1     105.667 125.065 146.070  0.00  0.00    +0.000 C 
ATOM      6  C   UNL     1     106.797 125.149 146.942  0.00  0.00    +0.000 A 
ATOM      7  C   UNL     1     106.382 124.730 147.519  0.00  0.00    +0.000 A 
ATOM      8  C   UNL     1     106.440 125.316 146.217  0.00  0.00    +0.000 C 
ATOM      9  C   UNL     1     106.743 124.549 148.278  0.00  0.00    +0.000 A 
ATOM     10  C   UNL     1     107.601 125.416 147.084  0.00  0.00    +0.000 A 
ATOM     11  C   UNL     1     107.547 124.808 148.437  0.00  0.00    +0.000 A 
ATOM     12  C   UNL     1     107.979 125.244 147.836  0.00  0.00    +0.000 A 
ENDROOT
BRANCH   4  14
ATOM     13  O   UNL     1     102.165 123.641 146.057  0.00  0.00    +0.000 OA
ATOM     14  C   UNL     1     104.481 124.395 146.500  0.00  0.00    +0.000 A 
ATOM     15  C   UNL     1     103.843 124.822 146.803  0.00  0.00    +0.000 A 
ATOM     16  C   UNL     1     104.347 123.717 146.049  0.00  0.00    +0.000 A 
ATOM     17  C   UNL     1     103.072 124.571 146.656  0.00  0.00    +0.000 A 
ATOM     18  C   UNL     1     103.575 123.466 145.902  0.00  0.00    +0.000 A 
ATOM     19  C   UNL     1     102.938 123.893 146.205  0.00  0.00    +0.000 A 
ENDBRANCH   4  14
BRANCH   9  20
ATOM     20  O   UNL     1     106.321 124.130 148.849  0.00  0.00    +0.000 OA
ATOM     21  C   UNL     1     106.239 124.438 149.611  0.00  0.00    +0.000 C 
ENDBRANCH   9  20
TORSDOF 2
ENDMDL
MODEL 3
REMARK VINA RESULT:      -7.9     12.214     13.541
REMARK  Name = 10636929
REMARK  2 active torsions:
REMARK  status: ('A' for Active; 'I' for Inactive)
REMARK    1  A    between atoms: O_2  and  C_12
REMARK    2  A    between atoms: C_6  and  C_8
REMARK                            x       y       z     vdW  Elec       q    Type
REMARK                         _______ _______ _______ _____ _____    ______ ____
ROOT
ATOM      1  O   UNL     1     104.761 124.233 146.825  0.00  0.00    +0.000 OA
ATOM      2  O   UNL     1     103.188 125.694 148.057  0.00  0.00    +0.000 OA
ATOM      3  O   UNL     1     102.526 122.756 145.683  0.00  0.00    +0.000 OA
ATOM      4  C   UNL     1     105.051 124.836 147.307  0.00  0.00    +0.000 C 
ATOM      5  C   UNL     1     104.527 125.323 147.718  0.00  0.00    +0.000 C 
ATOM      6  C   UNL     1     103.424 124.604 147.163  0.00  0.00    +0.000 A 
ATOM      7  C   UNL     1     103.948 124.117 146.752  0.00  0.00    +0.000 A 
ATOM      8  C   UNL     1     103.712 125.207 147.646  0.00  0.00    +0.000 C 
ATOM      9  C   UNL     1     103.658 123.486 146.246  0.00  0.00    +0.000 A 
ATOM     10  C   UNL     1     102.574 124.493 147.096  0.00  0.00    +0.000 A 
ATOM     11  C   UNL     1     102.812 123.360 146.167  0.00  0.00    +0.000 A 
ATOM     12  C   UNL     1     102.267 123.867 146.595  0.00  0.00    +0.000 A 
ENDROOT
BRANCH   4  14
ATOM     13  O   UNL     1     108.305 125.301 147.597  0.00  0.00    +0.000 OA
ATOM     14  C   UNL     1     105.864 124.953 147.380  0.00  0.00    +0.000 A 
ATOM     15  C   UNL     1     106.277 125.360 146.793  0.00  0.00    +0.000 A 
ATOM     16  C   UNL     1     106.265 124.662 148.039  0.00  0.00    +0.000 A 
ATOM     17  C   UNL     1     107.090 125.476 146.865  0.00  0.00    +0.000 A 
ATOM     18  C   UNL     1     107.079 124.778 148.112  0.00  0.00    +0.000 A 
ATOM     19  C   UNL     1     107.491 125.185 147.525  0.00  0.00    +0.000 A 
ENDBRANCH   4  14
BRANCH   9  20
ATOM     20  O   UNL     1     104.190 123.004 145.839  0.00  0.00    +0.000 OA
ATOM     21  C   UNL     1     104.065 122.832 145.042  0.00  0.00    +0.000 C 
ENDBRANCH   9  20
TORSDOF 2
ENDMDL
MODEL 4
REMARK VINA RESULT:      -7.9     10.904     12.101
REMARK  Name = 10636929
REMARK  2 active torsions:
REMARK  status: ('A' for Active; 'I' for Inactive)
REMARK    1  A    between atoms: O_2  and  C_12
REMARK    2  A    between atoms: C_6  and  C_8
REMARK                            x       y       z     vdW  Elec       q    Type
REMARK                         _______ _______ _______ _____ _____    ______ ____
ROOT
ATOM      1  O   UNL     1     106.651 125.451 146.311  0.00  0.00    +0.000 OA
ATOM      2  O   UNL     1     106.722 127.924 146.373  0.00  0.00    +0.000 OA
ATOM      3  O   UNL     1     105.602 125.529 143.595  0.00  0.00    +0.000 OA
ATOM      4  C   UNL     1     106.921 125.838 146.988  0.00  0.00    +0.000 C 
ATOM      5  C   UNL     1     106.944 126.663 147.008  0.00  0.00    +0.000 C 
ATOM      6  C   UNL     1     106.430 126.711 145.676  0.00  0.00    +0.000 A 
ATOM      7  C   UNL     1     106.406 125.886 145.655  0.00  0.00    +0.000 A 
ATOM      8  C   UNL     1     106.699 127.099 146.352  0.00  0.00    +0.000 C 
ATOM      9  C   UNL     1     106.128 125.471 144.956  0.00  0.00    +0.000 A 
ATOM     10  C   UNL     1     106.177 127.176 144.999  0.00  0.00    +0.000 A 
ATOM     11  C   UNL     1     105.871 125.919 144.270  0.00  0.00    +0.000 A 
ATOM     12  C   UNL     1     105.896 126.778 144.292  0.00  0.00    +0.000 A 
ENDROOT
BRANCH   4  14
ATOM     13  O   UNL     1     107.902 124.094 149.612  0.00  0.00    +0.000 OA
ATOM     14  C   UNL     1     107.166 125.402 147.643  0.00  0.00    +0.000 A 
ATOM     15  C   UNL     1     107.964 125.215 147.740  0.00  0.00    +0.000 A 
ATOM     16  C   UNL     1     106.613 125.153 148.203  0.00  0.00    +0.000 A 
ATOM     17  C   UNL     1     108.209 124.779 148.395  0.00  0.00    +0.000 A 
ATOM     18  C   UNL     1     106.859 124.717 148.859  0.00  0.00    +0.000 A 
ATOM     19  C   UNL     1     107.657 124.530 148.955  0.00  0.00    +0.000 A 
ENDBRANCH   4  14
BRANCH   9  20
ATOM     20  O   UNL     1     106.108 124.646 144.945  0.00  0.00    +0.000 OA
ATOM     21  C   UNL     1     105.409 124.253 144.749  0.00  0.00    +0.000 C 
ENDBRANCH   9  20
TORSDOF 2
ENDMDL
MODEL 5
REMARK VINA RESULT:      -7.8     10.096     12.142
REMARK  Name = 10636929
REMARK  2 active torsions:
REMARK  status: ('A' for Active; 'I' for Inactive)
REMARK    1  A    between atoms: O_2  and  C_12
REMARK    2  A    between atoms: C_6  and  C_8
REMARK                            x       y       z     vdW  Elec       q    Type
REMARK                         _______ _______ _______ _____ _____    ______ ____
ROOT
ATOM      1  O   UNL     1     102.667 130.612 141.488  0.00  0.00    +0.000 OA
ATOM      2  O   UNL     1     103.712 130.098 143.672  0.00  0.00    +0.000 OA
ATOM      3  O   UNL     1     103.827 128.200 140.342  0.00  0.00    +0.000 OA
ATOM      4  C   UNL     1     102.554 131.120 142.129  0.00  0.00    +0.000 C 
ATOM      5  C   UNL     1     102.902 130.949 142.857  0.00  0.00    +0.000 C 
ATOM      6  C   UNL     1     103.476 129.763 142.303  0.00  0.00    +0.000 A 
ATOM      7  C   UNL     1     103.127 129.934 141.575  0.00  0.00    +0.000 A 
ATOM      8  C   UNL     1     103.364 130.270 142.944  0.00  0.00    +0.000 C 
ATOM      9  C   UNL     1     103.237 129.413 140.900  0.00  0.00    +0.000 A 
ATOM     10  C   UNL     1     103.958 129.059 142.406  0.00  0.00    +0.000 A 
ATOM     11  C   UNL     1     103.716 128.705 140.984  0.00  0.00    +0.000 A 
ATOM     12  C   UNL     1     104.079 128.527 141.742  0.00  0.00    +0.000 A 
ENDROOT
BRANCH   4  14
ATOM     13  O   UNL     1     100.710 133.835 141.781  0.00  0.00    +0.000 OA
ATOM     14  C   UNL     1     102.093 131.798 142.042  0.00  0.00    +0.000 A 
ATOM     15  C   UNL     1     101.288 131.777 142.221  0.00  0.00    +0.000 A 
ATOM     16  C   UNL     1     102.437 132.499 141.776  0.00  0.00    +0.000 A 
ATOM     17  C   UNL     1     100.827 132.455 142.134  0.00  0.00    +0.000 A 
ATOM     18  C   UNL     1     101.976 133.179 141.689  0.00  0.00    +0.000 A 
ATOM     19  C   UNL     1     101.171 133.156 141.868  0.00  0.00    +0.000 A 
ENDBRANCH   4  14
BRANCH   9  20
ATOM     20  O   UNL     1     102.884 129.593 140.176  0.00  0.00    +0.000 OA
ATOM     21  C   UNL     1     102.410 129.033 139.798  0.00  0.00    +0.000 C 
ENDBRANCH   9  20
TORSDOF 2
ENDMDL
MODEL 6
REMARK VINA RESULT:      -7.8      1.257      3.403
REMARK  Name = 10636929
REMARK  2 active torsions:
REMARK  status: ('A' for Active; 'I' for Inactive)
REMARK    1  A    between atoms: O_2  and  C_12
REMARK    2  A    between atoms: C_6  and  C_8
REMARK                            x       y       z     vdW  Elec       q    Type
REMARK                         _______ _______ _______ _____ _____    ______ ____
ROOT
ATOM      1  O   UNL     1     112.900 126.267 136.398  0.00  0.00    +0.000 OA
ATOM      2  O   UNL     1     114.754 125.151 137.599  0.00  0.00    +0.000 OA
ATOM      3  O   UNL     1     111.517 123.718 136.125  0.00  0.00    +0.000 OA
ATOM      4  C   UNL     1     113.544 126.709 136.663  0.00  0.00    +0.000 C 
ATOM      5  C   UNL     1     114.162 126.337 137.063  0.00  0.00    +0.000 C 
ATOM      6  C   UNL     1     113.491 125.082 136.934  0.00  0.00    +0.000 A 
ATOM      7  C   UNL     1     112.873 125.454 136.534  0.00  0.00    +0.000 A 
ATOM      8  C   UNL     1     114.136 125.523 137.199  0.00  0.00    +0.000 C 
ATOM      9  C   UNL     1     112.196 125.005 136.253  0.00  0.00    +0.000 A 
ATOM     10  C   UNL     1     113.475 124.235 137.081  0.00  0.00    +0.000 A 
ATOM     11  C   UNL     1     112.163 124.158 136.391  0.00  0.00    +0.000 A 
ATOM     12  C   UNL     1     112.806 123.770 136.808  0.00  0.00    +0.000 A 
ENDROOT
BRANCH   4  14
ATOM     13  O   UNL     1     113.651 129.963 136.121  0.00  0.00    +0.000 OA
ATOM     14  C   UNL     1     113.571 127.522 136.527  0.00  0.00    +0.000 A 
ATOM     15  C   UNL     1     113.947 127.817 135.855  0.00  0.00    +0.000 A 
ATOM     16  C   UNL     1     113.222 128.041 137.065  0.00  0.00    +0.000 A 
ATOM     17  C   UNL     1     113.973 128.629 135.719  0.00  0.00    +0.000 A 
ATOM     18  C   UNL     1     113.248 128.855 136.930  0.00  0.00    +0.000 A 
ATOM     19  C   UNL     1     113.624 129.149 136.257  0.00  0.00    +0.000 A 
ENDBRANCH   4  14
BRANCH   9  20
ATOM     20  O   UNL     1     111.583 125.385 135.853  0.00  0.00    +0.000 OA
ATOM     21  C   UNL     1     110.802 125.279 136.099  0.00  0.00    +0.000 C 
ENDBRANCH   9  20
TORSDOF 2
ENDMDL
MODEL 7
REMARK VINA RESULT:      -7.8      2.255      4.009
REMARK  Name = 10636929
REMARK  2 active torsions:
REMARK  status: ('A' for Active; 'I' for Inactive)
REMARK    1  A    between atoms: O_2  and  C_12
REMARK    2  A    between atoms: C_6  and  C_8
REMARK                            x       y       z     vdW  Elec       q    Type
REMARK                         _______ _______ _______ _____ _____    ______ ____
ROOT
ATOM      1  O   UNL     1     112.801 125.855 138.262  0.00  0.00    +0.000 OA
ATOM      2  O   UNL     1     115.036 125.052 137.568  0.00  0.00    +0.000 OA
ATOM      3  O   UNL     1     111.535 123.975 136.433  0.00  0.00    +0.000 OA
ATOM      4  C   UNL     1     113.479 126.185 138.597  0.00  0.00    +0.000 C 
ATOM      5  C   UNL     1     114.225 125.917 138.365  0.00  0.00    +0.000 C 
ATOM      6  C   UNL     1     113.612 124.991 137.465  0.00  0.00    +0.000 A 
ATOM      7  C   UNL     1     112.867 125.259 137.697  0.00  0.00    +0.000 A 
ATOM      8  C   UNL     1     114.291 125.320 137.799  0.00  0.00    +0.000 C 
ATOM      9  C   UNL     1     112.153 124.924 137.356  0.00  0.00    +0.000 A 
ATOM     10  C   UNL     1     113.694 124.370 136.877  0.00  0.00    +0.000 A 
ATOM     11  C   UNL     1     112.215 124.303 136.766  0.00  0.00    +0.000 A 
ATOM     12  C   UNL     1     112.991 124.024 136.525  0.00  0.00    +0.000 A 
ENDROOT
BRANCH   4  14
ATOM     13  O   UNL     1     113.214 128.572 140.860  0.00  0.00    +0.000 OA
ATOM     14  C   UNL     1     113.413 126.781 139.162  0.00  0.00    +0.000 A 
ATOM     15  C   UNL     1     113.431 126.593 139.965  0.00  0.00    +0.000 A 
ATOM     16  C   UNL     1     113.328 127.567 138.925  0.00  0.00    +0.000 A 
ATOM     17  C   UNL     1     113.365 127.189 140.531  0.00  0.00    +0.000 A 
ATOM     18  C   UNL     1     113.262 128.164 139.491  0.00  0.00    +0.000 A 
ATOM     19  C   UNL     1     113.281 127.975 140.293  0.00  0.00    +0.000 A 
ENDBRANCH   4  14
BRANCH   9  20
ATOM     20  O   UNL     1     111.412 125.198 137.593  0.00  0.00    +0.000 OA
ATOM     21  C   UNL     1     110.868 125.460 137.030  0.00  0.00    +0.000 C 
ENDBRANCH   9  20
TORSDOF 2
ENDMDL
MODEL 8
REMARK VINA RESULT:      -7.8      1.541      3.890
REMARK  Name = 10636929
REMARK  2 active torsions:
REMARK  status: ('A' for Active; 'I' for Inactive)
REMARK    1  A    between atoms: O_2  and  C_12
REMARK    2  A    between atoms: C_6  and  C_8
REMARK                            x       y       z     vdW  Elec       q    Type
REMARK                         _______ _______ _______ _____ _____    ______ ____
ROOT
ATOM      1  O   UNL     1     112.198 126.678 136.058  0.00  0.00    +0.000 OA
ATOM      2  O   UNL     1     110.571 124.911 135.460  0.00  0.00    +0.000 OA
ATOM      3  O   UNL     1     110.601 128.656 134.638  0.00  0.00    +0.000 OA
ATOM      4  C   UNL     1     112.323 125.902 136.308  0.00  0.00    +0.000 C 
ATOM      5  C   UNL     1     111.781 125.313 136.109  0.00  0.00    +0.000 C 
ATOM      6  C   UNL     1     110.990 126.276 135.410  0.00  0.00    +0.000 A 
ATOM      7  C   UNL     1     111.533 126.865 135.609  0.00  0.00    +0.000 A 
ATOM      8  C   UNL     1     111.114 125.500 135.659  0.00  0.00    +0.000 C 
ATOM      9  C   UNL     1     111.415 127.678 135.354  0.00  0.00    +0.000 A 
ATOM     10  C   UNL     1     110.292 126.459 134.942  0.00  0.00    +0.000 A 
ATOM     11  C   UNL     1     110.723 127.879 134.887  0.00  0.00    +0.000 A 
ATOM     12  C   UNL     1     110.158 127.266 134.679  0.00  0.00    +0.000 A 
ENDROOT
BRANCH   4  14
ATOM     13  O   UNL     1     114.987 125.151 138.105  0.00  0.00    +0.000 OA
ATOM     14  C   UNL     1     112.989 125.714 136.757  0.00  0.00    +0.000 A 
ATOM     15  C   UNL     1     113.660 125.405 136.390  0.00  0.00    +0.000 A 
ATOM     16  C   UNL     1     112.983 125.836 137.572  0.00  0.00    +0.000 A 
ATOM     17  C   UNL     1     114.326 125.217 136.839  0.00  0.00    +0.000 A 
ATOM     18  C   UNL     1     113.650 125.648 138.022  0.00  0.00    +0.000 A 
ATOM     19  C   UNL     1     114.321 125.339 137.655  0.00  0.00    +0.000 A 
ENDBRANCH   4  14
BRANCH   9  20
ATOM     20  O   UNL     1     111.962 128.260 135.558  0.00  0.00    +0.000 OA
ATOM     21  C   UNL     1     112.261 128.767 134.979  0.00  0.00    +0.000 C 
ENDBRANCH   9  20
TORSDOF 2
ENDMDL
MODEL 9
REMARK VINA RESULT:      -7.7      1.312      4.027
REMARK  Name = 10636929
REMARK  2 active torsions:
REMARK  status: ('A' for Active; 'I' for Inactive)
REMARK    1  A    between atoms: O_2  and  C_12
REMARK    2  A    between atoms: C_6  and  C_8
REMARK                            x       y       z     vdW  Elec       q    Type
REMARK                         _______ _______ _______ _____ _____    ______ ____
ROOT
ATOM      1  O   UNL     1     110.845 126.173 136.646  0.00  0.00    +0.000 OA
ATOM      2  O   UNL     1     109.571 125.568 134.612  0.00  0.00    +0.000 OA
ATOM      3  O   UNL     1     109.048 128.414 137.128  0.00  0.00    +0.000 OA
ATOM      4  C   UNL     1     111.076 125.523 136.193  0.00  0.00    +0.000 C 
ATOM      5  C   UNL     1     110.652 125.321 135.515  0.00  0.00    +0.000 C 
ATOM      6  C   UNL     1     109.765 126.419 135.744  0.00  0.00    +0.000 A 
ATOM      7  C   UNL     1     110.190 126.620 136.422  0.00  0.00    +0.000 A 
ATOM      8  C   UNL     1     109.996 125.769 135.290  0.00  0.00    +0.000 C 
ATOM      9  C   UNL     1     109.959 127.295 136.902  0.00  0.00    +0.000 A 
ATOM     10  C   UNL     1     109.081 126.877 135.499  0.00  0.00    +0.000 A 
ATOM     11  C   UNL     1     109.277 127.765 136.673  0.00  0.00    +0.000 A 
ATOM     12  C   UNL     1     108.835 127.555 135.967  0.00  0.00    +0.000 A 
ENDROOT
BRANCH   4  14
ATOM     13  O   UNL     1     113.697 123.731 137.093  0.00  0.00    +0.000 OA
ATOM     14  C   UNL     1     111.731 125.076 136.418  0.00  0.00    +0.000 A 
ATOM     15  C   UNL     1     112.493 125.350 136.261  0.00  0.00    +0.000 A 
ATOM     16  C   UNL     1     111.625 124.352 136.800  0.00  0.00    +0.000 A 
ATOM     17  C   UNL     1     113.148 124.903 136.485  0.00  0.00    +0.000 A 
ATOM     18  C   UNL     1     112.280 123.904 137.025  0.00  0.00    +0.000 A 
ATOM     19  C   UNL     1     113.042 124.180 136.867  0.00  0.00    +0.000 A 
ENDBRANCH   4  14
BRANCH   9  20
ATOM     20  O   UNL     1     110.389 127.489 137.578  0.00  0.00    +0.000 OA
ATOM     21  C   UNL     1     110.002 127.584 138.301  0.00  0.00    +0.000 C 
ENDBRANCH   9  20
TORSDOF 2
ENDMDL
MODEL 10
REMARK VINA RESULT:      -7.7     11.883     12.812
REMARK  Name = 10636929
REMARK  2 active torsions:
REMARK  status: ('A' for Active; 'I' for Inactive)
REMARK    1  A    between atoms: O_2  and  C_12
REMARK    2  A    between atoms: C_6  and  C_8
REMARK                            x       y       z     vdW  Elec       q    Type
REMARK                         _______ _______ _______ _____ _____    ______ ____
ROOT
ATOM      1  O   UNL     1     104.204 124.413 145.991  0.00  0.00    +0.000 OA
ATOM      2  O   UNL     1     105.031 124.510 148.321  0.00  0.00    +0.000 OA
ATOM      3  O   UNL     1     106.707 125.552 145.033  0.00  0.00    +0.000 OA
ATOM      4  C   UNL     1     103.726 124.149 146.609  0.00  0.00    +0.000 C 
ATOM      5  C   UNL     1     104.001 124.182 147.386  0.00  0.00    +0.000 C 
ATOM      6  C   UNL     1     105.233 124.741 146.925  0.00  0.00    +0.000 A 
ATOM      7  C   UNL     1     104.957 124.709 146.148  0.00  0.00    +0.000 A 
ATOM      8  C   UNL     1     104.756 124.478 147.544  0.00  0.00    +0.000 C 
ATOM      9  C   UNL     1     105.446 124.980 145.495  0.00  0.00    +0.000 A 
ATOM     10  C   UNL     1     106.017 125.047 147.103  0.00  0.00    +0.000 A 
ATOM     11  C   UNL     1     106.231 125.289 145.654  0.00  0.00    +0.000 A 
ATOM     12  C   UNL     1     106.519 125.323 146.462  0.00  0.00    +0.000 A 
ENDROOT
BRANCH   4  14
ATOM     13  O   UNL     1     100.711 122.965 145.977  0.00  0.00    +0.000 OA
ATOM     14  C   UNL     1     102.972 123.853 146.451  0.00  0.00    +0.000 A 
ATOM     15  C   UNL     1     102.306 124.313 146.611  0.00  0.00    +0.000 A 
ATOM     16  C   UNL     1     102.885 123.097 146.134  0.00  0.00    +0.000 A 
ATOM     17  C   UNL     1     101.553 124.018 146.453  0.00  0.00    +0.000 A 
ATOM     18  C   UNL     1     102.130 122.801 145.975  0.00  0.00    +0.000 A 
ATOM     19  C   UNL     1     101.465 123.261 146.135  0.00  0.00    +0.000 A 
ENDBRANCH   4  14
BRANCH   9  20
ATOM     20  O   UNL     1     105.162 124.944 144.722  0.00  0.00    +0.000 OA
ATOM     21  C   UNL     1     105.628 124.614 144.126  0.00  0.00    +0.000 C 
ENDBRANCH   9  20
TORSDOF 2
ENDMDL
