MODEL 1
REMARK VINA RESULT:      -7.5      0.000      0.000
REMARK  Name = null
REMARK  7 active torsions:
REMARK  status: ('A' for Active; 'I' for Inactive)
REMARK    1  A    between atoms: O_2  and  C_3
REMARK    2  A    between atoms: C_4  and  O_28
REMARK    3  A    between atoms: C_6  and  C_9
REMARK    4  A    between atoms: C_10  and  O_26
REMARK    5  A    between atoms: C_14  and  O_24
REMARK    6  A    between atoms: C_15  and  O_22
REMARK    7  A    between atoms: C_16  and  O_20
REMARK                            x       y       z     vdW  Elec       q    Type
REMARK                         _______ _______ _______ _____ _____    ______ ____
ROOT
ATOM      1  C   UNL     1     113.398 128.287 136.012  0.00  0.00    +0.000 A 
ATOM      2  C   UNL     1     112.613 128.253 135.757  0.00  0.00    +0.000 A 
ATOM      3  C   UNL     1     112.173 127.566 135.872  0.00  0.00    +0.000 A 
ATOM      4  O   UNL     1     111.389 127.531 135.618  0.00  0.00    +0.000 OA
ATOM      5  C   UNL     1     112.515 126.913 136.241  0.00  0.00    +0.000 A 
ATOM      6  C   UNL     1     112.075 126.225 136.357  0.00  0.00    +0.000 A 
ATOM      7  C   UNL     1     112.417 125.572 136.726  0.00  0.00    +0.000 A 
ATOM      8  C   UNL     1     113.202 125.607 136.981  0.00  0.00    +0.000 A 
ATOM      9  C   UNL     1     113.643 126.294 136.866  0.00  0.00    +0.000 A 
ATOM     10  C   UNL     1     113.300 126.948 136.496  0.00  0.00    +0.000 A 
ATOM     11  O   UNL     1     113.741 127.635 136.381  0.00  0.00    +0.000 OA
ENDROOT
BRANCH   1  15
ATOM     12  C   UNL     1     114.721 130.351 135.664  0.00  0.00    +0.000 A 
ATOM     13  C   UNL     1     114.334 130.225 136.382  0.00  0.00    +0.000 A 
ATOM     14  C   UNL     1     113.894 129.538 136.498  0.00  0.00    +0.000 A 
ATOM     15  C   UNL     1     113.839 128.976 135.896  0.00  0.00    +0.000 A 
ATOM     16  C   UNL     1     114.226 129.101 135.178  0.00  0.00    +0.000 A 
ATOM     17  C   UNL     1     114.667 129.790 135.062  0.00  0.00    +0.000 A 
BRANCH  12  19
ATOM     18  C   UNL     1     115.550 131.162 134.831  0.00  0.00    +0.000 C 
ATOM     19  O   UNL     1     115.161 131.038 135.547  0.00  0.00    +0.000 OA
ENDBRANCH  12  19
BRANCH  13  20
ATOM     20  O   UNL     1     114.388 130.786 136.983  0.00  0.00    +0.000 OA
ATOM     21  C   UNL     1     114.074 130.624 137.729  0.00  0.00    +0.000 C 
ENDBRANCH  13  20
ENDBRANCH   1  15
BRANCH   8  22
ATOM     22  O   UNL     1     113.544 124.954 137.351  0.00  0.00    +0.000 OA
ATOM     23  C   UNL     1     114.366 124.893 137.402  0.00  0.00    +0.000 C 
ENDBRANCH   8  22
BRANCH   7  24
ATOM     24  O   UNL     1     111.976 124.884 136.842  0.00  0.00    +0.000 OA
ATOM     25  C   UNL     1     111.651 124.723 137.583  0.00  0.00    +0.000 C 
ENDBRANCH   7  24
BRANCH   6  26
ATOM     26  O   UNL     1     111.291 126.191 136.103  0.00  0.00    +0.000 OA
ATOM     27  C   UNL     1     111.054 125.606 135.571  0.00  0.00    +0.000 C 
ENDBRANCH   6  26
BRANCH   2  28
ATOM     28  O   UNL     1     112.271 128.906 135.387  0.00  0.00    +0.000 OA
ATOM     29  C   UNL     1     111.461 129.044 135.462  0.00  0.00    +0.000 C 
ENDBRANCH   2  28
TORSDOF 7
ENDMDL
MODEL 2
REMARK VINA RESULT:      -7.1      1.209      4.815
REMARK  Name = null
REMARK  7 active torsions:
REMARK  status: ('A' for Active; 'I' for Inactive)
REMARK    1  A    between atoms: O_2  and  C_3
REMARK    2  A    between atoms: C_4  and  O_28
REMARK    3  A    between atoms: C_6  and  C_9
REMARK    4  A    between atoms: C_10  and  O_26
REMARK    5  A    between atoms: C_14  and  O_24
REMARK    6  A    between atoms: C_15  and  O_22
REMARK    7  A    between atoms: C_16  and  O_20
REMARK                            x       y       z     vdW  Elec       q    Type
REMARK                         _______ _______ _______ _____ _____    ______ ____
ROOT
ATOM      1  C   UNL     1     112.690 127.022 136.784  0.00  0.00    +0.000 A 
ATOM      2  C   UNL     1     112.466 127.422 137.470  0.00  0.00    +0.000 A 
ATOM      3  C   UNL     1     112.704 128.203 137.588  0.00  0.00    +0.000 A 
ATOM      4  O   UNL     1     112.479 128.603 138.274  0.00  0.00    +0.000 OA
ATOM      5  C   UNL     1     113.165 128.584 137.021  0.00  0.00    +0.000 A 
ATOM      6  C   UNL     1     113.403 129.365 137.139  0.00  0.00    +0.000 A 
ATOM      7  C   UNL     1     113.865 129.746 136.572  0.00  0.00    +0.000 A 
ATOM      8  C   UNL     1     114.089 129.345 135.885  0.00  0.00    +0.000 A 
ATOM      9  C   UNL     1     113.852 128.565 135.767  0.00  0.00    +0.000 A 
ATOM     10  C   UNL     1     113.390 128.183 136.335  0.00  0.00    +0.000 A 
ATOM     11  O   UNL     1     113.152 127.402 136.217  0.00  0.00    +0.000 OA
ENDROOT
BRANCH   1  15
ATOM     12  C   UNL     1     111.977 124.678 136.432  0.00  0.00    +0.000 A 
ATOM     13  C   UNL     1     111.552 125.294 136.087  0.00  0.00    +0.000 A 
ATOM     14  C   UNL     1     111.789 126.075 136.204  0.00  0.00    +0.000 A 
ATOM     15  C   UNL     1     112.452 126.240 136.666  0.00  0.00    +0.000 A 
ATOM     16  C   UNL     1     112.878 125.624 137.011  0.00  0.00    +0.000 A 
ATOM     17  C   UNL     1     112.641 124.842 136.894  0.00  0.00    +0.000 A 
BRANCH  12  19
ATOM     18  C   UNL     1     112.065 123.294 136.775  0.00  0.00    +0.000 C 
ATOM     19  O   UNL     1     111.741 123.896 136.315  0.00  0.00    +0.000 OA
ENDBRANCH  12  19
BRANCH  13  20
ATOM     20  O   UNL     1     110.889 125.129 135.626  0.00  0.00    +0.000 OA
ATOM     21  C   UNL     1     110.544 125.726 135.171  0.00  0.00    +0.000 C 
ENDBRANCH  13  20
ENDBRANCH   1  15
BRANCH   8  22
ATOM     22  O   UNL     1     114.551 129.727 135.318  0.00  0.00    +0.000 OA
ATOM     23  C   UNL     1     114.907 129.290 134.715  0.00  0.00    +0.000 C 
ENDBRANCH   8  22
BRANCH   7  24
ATOM     24  O   UNL     1     114.103 130.527 136.689  0.00  0.00    +0.000 OA
ATOM     25  C   UNL     1     113.711 131.140 136.300  0.00  0.00    +0.000 C 
ENDBRANCH   7  24
BRANCH   6  26
ATOM     26  O   UNL     1     113.179 129.765 137.824  0.00  0.00    +0.000 OA
ATOM     27  C   UNL     1     113.753 130.090 138.319  0.00  0.00    +0.000 C 
ENDBRANCH   6  26
BRANCH   2  28
ATOM     28  O   UNL     1     112.004 127.041 138.038  0.00  0.00    +0.000 OA
ATOM     29  C   UNL     1     111.475 127.475 138.498  0.00  0.00    +0.000 C 
ENDBRANCH   2  28
TORSDOF 7
ENDMDL
MODEL 3
REMARK VINA RESULT:      -7.1     11.997     13.935
REMARK  Name = null
REMARK  7 active torsions:
REMARK  status: ('A' for Active; 'I' for Inactive)
REMARK    1  A    between atoms: O_2  and  C_3
REMARK    2  A    between atoms: C_4  and  O_28
REMARK    3  A    between atoms: C_6  and  C_9
REMARK    4  A    between atoms: C_10  and  O_26
REMARK    5  A    between atoms: C_14  and  O_24
REMARK    6  A    between atoms: C_15  and  O_22
REMARK    7  A    between atoms: C_16  and  O_20
REMARK                            x       y       z     vdW  Elec       q    Type
REMARK                         _______ _______ _______ _____ _____    ______ ____
ROOT
ATOM      1  C   UNL     1     105.065 125.445 146.602  0.00  0.00    +0.000 A 
ATOM      2  C   UNL     1     104.859 125.061 145.900  0.00  0.00    +0.000 A 
ATOM      3  C   UNL     1     104.203 124.563 145.880  0.00  0.00    +0.000 A 
ATOM      4  O   UNL     1     103.997 124.180 145.179  0.00  0.00    +0.000 OA
ATOM      5  C   UNL     1     103.752 124.447 146.561  0.00  0.00    +0.000 A 
ATOM      6  C   UNL     1     103.095 123.948 146.541  0.00  0.00    +0.000 A 
ATOM      7  C   UNL     1     102.644 123.833 147.221  0.00  0.00    +0.000 A 
ATOM      8  C   UNL     1     102.850 124.216 147.923  0.00  0.00    +0.000 A 
ATOM      9  C   UNL     1     103.506 124.715 147.943  0.00  0.00    +0.000 A 
ATOM     10  C   UNL     1     103.958 124.831 147.263  0.00  0.00    +0.000 A 
ATOM     11  O   UNL     1     104.614 125.329 147.283  0.00  0.00    +0.000 OA
ENDROOT
BRANCH   1  15
ATOM     12  C   UNL     1     107.036 126.942 146.660  0.00  0.00    +0.000 A 
ATOM     13  C   UNL     1     107.105 126.159 146.912  0.00  0.00    +0.000 A 
ATOM     14  C   UNL     1     106.449 125.661 146.893  0.00  0.00    +0.000 A 
ATOM     15  C   UNL     1     105.722 125.944 146.622  0.00  0.00    +0.000 A 
ATOM     16  C   UNL     1     105.653 126.726 146.370  0.00  0.00    +0.000 A 
ATOM     17  C   UNL     1     106.310 127.226 146.389  0.00  0.00    +0.000 A 
BRANCH  12  19
ATOM     18  C   UNL     1     107.655 128.184 146.324  0.00  0.00    +0.000 C 
ATOM     19  O   UNL     1     107.692 127.442 146.680  0.00  0.00    +0.000 OA
ENDBRANCH  12  19
BRANCH  13  20
ATOM     20  O   UNL     1     107.830 125.876 147.183  0.00  0.00    +0.000 OA
ATOM     21  C   UNL     1     107.854 125.253 147.724  0.00  0.00    +0.000 C 
ENDBRANCH  13  20
ENDBRANCH   1  15
BRANCH   8  22
ATOM     22  O   UNL     1     102.398 124.100 148.604  0.00  0.00    +0.000 OA
ATOM     23  C   UNL     1     102.708 124.297 149.343  0.00  0.00    +0.000 C 
ENDBRANCH   8  22
BRANCH   7  24
ATOM     24  O   UNL     1     101.987 123.334 147.202  0.00  0.00    +0.000 OA
ATOM     25  C   UNL     1     101.227 123.654 147.176  0.00  0.00    +0.000 C 
ENDBRANCH   7  24
BRANCH   6  26
ATOM     26  O   UNL     1     102.889 123.565 145.840  0.00  0.00    +0.000 OA
ATOM     27  C   UNL     1     102.836 122.743 145.819  0.00  0.00    +0.000 C 
ENDBRANCH   6  26
BRANCH   2  28
ATOM     28  O   UNL     1     105.311 125.177 145.220  0.00  0.00    +0.000 OA
ATOM     29  C   UNL     1     105.441 124.550 144.700  0.00  0.00    +0.000 C 
ENDBRANCH   2  28
TORSDOF 7
ENDMDL
MODEL 4
REMARK VINA RESULT:      -6.9     12.421     14.373
REMARK  Name = null
REMARK  7 active torsions:
REMARK  status: ('A' for Active; 'I' for Inactive)
REMARK    1  A    between atoms: O_2  and  C_3
REMARK    2  A    between atoms: C_4  and  O_28
REMARK    3  A    between atoms: C_6  and  C_9
REMARK    4  A    between atoms: C_10  and  O_26
REMARK    5  A    between atoms: C_14  and  O_24
REMARK    6  A    between atoms: C_15  and  O_22
REMARK    7  A    between atoms: C_16  and  O_20
REMARK                            x       y       z     vdW  Elec       q    Type
REMARK                         _______ _______ _______ _____ _____    ______ ____
ROOT
ATOM      1  C   UNL     1     104.914 125.453 147.204  0.00  0.00    +0.000 A 
ATOM      2  C   UNL     1     104.472 125.526 147.897  0.00  0.00    +0.000 A 
ATOM      3  C   UNL     1     103.802 125.059 148.010  0.00  0.00    +0.000 A 
ATOM      4  O   UNL     1     103.360 125.132 148.703  0.00  0.00    +0.000 OA
ATOM      5  C   UNL     1     103.574 124.518 147.431  0.00  0.00    +0.000 A 
ATOM      6  C   UNL     1     102.904 124.050 147.543  0.00  0.00    +0.000 A 
ATOM      7  C   UNL     1     102.676 123.509 146.964  0.00  0.00    +0.000 A 
ATOM      8  C   UNL     1     103.119 123.436 146.271  0.00  0.00    +0.000 A 
ATOM      9  C   UNL     1     103.789 123.903 146.158  0.00  0.00    +0.000 A 
ATOM     10  C   UNL     1     104.017 124.445 146.737  0.00  0.00    +0.000 A 
ATOM     11  O   UNL     1     104.687 124.912 146.625  0.00  0.00    +0.000 OA
ENDROOT
BRANCH   1  15
ATOM     12  C   UNL     1     106.924 126.858 146.867  0.00  0.00    +0.000 A 
ATOM     13  C   UNL     1     107.003 126.084 147.143  0.00  0.00    +0.000 A 
ATOM     14  C   UNL     1     106.334 125.616 147.255  0.00  0.00    +0.000 A 
ATOM     15  C   UNL     1     105.585 125.921 147.092  0.00  0.00    +0.000 A 
ATOM     16  C   UNL     1     105.505 126.694 146.816  0.00  0.00    +0.000 A 
ATOM     17  C   UNL     1     106.176 127.163 146.703  0.00  0.00    +0.000 A 
BRANCH  12  19
ATOM     18  C   UNL     1     107.529 128.050 146.365  0.00  0.00    +0.000 C 
ATOM     19  O   UNL     1     107.593 127.327 146.754  0.00  0.00    +0.000 OA
ENDBRANCH  12  19
BRANCH  13  20
ATOM     20  O   UNL     1     107.752 125.780 147.306  0.00  0.00    +0.000 OA
ATOM     21  C   UNL     1     107.830 125.112 147.786  0.00  0.00    +0.000 C 
ENDBRANCH  13  20
ENDBRANCH   1  15
BRANCH   8  22
ATOM     22  O   UNL     1     102.890 122.895 145.691  0.00  0.00    +0.000 OA
ATOM     23  C   UNL     1     103.390 122.739 145.053  0.00  0.00    +0.000 C 
ENDBRANCH   8  22
BRANCH   7  24
ATOM     24  O   UNL     1     102.006 123.041 147.076  0.00  0.00    +0.000 OA
ATOM     25  C   UNL     1     101.306 123.221 146.677  0.00  0.00    +0.000 C 
ENDBRANCH   7  24
BRANCH   6  26
ATOM     26  O   UNL     1     102.462 124.123 148.236  0.00  0.00    +0.000 OA
ATOM     27  C   UNL     1     102.300 123.457 148.695  0.00  0.00    +0.000 C 
ENDBRANCH   6  26
BRANCH   2  28
ATOM     28  O   UNL     1     104.700 126.067 148.477  0.00  0.00    +0.000 OA
ATOM     29  C   UNL     1     104.433 125.978 149.252  0.00  0.00    +0.000 C 
ENDBRANCH   2  28
TORSDOF 7
ENDMDL
MODEL 5
REMARK VINA RESULT:      -6.8     10.252     12.433
REMARK  Name = null
REMARK  7 active torsions:
REMARK  status: ('A' for Active; 'I' for Inactive)
REMARK    1  A    between atoms: O_2  and  C_3
REMARK    2  A    between atoms: C_4  and  O_28
REMARK    3  A    between atoms: C_6  and  C_9
REMARK    4  A    between atoms: C_10  and  O_26
REMARK    5  A    between atoms: C_14  and  O_24
REMARK    6  A    between atoms: C_15  and  O_22
REMARK    7  A    between atoms: C_16  and  O_20
REMARK                            x       y       z     vdW  Elec       q    Type
REMARK                         _______ _______ _______ _____ _____    ______ ____
ROOT
ATOM      1  C   UNL     1     106.425 125.739 146.054  0.00  0.00    +0.000 A 
ATOM      2  C   UNL     1     105.996 125.194 145.605  0.00  0.00    +0.000 A 
ATOM      3  C   UNL     1     105.837 125.348 144.811  0.00  0.00    +0.000 A 
ATOM      4  O   UNL     1     105.408 124.804 144.363  0.00  0.00    +0.000 OA
ATOM      5  C   UNL     1     106.107 126.046 144.464  0.00  0.00    +0.000 A 
ATOM      6  C   UNL     1     105.948 126.200 143.669  0.00  0.00    +0.000 A 
ATOM      7  C   UNL     1     106.218 126.898 143.322  0.00  0.00    +0.000 A 
ATOM      8  C   UNL     1     106.648 127.442 143.771  0.00  0.00    +0.000 A 
ATOM      9  C   UNL     1     106.807 127.288 144.565  0.00  0.00    +0.000 A 
ATOM     10  C   UNL     1     106.537 126.590 144.912  0.00  0.00    +0.000 A 
ATOM     11  O   UNL     1     106.696 126.436 145.707  0.00  0.00    +0.000 OA
ENDROOT
BRANCH   1  15
ATOM     12  C   UNL     1     106.902 125.274 148.438  0.00  0.00    +0.000 A 
ATOM     13  C   UNL     1     106.259 125.748 148.230  0.00  0.00    +0.000 A 
ATOM     14  C   UNL     1     106.100 125.902 147.436  0.00  0.00    +0.000 A 
ATOM     15  C   UNL     1     106.584 125.584 146.848  0.00  0.00    +0.000 A 
ATOM     16  C   UNL     1     107.227 125.111 147.056  0.00  0.00    +0.000 A 
ATOM     17  C   UNL     1     107.387 124.956 147.851  0.00  0.00    +0.000 A 
BRANCH  12  19
ATOM     18  C   UNL     1     107.617 124.546 149.437  0.00  0.00    +0.000 C 
ATOM     19  O   UNL     1     107.062 125.119 149.232  0.00  0.00    +0.000 OA
ENDBRANCH  12  19
BRANCH  13  20
ATOM     20  O   UNL     1     105.776 126.066 148.817  0.00  0.00    +0.000 OA
ATOM     21  C   UNL     1     105.335 126.747 148.665  0.00  0.00    +0.000 C 
ENDBRANCH  13  20
ENDBRANCH   1  15
BRANCH   8  22
ATOM     22  O   UNL     1     106.919 128.140 143.423  0.00  0.00    +0.000 OA
ATOM     23  C   UNL     1     107.489 128.597 143.806  0.00  0.00    +0.000 C 
ENDBRANCH   8  22
BRANCH   7  24
ATOM     24  O   UNL     1     106.060 127.052 142.527  0.00  0.00    +0.000 OA
ATOM     25  C   UNL     1     105.470 127.592 142.322  0.00  0.00    +0.000 C 
ENDBRANCH   7  24
BRANCH   6  26
ATOM     26  O   UNL     1     105.519 125.656 143.222  0.00  0.00    +0.000 OA
ATOM     27  C   UNL     1     105.861 125.306 142.558  0.00  0.00    +0.000 C 
ENDBRANCH   6  26
BRANCH   2  28
ATOM     28  O   UNL     1     105.725 124.496 145.953  0.00  0.00    +0.000 OA
ATOM     29  C   UNL     1     104.984 124.196 145.751  0.00  0.00    +0.000 C 
ENDBRANCH   2  28
TORSDOF 7
ENDMDL
MODEL 6
REMARK VINA RESULT:      -6.7      1.000      2.407
REMARK  Name = null
REMARK  7 active torsions:
REMARK  status: ('A' for Active; 'I' for Inactive)
REMARK    1  A    between atoms: O_2  and  C_3
REMARK    2  A    between atoms: C_4  and  O_28
REMARK    3  A    between atoms: C_6  and  C_9
REMARK    4  A    between atoms: C_10  and  O_26
REMARK    5  A    between atoms: C_14  and  O_24
REMARK    6  A    between atoms: C_15  and  O_22
REMARK    7  A    between atoms: C_16  and  O_20
REMARK                            x       y       z     vdW  Elec       q    Type
REMARK                         _______ _______ _______ _____ _____    ______ ____
ROOT
ATOM      1  C   UNL     1     112.942 128.428 135.884  0.00  0.00    +0.000 A 
ATOM      2  C   UNL     1     113.130 127.657 136.113  0.00  0.00    +0.000 A 
ATOM      3  C   UNL     1     112.544 127.076 136.127  0.00  0.00    +0.000 A 
ATOM      4  O   UNL     1     112.733 126.306 136.356  0.00  0.00    +0.000 OA
ATOM      5  C   UNL     1     111.771 127.265 135.913  0.00  0.00    +0.000 A 
ATOM      6  C   UNL     1     111.185 126.685 135.928  0.00  0.00    +0.000 A 
ATOM      7  C   UNL     1     110.411 126.874 135.714  0.00  0.00    +0.000 A 
ATOM      8  C   UNL     1     110.223 127.645 135.485  0.00  0.00    +0.000 A 
ATOM      9  C   UNL     1     110.808 128.225 135.471  0.00  0.00    +0.000 A 
ATOM     10  C   UNL     1     111.583 128.036 135.685  0.00  0.00    +0.000 A 
ATOM     11  O   UNL     1     112.168 128.617 135.670  0.00  0.00    +0.000 OA
ENDROOT
BRANCH   1  15
ATOM     12  C   UNL     1     114.701 130.168 135.840  0.00  0.00    +0.000 A 
ATOM     13  C   UNL     1     114.223 130.081 136.508  0.00  0.00    +0.000 A 
ATOM     14  C   UNL     1     113.637 129.502 136.522  0.00  0.00    +0.000 A 
ATOM     15  C   UNL     1     113.528 129.008 135.870  0.00  0.00    +0.000 A 
ATOM     16  C   UNL     1     114.006 129.095 135.203  0.00  0.00    +0.000 A 
ATOM     17  C   UNL     1     114.592 129.675 135.188  0.00  0.00    +0.000 A 
BRANCH  12  19
ATOM     18  C   UNL     1     115.710 130.889 135.132  0.00  0.00    +0.000 C 
ATOM     19  O   UNL     1     115.287 130.748 135.825  0.00  0.00    +0.000 OA
ENDBRANCH  12  19
BRANCH  13  20
ATOM     20  O   UNL     1     114.332 130.574 137.159  0.00  0.00    +0.000 OA
ATOM     21  C   UNL     1     113.766 130.595 137.760  0.00  0.00    +0.000 C 
ENDBRANCH  13  20
ENDBRANCH   1  15
BRANCH   8  22
ATOM     22  O   UNL     1     109.449 127.834 135.271  0.00  0.00    +0.000 OA
ATOM     23  C   UNL     1     109.173 128.606 135.360  0.00  0.00    +0.000 C 
ENDBRANCH   8  22
BRANCH   7  24
ATOM     24  O   UNL     1     109.825 126.293 135.728  0.00  0.00    +0.000 OA
ATOM     25  C   UNL     1     109.573 125.945 135.024  0.00  0.00    +0.000 C 
ENDBRANCH   7  24
BRANCH   6  26
ATOM     26  O   UNL     1     111.373 125.915 136.156  0.00  0.00    +0.000 OA
ATOM     27  C   UNL     1     110.971 125.560 136.783  0.00  0.00    +0.000 C 
ENDBRANCH   6  26
BRANCH   2  28
ATOM     28  O   UNL     1     113.904 127.468 136.327  0.00  0.00    +0.000 OA
ATOM     29  C   UNL     1     114.104 126.687 136.504  0.00  0.00    +0.000 C 
ENDBRANCH   2  28
TORSDOF 7
ENDMDL
MODEL 7
REMARK VINA RESULT:      -6.7      2.135      4.748
REMARK  Name = null
REMARK  7 active torsions:
REMARK  status: ('A' for Active; 'I' for Inactive)
REMARK    1  A    between atoms: O_2  and  C_3
REMARK    2  A    between atoms: C_4  and  O_28
REMARK    3  A    between atoms: C_6  and  C_9
REMARK    4  A    between atoms: C_10  and  O_26
REMARK    5  A    between atoms: C_14  and  O_24
REMARK    6  A    between atoms: C_15  and  O_22
REMARK    7  A    between atoms: C_16  and  O_20
REMARK                            x       y       z     vdW  Elec       q    Type
REMARK                         _______ _______ _______ _____ _____    ______ ____
ROOT
ATOM      1  C   UNL     1     111.690 126.427 136.390  0.00  0.00    +0.000 A 
ATOM      2  C   UNL     1     111.265 126.595 135.702  0.00  0.00    +0.000 A 
ATOM      3  C   UNL     1     111.048 127.371 135.531  0.00  0.00    +0.000 A 
ATOM      4  O   UNL     1     110.623 127.539 134.844  0.00  0.00    +0.000 OA
ATOM      5  C   UNL     1     111.255 127.981 136.047  0.00  0.00    +0.000 A 
ATOM      6  C   UNL     1     111.037 128.758 135.877  0.00  0.00    +0.000 A 
ATOM      7  C   UNL     1     111.244 129.367 136.392  0.00  0.00    +0.000 A 
ATOM      8  C   UNL     1     111.670 129.199 137.080  0.00  0.00    +0.000 A 
ATOM      9  C   UNL     1     111.887 128.423 137.251  0.00  0.00    +0.000 A 
ATOM     10  C   UNL     1     111.680 127.813 136.735  0.00  0.00    +0.000 A 
ATOM     11  O   UNL     1     111.897 127.036 136.905  0.00  0.00    +0.000 OA
ENDROOT
BRANCH   1  15
ATOM     12  C   UNL     1     112.341 124.094 136.902  0.00  0.00    +0.000 A 
ATOM     13  C   UNL     1     112.881 124.603 136.540  0.00  0.00    +0.000 A 
ATOM     14  C   UNL     1     112.664 125.380 136.370  0.00  0.00    +0.000 A 
ATOM     15  C   UNL     1     111.908 125.649 136.560  0.00  0.00    +0.000 A 
ATOM     16  C   UNL     1     111.368 125.140 136.922  0.00  0.00    +0.000 A 
ATOM     17  C   UNL     1     111.585 124.362 137.092  0.00  0.00    +0.000 A 
BRANCH  12  19
ATOM     18  C   UNL     1     111.993 122.783 137.348  0.00  0.00    +0.000 C 
ATOM     19  O   UNL     1     112.557 123.317 137.072  0.00  0.00    +0.000 OA
ENDBRANCH  12  19
BRANCH  13  20
ATOM     20  O   UNL     1     113.637 124.334 136.350  0.00  0.00    +0.000 OA
ATOM     21  C   UNL     1     114.274 124.859 136.354  0.00  0.00    +0.000 C 
ENDBRANCH  13  20
ENDBRANCH   1  15
BRANCH   8  22
ATOM     22  O   UNL     1     111.877 129.809 137.596  0.00  0.00    +0.000 OA
ATOM     23  C   UNL     1     112.494 129.703 138.132  0.00  0.00    +0.000 C 
ENDBRANCH   8  22
BRANCH   7  24
ATOM     24  O   UNL     1     111.027 130.145 136.222  0.00  0.00    +0.000 OA
ATOM     25  C   UNL     1     110.400 130.496 136.627  0.00  0.00    +0.000 C 
ENDBRANCH   7  24
BRANCH   6  26
ATOM     26  O   UNL     1     110.613 128.926 135.190  0.00  0.00    +0.000 OA
ATOM     27  C   UNL     1     110.912 129.463 134.639  0.00  0.00    +0.000 C 
ENDBRANCH   6  26
BRANCH   2  28
ATOM     28  O   UNL     1     111.058 125.985 135.186  0.00  0.00    +0.000 OA
ATOM     29  C   UNL     1     110.426 126.083 134.665  0.00  0.00    +0.000 C 
ENDBRANCH   2  28
TORSDOF 7
ENDMDL
MODEL 8
REMARK VINA RESULT:      -6.6     10.425     12.644
REMARK  Name = null
REMARK  7 active torsions:
REMARK  status: ('A' for Active; 'I' for Inactive)
REMARK    1  A    between atoms: O_2  and  C_3
REMARK    2  A    between atoms: C_4  and  O_28
REMARK    3  A    between atoms: C_6  and  C_9
REMARK    4  A    between atoms: C_10  and  O_26
REMARK    5  A    between atoms: C_14  and  O_24
REMARK    6  A    between atoms: C_15  and  O_22
REMARK    7  A    between atoms: C_16  and  O_20
REMARK                            x       y       z     vdW  Elec       q    Type
REMARK                         _______ _______ _______ _____ _____    ______ ____
ROOT
ATOM      1  C   UNL     1     106.511 125.721 146.309  0.00  0.00    +0.000 A 
ATOM      2  C   UNL     1     106.528 126.541 146.217  0.00  0.00    +0.000 A 
ATOM      3  C   UNL     1     106.363 126.877 145.482  0.00  0.00    +0.000 A 
ATOM      4  O   UNL     1     106.380 127.697 145.390  0.00  0.00    +0.000 OA
ATOM      5  C   UNL     1     106.182 126.394 144.839  0.00  0.00    +0.000 A 
ATOM      6  C   UNL     1     106.017 126.729 144.103  0.00  0.00    +0.000 A 
ATOM      7  C   UNL     1     105.836 126.246 143.461  0.00  0.00    +0.000 A 
ATOM      8  C   UNL     1     105.820 125.426 143.553  0.00  0.00    +0.000 A 
ATOM      9  C   UNL     1     105.984 125.090 144.287  0.00  0.00    +0.000 A 
ATOM     10  C   UNL     1     106.166 125.573 144.931  0.00  0.00    +0.000 A 
ATOM     11  O   UNL     1     106.330 125.238 145.666  0.00  0.00    +0.000 OA
ENDROOT
BRANCH   1  15
ATOM     12  C   UNL     1     107.007 124.715 148.515  0.00  0.00    +0.000 A 
ATOM     13  C   UNL     1     106.225 124.801 148.268  0.00  0.00    +0.000 A 
ATOM     14  C   UNL     1     106.060 125.136 147.533  0.00  0.00    +0.000 A 
ATOM     15  C   UNL     1     106.676 125.385 147.045  0.00  0.00    +0.000 A 
ATOM     16  C   UNL     1     107.458 125.299 147.292  0.00  0.00    +0.000 A 
ATOM     17  C   UNL     1     107.624 124.963 148.028  0.00  0.00    +0.000 A 
BRANCH  12  19
ATOM     18  C   UNL     1     107.945 124.382 149.540  0.00  0.00    +0.000 C 
ATOM     19  O   UNL     1     107.173 124.380 149.251  0.00  0.00    +0.000 OA
ENDBRANCH  12  19
BRANCH  13  20
ATOM     20  O   UNL     1     105.609 124.553 148.756  0.00  0.00    +0.000 OA
ATOM     21  C   UNL     1     104.825 124.664 148.520  0.00  0.00    +0.000 C 
ENDBRANCH  13  20
ENDBRANCH   1  15
BRANCH   8  22
ATOM     22  O   UNL     1     105.638 124.942 142.909  0.00  0.00    +0.000 OA
ATOM     23  C   UNL     1     105.510 124.135 143.023  0.00  0.00    +0.000 C 
ENDBRANCH   8  22
BRANCH   7  24
ATOM     24  O   UNL     1     105.671 126.582 142.725  0.00  0.00    +0.000 OA
ATOM     25  C   UNL     1     106.238 126.559 142.125  0.00  0.00    +0.000 C 
ENDBRANCH   7  24
BRANCH   6  26
ATOM     26  O   UNL     1     106.034 127.549 144.011  0.00  0.00    +0.000 OA
ATOM     27  C   UNL     1     105.368 127.947 143.731  0.00  0.00    +0.000 C 
ENDBRANCH   6  26
BRANCH   2  28
ATOM     28  O   UNL     1     106.709 127.025 146.861  0.00  0.00    +0.000 OA
ATOM     29  C   UNL     1     106.389 127.784 146.909  0.00  0.00    +0.000 C 
ENDBRANCH   2  28
TORSDOF 7
ENDMDL
MODEL 9
REMARK VINA RESULT:      -6.6      2.511      3.506
REMARK  Name = null
REMARK  7 active torsions:
REMARK  status: ('A' for Active; 'I' for Inactive)
REMARK    1  A    between atoms: O_2  and  C_3
REMARK    2  A    between atoms: C_4  and  O_28
REMARK    3  A    between atoms: C_6  and  C_9
REMARK    4  A    between atoms: C_10  and  O_26
REMARK    5  A    between atoms: C_14  and  O_24
REMARK    6  A    between atoms: C_15  and  O_22
REMARK    7  A    between atoms: C_16  and  O_20
REMARK                            x       y       z     vdW  Elec       q    Type
REMARK                         _______ _______ _______ _____ _____    ______ ____
ROOT
ATOM      1  C   UNL     1     110.831 127.034 136.229  0.00  0.00    +0.000 A 
ATOM      2  C   UNL     1     110.667 126.330 135.830  0.00  0.00    +0.000 A 
ATOM      3  C   UNL     1     111.114 125.655 135.986  0.00  0.00    +0.000 A 
ATOM      4  O   UNL     1     110.951 124.951 135.587  0.00  0.00    +0.000 OA
ATOM      5  C   UNL     1     111.725 125.682 136.539  0.00  0.00    +0.000 A 
ATOM      6  C   UNL     1     112.172 125.007 136.695  0.00  0.00    +0.000 A 
ATOM      7  C   UNL     1     112.783 125.035 137.249  0.00  0.00    +0.000 A 
ATOM      8  C   UNL     1     112.946 125.739 137.648  0.00  0.00    +0.000 A 
ATOM      9  C   UNL     1     112.499 126.414 137.493  0.00  0.00    +0.000 A 
ATOM     10  C   UNL     1     111.888 126.387 136.938  0.00  0.00    +0.000 A 
ATOM     11  O   UNL     1     111.441 127.062 136.783  0.00  0.00    +0.000 OA
ENDROOT
BRANCH   1  15
ATOM     12  C   UNL     1     109.487 129.059 135.762  0.00  0.00    +0.000 A 
ATOM     13  C   UNL     1     110.227 128.966 135.410  0.00  0.00    +0.000 A 
ATOM     14  C   UNL     1     110.675 128.291 135.566  0.00  0.00    +0.000 A 
ATOM     15  C   UNL     1     110.383 127.709 136.073  0.00  0.00    +0.000 A 
ATOM     16  C   UNL     1     109.643 127.803 136.425  0.00  0.00    +0.000 A 
ATOM     17  C   UNL     1     109.194 128.479 136.270  0.00  0.00    +0.000 A 
BRANCH  12  19
ATOM     18  C   UNL     1     108.356 129.885 136.044  0.00  0.00    +0.000 C 
ATOM     19  O   UNL     1     109.038 129.734 135.607  0.00  0.00    +0.000 OA
ENDBRANCH  12  19
BRANCH  13  20
ATOM     20  O   UNL     1     110.518 129.546 134.903  0.00  0.00    +0.000 OA
ATOM     21  C   UNL     1     111.311 129.530 134.669  0.00  0.00    +0.000 C 
ENDBRANCH  13  20
ENDBRANCH   1  15
BRANCH   8  22
ATOM     22  O   UNL     1     113.557 125.767 138.202  0.00  0.00    +0.000 OA
ATOM     23  C   UNL     1     113.552 126.343 138.793  0.00  0.00    +0.000 C 
ENDBRANCH   8  22
BRANCH   7  24
ATOM     24  O   UNL     1     113.230 124.360 137.405  0.00  0.00    +0.000 OA
ATOM     25  C   UNL     1     113.997 124.296 137.106  0.00  0.00    +0.000 C 
ENDBRANCH   7  24
BRANCH   6  26
ATOM     26  O   UNL     1     112.009 124.303 136.297  0.00  0.00    +0.000 OA
ATOM     27  C   UNL     1     111.826 123.621 136.722  0.00  0.00    +0.000 C 
ENDBRANCH   6  26
BRANCH   2  28
ATOM     28  O   UNL     1     110.056 126.302 135.276  0.00  0.00    +0.000 OA
ATOM     29  C   UNL     1     110.124 125.817 134.613  0.00  0.00    +0.000 C 
ENDBRANCH   2  28
TORSDOF 7
ENDMDL
MODEL 10
REMARK VINA RESULT:      -6.6      2.368      3.150
REMARK  Name = null
REMARK  7 active torsions:
REMARK  status: ('A' for Active; 'I' for Inactive)
REMARK    1  A    between atoms: O_2  and  C_3
REMARK    2  A    between atoms: C_4  and  O_28
REMARK    3  A    between atoms: C_6  and  C_9
REMARK    4  A    between atoms: C_10  and  O_26
REMARK    5  A    between atoms: C_14  and  O_24
REMARK    6  A    between atoms: C_15  and  O_22
REMARK    7  A    between atoms: C_16  and  O_20
REMARK                            x       y       z     vdW  Elec       q    Type
REMARK                         _______ _______ _______ _____ _____    ______ ____
ROOT
ATOM      1  C   UNL     1     112.997 128.348 139.182  0.00  0.00    +0.000 A 
ATOM      2  C   UNL     1     112.180 128.293 139.291  0.00  0.00    +0.000 A 
ATOM      3  C   UNL     1     111.776 127.617 139.046  0.00  0.00    +0.000 A 
ATOM      4  O   UNL     1     110.960 127.563 139.155  0.00  0.00    +0.000 OA
ATOM      5  C   UNL     1     112.187 126.997 138.691  0.00  0.00    +0.000 A 
ATOM      6  C   UNL     1     111.783 126.321 138.445  0.00  0.00    +0.000 A 
ATOM      7  C   UNL     1     112.193 125.700 138.091  0.00  0.00    +0.000 A 
ATOM      8  C   UNL     1     113.010 125.755 137.981  0.00  0.00    +0.000 A 
ATOM      9  C   UNL     1     113.414 126.431 138.227  0.00  0.00    +0.000 A 
ATOM     10  C   UNL     1     113.003 127.052 138.582  0.00  0.00    +0.000 A 
ATOM     11  O   UNL     1     113.407 127.727 138.828  0.00  0.00    +0.000 OA
ENDROOT
BRANCH   1  15
ATOM     12  C   UNL     1     114.208 130.375 139.922  0.00  0.00    +0.000 A 
ATOM     13  C   UNL     1     113.939 130.317 139.144  0.00  0.00    +0.000 A 
ATOM     14  C   UNL     1     113.535 129.641 138.898  0.00  0.00    +0.000 A 
ATOM     15  C   UNL     1     113.401 129.024 139.428  0.00  0.00    +0.000 A 
ATOM     16  C   UNL     1     113.670 129.083 140.206  0.00  0.00    +0.000 A 
ATOM     17  C   UNL     1     114.075 129.759 140.453  0.00  0.00    +0.000 A 
BRANCH  12  19
ATOM     18  C   UNL     1     114.968 131.070 140.912  0.00  0.00    +0.000 C 
ATOM     19  O   UNL     1     114.612 131.051 140.169  0.00  0.00    +0.000 OA
ENDBRANCH  12  19
BRANCH  13  20
ATOM     20  O   UNL     1     114.073 130.933 138.614  0.00  0.00    +0.000 OA
ATOM     21  C   UNL     1     113.934 130.822 137.807  0.00  0.00    +0.000 C 
ENDBRANCH  13  20
ENDBRANCH   1  15
BRANCH   8  22
ATOM     22  O   UNL     1     113.421 125.134 137.627  0.00  0.00    +0.000 OA
ATOM     23  C   UNL     1     114.246 125.132 137.627  0.00  0.00    +0.000 C 
ENDBRANCH   8  22
BRANCH   7  24
ATOM     24  O   UNL     1     111.789 125.024 137.845  0.00  0.00    +0.000 OA
ATOM     25  C   UNL     1     111.622 124.912 137.045  0.00  0.00    +0.000 C 
ENDBRANCH   7  24
BRANCH   6  26
ATOM     26  O   UNL     1     110.967 126.266 138.554  0.00  0.00    +0.000 OA
ATOM     27  C   UNL     1     110.651 125.652 139.005  0.00  0.00    +0.000 C 
ENDBRANCH   6  26
BRANCH   2  28
ATOM     28  O   UNL     1     111.769 128.914 139.646  0.00  0.00    +0.000 OA
ATOM     29  C   UNL     1     110.975 129.041 139.462  0.00  0.00    +0.000 C 
ENDBRANCH   2  28
TORSDOF 7
ENDMDL
