MODEL 1
REMARK VINA RESULT:      -8.0      0.000      0.000
REMARK  Name = 11196546
REMARK  2 active torsions:
REMARK  status: ('A' for Active; 'I' for Inactive)
REMARK    1  A    between atoms: O_3  and  C_19
REMARK    2  A    between atoms: C_5  and  C_9
REMARK                            x       y       z     vdW  Elec       q    Type
REMARK                         _______ _______ _______ _____ _____    ______ ____
ROOT
ATOM      1  O   UNL     1     105.561 124.434 147.773  0.00  0.00    +0.000 OA
ATOM      2  O   UNL     1     107.894 124.372 149.515  0.00  0.00    +0.000 OA
ATOM      3  C   UNL     1     105.196 124.665 147.070  0.00  0.00    +0.000 C 
ATOM      4  C   UNL     1     105.617 125.102 146.512  0.00  0.00    +0.000 C 
ATOM      5  C   UNL     1     106.403 125.308 146.656  0.00  0.00    +0.000 C 
ATOM      6  C   UNL     1     106.767 125.077 147.360  0.00  0.00    +0.000 A 
ATOM      7  C   UNL     1     106.346 124.640 147.918  0.00  0.00    +0.000 A 
ATOM      8  C   UNL     1     107.586 125.298 147.499  0.00  0.00    +0.000 A 
ATOM      9  C   UNL     1     106.714 124.393 148.655  0.00  0.00    +0.000 A 
ATOM     10  C   UNL     1     107.971 125.061 148.229  0.00  0.00    +0.000 A 
ATOM     11  C   UNL     1     107.532 124.605 148.811  0.00  0.00    +0.000 A 
ENDROOT
BRANCH   3  13
ATOM     12  O   UNL     1     103.276 122.939 145.844  0.00  0.00    +0.000 OA
ATOM     13  C   UNL     1     104.411 124.459 146.926  0.00  0.00    +0.000 A 
ATOM     14  C   UNL     1     104.236 123.802 146.457  0.00  0.00    +0.000 A 
ATOM     15  C   UNL     1     103.799 124.908 147.249  0.00  0.00    +0.000 A 
ATOM     16  C   UNL     1     103.450 123.596 146.312  0.00  0.00    +0.000 A 
ATOM     17  C   UNL     1     103.014 124.702 147.104  0.00  0.00    +0.000 A 
ATOM     18  C   UNL     1     102.840 124.046 146.636  0.00  0.00    +0.000 A 
BRANCH  18  19
ATOM     19  O   UNL     1     102.053 123.840 146.490  0.00  0.00    +0.000 OA
ATOM     20  C   UNL     1     101.443 124.285 146.821  0.00  0.00    +0.000 C 
ENDBRANCH  18  19
ENDBRANCH   3  13
TORSDOF 2
ENDMDL
MODEL 2
REMARK VINA RESULT:      -8.0      9.128     10.167
REMARK  Name = 11196546
REMARK  2 active torsions:
REMARK  status: ('A' for Active; 'I' for Inactive)
REMARK    1  A    between atoms: O_3  and  C_19
REMARK    2  A    between atoms: C_5  and  C_9
REMARK                            x       y       z     vdW  Elec       q    Type
REMARK                         _______ _______ _______ _____ _____    ______ ____
ROOT
ATOM      1  O   UNL     1     102.323 132.131 141.394  0.00  0.00    +0.000 OA
ATOM      2  O   UNL     1     102.129 135.036 141.345  0.00  0.00    +0.000 OA
ATOM      3  C   UNL     1     102.005 131.393 141.583  0.00  0.00    +0.000 C 
ATOM      4  C   UNL     1     101.264 131.344 141.943  0.00  0.00    +0.000 C 
ATOM      5  C   UNL     1     100.841 132.033 142.113  0.00  0.00    +0.000 C 
ATOM      6  C   UNL     1     101.160 132.769 141.923  0.00  0.00    +0.000 A 
ATOM      7  C   UNL     1     101.901 132.819 141.564  0.00  0.00    +0.000 A 
ATOM      8  C   UNL     1     100.710 133.479 142.105  0.00  0.00    +0.000 A 
ATOM      9  C   UNL     1     102.243 133.581 141.361  0.00  0.00    +0.000 A 
ATOM     10  C   UNL     1     101.036 134.249 141.911  0.00  0.00    +0.000 A 
ATOM     11  C   UNL     1     101.808 134.300 141.536  0.00  0.00    +0.000 A 
ENDROOT
BRANCH   3  13
ATOM     12  O   UNL     1     102.641 129.259 139.792  0.00  0.00    +0.000 OA
ATOM     13  C   UNL     1     102.427 130.706 141.413  0.00  0.00    +0.000 A 
ATOM     14  C   UNL     1     102.323 130.327 140.688  0.00  0.00    +0.000 A 
ATOM     15  C   UNL     1     102.953 130.396 141.968  0.00  0.00    +0.000 A 
ATOM     16  C   UNL     1     102.745 129.638 140.518  0.00  0.00    +0.000 A 
ATOM     17  C   UNL     1     103.375 129.709 141.798  0.00  0.00    +0.000 A 
ATOM     18  C   UNL     1     103.271 129.330 141.073  0.00  0.00    +0.000 A 
BRANCH  18  19
ATOM     19  O   UNL     1     103.694 128.641 140.903  0.00  0.00    +0.000 OA
ATOM     20  C   UNL     1     104.240 128.348 141.447  0.00  0.00    +0.000 C 
ENDBRANCH  18  19
ENDBRANCH   3  13
TORSDOF 2
ENDMDL
MODEL 3
REMARK VINA RESULT:      -8.0      7.291      8.271
REMARK  Name = 11196546
REMARK  2 active torsions:
REMARK  status: ('A' for Active; 'I' for Inactive)
REMARK    1  A    between atoms: O_3  and  C_19
REMARK    2  A    between atoms: C_5  and  C_9
REMARK                            x       y       z     vdW  Elec       q    Type
REMARK                         _______ _______ _______ _____ _____    ______ ____
ROOT
ATOM      1  O   UNL     1     104.572 124.632 139.587  0.00  0.00    +0.000 OA
ATOM      2  O   UNL     1     106.017 126.507 141.284  0.00  0.00    +0.000 OA
ATOM      3  C   UNL     1     104.315 123.866 139.421  0.00  0.00    +0.000 C 
ATOM      4  C   UNL     1     104.513 123.246 139.928  0.00  0.00    +0.000 C 
ATOM      5  C   UNL     1     104.967 123.392 140.601  0.00  0.00    +0.000 C 
ATOM      6  C   UNL     1     105.224 124.159 140.767  0.00  0.00    +0.000 A 
ATOM      7  C   UNL     1     105.026 124.779 140.259  0.00  0.00    +0.000 A 
ATOM      8  C   UNL     1     105.697 124.299 141.471  0.00  0.00    +0.000 A 
ATOM      9  C   UNL     1     105.288 125.581 140.421  0.00  0.00    +0.000 A 
ATOM     10  C   UNL     1     105.967 125.093 141.649  0.00  0.00    +0.000 A 
ATOM     11  C   UNL     1     105.762 125.740 141.120  0.00  0.00    +0.000 A 
ENDROOT
BRANCH   3  13
ATOM     12  O   UNL     1     101.765 123.738 138.136  0.00  0.00    +0.000 OA
ATOM     13  C   UNL     1     103.861 123.720 138.748  0.00  0.00    +0.000 A 
ATOM     14  C   UNL     1     103.041 123.802 138.779  0.00  0.00    +0.000 A 
ATOM     15  C   UNL     1     104.226 123.491 138.045  0.00  0.00    +0.000 A 
ATOM     16  C   UNL     1     102.586 123.656 138.106  0.00  0.00    +0.000 A 
ATOM     17  C   UNL     1     103.772 123.344 137.373  0.00  0.00    +0.000 A 
ATOM     18  C   UNL     1     102.952 123.427 137.403  0.00  0.00    +0.000 A 
BRANCH  18  19
ATOM     19  O   UNL     1     102.497 123.280 136.730  0.00  0.00    +0.000 OA
ATOM     20  C   UNL     1     102.860 123.020 136.036  0.00  0.00    +0.000 C 
ENDBRANCH  18  19
ENDBRANCH   3  13
TORSDOF 2
ENDMDL
MODEL 4
REMARK VINA RESULT:      -7.9      8.122      9.832
REMARK  Name = 11196546
REMARK  2 active torsions:
REMARK  status: ('A' for Active; 'I' for Inactive)
REMARK    1  A    between atoms: O_3  and  C_19
REMARK    2  A    between atoms: C_5  and  C_9
REMARK                            x       y       z     vdW  Elec       q    Type
REMARK                         _______ _______ _______ _____ _____    ______ ____
ROOT
ATOM      1  O   UNL     1     104.382 123.538 137.801  0.00  0.00    +0.000 OA
ATOM      2  O   UNL     1     103.945 122.816 135.014  0.00  0.00    +0.000 OA
ATOM      3  C   UNL     1     104.087 123.719 138.551  0.00  0.00    +0.000 C 
ATOM      4  C   UNL     1     103.273 123.725 138.682  0.00  0.00    +0.000 C 
ATOM      5  C   UNL     1     102.753 123.551 138.065  0.00  0.00    +0.000 C 
ATOM      6  C   UNL     1     103.049 123.371 137.316  0.00  0.00    +0.000 A 
ATOM      7  C   UNL     1     103.864 123.364 137.185  0.00  0.00    +0.000 A 
ATOM      8  C   UNL     1     102.498 123.191 136.681  0.00  0.00    +0.000 A 
ATOM      9  C   UNL     1     104.183 123.178 136.409  0.00  0.00    +0.000 A 
ATOM     10  C   UNL     1     102.799 123.003 135.900  0.00  0.00    +0.000 A 
ATOM     11  C   UNL     1     103.648 122.996 135.762  0.00  0.00    +0.000 A 
ENDROOT
BRANCH   3  13
ATOM     12  O   UNL     1     105.928 122.848 140.556  0.00  0.00    +0.000 OA
ATOM     13  C   UNL     1     104.606 123.892 139.167  0.00  0.00    +0.000 A 
ATOM     14  C   UNL     1     105.007 123.283 139.553  0.00  0.00    +0.000 A 
ATOM     15  C   UNL     1     104.725 124.675 139.400  0.00  0.00    +0.000 A 
ATOM     16  C   UNL     1     105.527 123.457 140.171  0.00  0.00    +0.000 A 
ATOM     17  C   UNL     1     105.243 124.849 140.017  0.00  0.00    +0.000 A 
ATOM     18  C   UNL     1     105.644 124.240 140.402  0.00  0.00    +0.000 A 
BRANCH  18  19
ATOM     19  O   UNL     1     106.164 124.414 141.020  0.00  0.00    +0.000 OA
ATOM     20  C   UNL     1     106.276 125.196 141.256  0.00  0.00    +0.000 C 
ENDBRANCH  18  19
ENDBRANCH   3  13
TORSDOF 2
ENDMDL
MODEL 5
REMARK VINA RESULT:      -7.9     11.556     12.443
REMARK  Name = 11196546
REMARK  2 active torsions:
REMARK  status: ('A' for Active; 'I' for Inactive)
REMARK    1  A    between atoms: O_3  and  C_19
REMARK    2  A    between atoms: C_5  and  C_9
REMARK                            x       y       z     vdW  Elec       q    Type
REMARK                         _______ _______ _______ _____ _____    ______ ____
ROOT
ATOM      1  O   UNL     1     111.992 125.769 136.981  0.00  0.00    +0.000 OA
ATOM      2  O   UNL     1     114.731 125.382 137.889  0.00  0.00    +0.000 OA
ATOM      3  C   UNL     1     111.315 125.489 136.601  0.00  0.00    +0.000 C 
ATOM      4  C   UNL     1     111.308 124.728 136.281  0.00  0.00    +0.000 C 
ATOM      5  C   UNL     1     111.976 124.248 136.343  0.00  0.00    +0.000 C 
ATOM      6  C   UNL     1     112.652 124.529 136.723  0.00  0.00    +0.000 A 
ATOM      7  C   UNL     1     112.660 125.290 137.042  0.00  0.00    +0.000 A 
ATOM      8  C   UNL     1     113.342 124.020 136.781  0.00  0.00    +0.000 A 
ATOM      9  C   UNL     1     113.358 125.594 137.441  0.00  0.00    +0.000 A 
ATOM     10  C   UNL     1     114.049 124.306 137.175  0.00  0.00    +0.000 A 
ATOM     11  C   UNL     1     114.057 125.099 137.508  0.00  0.00    +0.000 A 
ENDROOT
BRANCH   3  13
ATOM     12  O   UNL     1     108.984 126.647 137.780  0.00  0.00    +0.000 OA
ATOM     13  C   UNL     1     110.647 125.968 136.539  0.00  0.00    +0.000 A 
ATOM     14  C   UNL     1     110.150 126.067 137.190  0.00  0.00    +0.000 A 
ATOM     15  C   UNL     1     110.476 126.348 135.827  0.00  0.00    +0.000 A 
ATOM     16  C   UNL     1     109.481 126.547 137.129  0.00  0.00    +0.000 A 
ATOM     17  C   UNL     1     109.808 126.828 135.766  0.00  0.00    +0.000 A 
ATOM     18  C   UNL     1     109.310 126.927 136.417  0.00  0.00    +0.000 A 
BRANCH  18  19
ATOM     19  O   UNL     1     108.641 127.407 136.356  0.00  0.00    +0.000 OA
ATOM     20  C   UNL     1     108.591 127.968 135.753  0.00  0.00    +0.000 C 
ENDBRANCH  18  19
ENDBRANCH   3  13
TORSDOF 2
ENDMDL
MODEL 6
REMARK VINA RESULT:      -7.7     12.187     13.174
REMARK  Name = 11196546
REMARK  2 active torsions:
REMARK  status: ('A' for Active; 'I' for Inactive)
REMARK    1  A    between atoms: O_3  and  C_19
REMARK    2  A    between atoms: C_5  and  C_9
REMARK                            x       y       z     vdW  Elec       q    Type
REMARK                         _______ _______ _______ _____ _____    ______ ____
ROOT
ATOM      1  O   UNL     1     110.518 126.845 136.158  0.00  0.00    +0.000 OA
ATOM      2  O   UNL     1     111.909 124.875 137.790  0.00  0.00    +0.000 OA
ATOM      3  C   UNL     1     110.150 127.061 135.452  0.00  0.00    +0.000 C 
ATOM      4  C   UNL     1     110.094 126.518 134.833  0.00  0.00    +0.000 C 
ATOM      5  C   UNL     1     110.407 125.759 134.921  0.00  0.00    +0.000 C 
ATOM      6  C   UNL     1     110.776 125.545 135.627  0.00  0.00    +0.000 A 
ATOM      7  C   UNL     1     110.831 126.088 136.245  0.00  0.00    +0.000 A 
ATOM      8  C   UNL     1     111.098 124.752 135.706  0.00  0.00    +0.000 A 
ATOM      9  C   UNL     1     111.213 125.875 136.986  0.00  0.00    +0.000 A 
ATOM     10  C   UNL     1     111.483 124.521 136.438  0.00  0.00    +0.000 A 
ATOM     11  C   UNL     1     111.541 125.087 137.083  0.00  0.00    +0.000 A 
ENDROOT
BRANCH   3  13
ATOM     12  O   UNL     1     108.057 128.946 135.938  0.00  0.00    +0.000 OA
ATOM     13  C   UNL     1     109.837 127.819 135.364  0.00  0.00    +0.000 A 
ATOM     14  C   UNL     1     109.104 128.003 135.695  0.00  0.00    +0.000 A 
ATOM     15  C   UNL     1     110.256 128.394 134.946  0.00  0.00    +0.000 A 
ATOM     16  C   UNL     1     108.790 128.762 135.607  0.00  0.00    +0.000 A 
ATOM     17  C   UNL     1     109.943 129.151 134.859  0.00  0.00    +0.000 A 
ATOM     18  C   UNL     1     109.210 129.335 135.189  0.00  0.00    +0.000 A 
BRANCH  18  19
ATOM     19  O   UNL     1     108.896 130.094 135.102  0.00  0.00    +0.000 OA
ATOM     20  C   UNL     1     109.341 130.683 134.733  0.00  0.00    +0.000 C 
ENDBRANCH  18  19
ENDBRANCH   3  13
TORSDOF 2
ENDMDL
MODEL 7
REMARK VINA RESULT:      -7.7      1.030      4.396
REMARK  Name = 11196546
REMARK  2 active torsions:
REMARK  status: ('A' for Active; 'I' for Inactive)
REMARK    1  A    between atoms: O_3  and  C_19
REMARK    2  A    between atoms: C_5  and  C_9
REMARK                            x       y       z     vdW  Elec       q    Type
REMARK                         _______ _______ _______ _____ _____    ______ ____
ROOT
ATOM      1  O   UNL     1     104.335 124.177 146.716  0.00  0.00    +0.000 OA
ATOM      2  O   UNL     1     102.034 122.739 145.660  0.00  0.00    +0.000 OA
ATOM      3  C   UNL     1     104.653 124.771 147.193  0.00  0.00    +0.000 C 
ATOM      4  C   UNL     1     104.154 125.258 147.634  0.00  0.00    +0.000 C 
ATOM      5  C   UNL     1     103.336 125.151 147.598  0.00  0.00    +0.000 C 
ATOM      6  C   UNL     1     103.019 124.557 147.121  0.00  0.00    +0.000 A 
ATOM      7  C   UNL     1     103.518 124.071 146.680  0.00  0.00    +0.000 A 
ATOM      8  C   UNL     1     102.165 124.456 147.091  0.00  0.00    +0.000 A 
ATOM      9  C   UNL     1     103.199 123.449 146.179  0.00  0.00    +0.000 A 
ATOM     10  C   UNL     1     101.828 123.841 146.597  0.00  0.00    +0.000 A 
ATOM     11  C   UNL     1     102.349 123.333 146.137  0.00  0.00    +0.000 A 
ENDROOT
BRANCH   3  13
ATOM     12  O   UNL     1     107.099 125.588 145.962  0.00  0.00    +0.000 OA
ATOM     13  C   UNL     1     105.470 124.877 147.230  0.00  0.00    +0.000 A 
ATOM     14  C   UNL     1     105.876 125.179 146.578  0.00  0.00    +0.000 A 
ATOM     15  C   UNL     1     105.882 124.683 147.918  0.00  0.00    +0.000 A 
ATOM     16  C   UNL     1     106.694 125.286 146.614  0.00  0.00    +0.000 A 
ATOM     17  C   UNL     1     106.698 124.789 147.954  0.00  0.00    +0.000 A 
ATOM     18  C   UNL     1     107.104 125.091 147.302  0.00  0.00    +0.000 A 
BRANCH  18  19
ATOM     19  O   UNL     1     107.922 125.198 147.338  0.00  0.00    +0.000 OA
ATOM     20  C   UNL     1     108.337 124.979 148.017  0.00  0.00    +0.000 C 
ENDBRANCH  18  19
ENDBRANCH   3  13
TORSDOF 2
ENDMDL
MODEL 8
REMARK VINA RESULT:      -7.7     12.065     13.227
REMARK  Name = 11196546
REMARK  2 active torsions:
REMARK  status: ('A' for Active; 'I' for Inactive)
REMARK    1  A    between atoms: O_3  and  C_19
REMARK    2  A    between atoms: C_5  and  C_9
REMARK                            x       y       z     vdW  Elec       q    Type
REMARK                         _______ _______ _______ _____ _____    ______ ____
ROOT
ATOM      1  O   UNL     1     110.810 126.150 136.483  0.00  0.00    +0.000 OA
ATOM      2  O   UNL     1     108.740 128.169 136.830  0.00  0.00    +0.000 OA
ATOM      3  C   UNL     1     111.142 125.530 136.052  0.00  0.00    +0.000 C 
ATOM      4  C   UNL     1     110.787 125.278 135.351  0.00  0.00    +0.000 C 
ATOM      5  C   UNL     1     110.099 125.646 135.082  0.00  0.00    +0.000 C 
ATOM      6  C   UNL     1     109.767 126.266 135.513  0.00  0.00    +0.000 A 
ATOM      7  C   UNL     1     110.123 126.518 136.214  0.00  0.00    +0.000 A 
ATOM      8  C   UNL     1     109.051 126.641 135.222  0.00  0.00    +0.000 A 
ATOM      9  C   UNL     1     109.786 127.162 136.672  0.00  0.00    +0.000 A 
ATOM     10  C   UNL     1     108.700 127.287 135.666  0.00  0.00    +0.000 A 
ATOM     11  C   UNL     1     109.070 127.549 136.397  0.00  0.00    +0.000 A 
ENDROOT
BRANCH   3  13
ATOM     12  O   UNL     1     112.456 123.246 137.160  0.00  0.00    +0.000 OA
ATOM     13  C   UNL     1     111.829 125.162 136.321  0.00  0.00    +0.000 A 
ATOM     14  C   UNL     1     111.799 124.388 136.606  0.00  0.00    +0.000 A 
ATOM     15  C   UNL     1     112.548 125.567 136.306  0.00  0.00    +0.000 A 
ATOM     16  C   UNL     1     112.487 124.020 136.875  0.00  0.00    +0.000 A 
ATOM     17  C   UNL     1     113.235 125.199 136.575  0.00  0.00    +0.000 A 
ATOM     18  C   UNL     1     113.204 124.426 136.860  0.00  0.00    +0.000 A 
BRANCH  18  19
ATOM     19  O   UNL     1     113.892 124.057 137.129  0.00  0.00    +0.000 OA
ATOM     20  C   UNL     1     114.561 124.508 137.300  0.00  0.00    +0.000 C 
ENDBRANCH  18  19
ENDBRANCH   3  13
TORSDOF 2
ENDMDL
MODEL 9
REMARK VINA RESULT:      -7.5     10.471     11.040
REMARK  Name = 11196546
REMARK  2 active torsions:
REMARK  status: ('A' for Active; 'I' for Inactive)
REMARK    1  A    between atoms: O_3  and  C_19
REMARK    2  A    between atoms: C_5  and  C_9
REMARK                            x       y       z     vdW  Elec       q    Type
REMARK                         _______ _______ _______ _____ _____    ______ ____
ROOT
ATOM      1  O   UNL     1     111.734 132.821 146.551  0.00  0.00    +0.000 OA
ATOM      2  O   UNL     1     111.031 133.790 149.206  0.00  0.00    +0.000 OA
ATOM      3  C   UNL     1     112.242 132.409 146.049  0.00  0.00    +0.000 C 
ATOM      4  C   UNL     1     112.923 132.055 146.352  0.00  0.00    +0.000 C 
ATOM      5  C   UNL     1     113.096 132.114 147.157  0.00  0.00    +0.000 C 
ATOM      6  C   UNL     1     112.586 132.526 147.658  0.00  0.00    +0.000 A 
ATOM      7  C   UNL     1     111.906 132.880 147.355  0.00  0.00    +0.000 A 
ATOM      8  C   UNL     1     112.776 132.580 148.495  0.00  0.00    +0.000 A 
ATOM      9  C   UNL     1     111.368 133.312 147.868  0.00  0.00    +0.000 A 
ATOM     10  C   UNL     1     112.251 133.008 149.023  0.00  0.00    +0.000 A 
ATOM     11  C   UNL     1     111.542 133.377 148.707  0.00  0.00    +0.000 A 
ENDROOT
BRANCH   3  13
ATOM     12  O   UNL     1     111.938 133.640 143.488  0.00  0.00    +0.000 OA
ATOM     13  C   UNL     1     112.071 132.351 145.245  0.00  0.00    +0.000 A 
ATOM     14  C   UNL     1     112.090 133.024 144.769  0.00  0.00    +0.000 A 
ATOM     15  C   UNL     1     111.879 131.619 144.915  0.00  0.00    +0.000 A 
ATOM     16  C   UNL     1     111.918 132.966 143.963  0.00  0.00    +0.000 A 
ATOM     17  C   UNL     1     111.708 131.560 144.111  0.00  0.00    +0.000 A 
ATOM     18  C   UNL     1     111.727 132.234 143.635  0.00  0.00    +0.000 A 
BRANCH  18  19
ATOM     19  O   UNL     1     111.555 132.176 142.830  0.00  0.00    +0.000 OA
ATOM     20  C   UNL     1     111.436 131.435 142.487  0.00  0.00    +0.000 C 
ENDBRANCH  18  19
ENDBRANCH   3  13
TORSDOF 2
ENDMDL
MODEL 10
REMARK VINA RESULT:      -7.4     13.062     14.205
REMARK  Name = 11196546
REMARK  2 active torsions:
REMARK  status: ('A' for Active; 'I' for Inactive)
REMARK    1  A    between atoms: O_3  and  C_19
REMARK    2  A    between atoms: C_5  and  C_9
REMARK                            x       y       z     vdW  Elec       q    Type
REMARK                         _______ _______ _______ _____ _____    ______ ____
ROOT
ATOM      1  O   UNL     1     112.856 126.331 136.452  0.00  0.00    +0.000 OA
ATOM      2  O   UNL     1     111.470 123.774 136.306  0.00  0.00    +0.000 OA
ATOM      3  C   UNL     1     113.534 126.771 136.619  0.00  0.00    +0.000 C 
ATOM      4  C   UNL     1     114.216 126.392 136.885  0.00  0.00    +0.000 C 
ATOM      5  C   UNL     1     114.222 125.573 136.984  0.00  0.00    +0.000 C 
ATOM      6  C   UNL     1     113.544 125.133 136.816  0.00  0.00    +0.000 A 
ATOM      7  C   UNL     1     112.861 125.512 136.551  0.00  0.00    +0.000 A 
ATOM      8  C   UNL     1     113.562 124.280 136.923  0.00  0.00    +0.000 A 
ATOM      9  C   UNL     1     112.149 125.065 136.373  0.00  0.00    +0.000 A 
ATOM     10  C   UNL     1     112.860 123.816 136.751  0.00  0.00    +0.000 A 
ATOM     11  C   UNL     1     112.149 124.212 136.474  0.00  0.00    +0.000 A 
ENDROOT
BRANCH   3  13
ATOM     12  O   UNL     1     114.146 129.079 135.048  0.00  0.00    +0.000 OA
ATOM     13  C   UNL     1     113.528 127.590 136.521  0.00  0.00    +0.000 A 
ATOM     14  C   UNL     1     113.840 127.924 135.834  0.00  0.00    +0.000 A 
ATOM     15  C   UNL     1     113.212 128.075 137.109  0.00  0.00    +0.000 A 
ATOM     16  C   UNL     1     113.835 128.744 135.735  0.00  0.00    +0.000 A 
ATOM     17  C   UNL     1     113.207 128.893 137.010  0.00  0.00    +0.000 A 
ATOM     18  C   UNL     1     113.518 129.228 136.323  0.00  0.00    +0.000 A 
BRANCH  18  19
ATOM     19  O   UNL     1     113.513 130.048 136.224  0.00  0.00    +0.000 OA
ATOM     20  C   UNL     1     113.221 130.533 136.824  0.00  0.00    +0.000 C 
ENDBRANCH  18  19
ENDBRANCH   3  13
TORSDOF 2
ENDMDL
