MODEL 1
REMARK VINA RESULT:     -10.3      0.000      0.000
REMARK  Name = 
REMARK  6 active torsions:
REMARK  status: ('A' for Active; 'I' for Inactive)
REMARK    1  A    between atoms: C_6  and  O_8
REMARK    2  A    between atoms: O_8  and  C_9
REMARK    3  A    between atoms: C_9  and  C_10
REMARK    4  A    between atoms: C_14  and  O_16
REMARK    5  A    between atoms: O_16  and  C_17
REMARK    6  A    between atoms: C_27  and  C_28
REMARK                            x       y       z     vdW  Elec       q    Type
REMARK                         _______ _______ _______ _____ _____    ______ ____
ROOT
ATOM      1  C   UNL     1     113.210 129.199 138.239  0.00  0.00    +0.000 C 
ATOM      2  C   UNL     1     113.696 130.036 137.983  0.00  0.00    +0.000 C 
ATOM      3  C   UNL     1     113.819 130.269 137.016  0.00  0.00    +0.000 C 
ATOM      4  C   UNL     1     113.458 129.668 136.312  0.00  0.00    +0.000 C 
ATOM      5  C   UNL     1     112.972 128.831 136.566  0.00  0.00    +0.000 C 
ATOM      6  O   UNL     1     112.849 128.598 137.533  0.00  0.00    +0.000 OA
ATOM      7  O   UNL     1     113.581 129.902 135.345  0.00  0.00    +0.000 OA
ATOM      8  O   UNL     1     114.304 131.106 136.762  0.00  0.00    +0.000 OA
ATOM      9  O   UNL     1     114.058 130.640 138.693  0.00  0.00    +0.000 OA
ENDROOT
BRANCH   1  10
ATOM     10  C   UNL     1     113.092 128.974 139.195  0.00  0.00    +0.000 C 
BRANCH  10  11
ATOM     11  O   UNL     1     112.818 128.049 139.467  0.00  0.00    +0.000 OA
BRANCH  11  17
ATOM     12  C   UNL     1     110.920 129.364 142.055  0.00  0.00    +0.000 C 
ATOM     13  C   UNL     1     111.223 128.578 141.515  0.00  0.00    +0.000 C 
ATOM     14  C   UNL     1     110.882 127.662 141.729  0.00  0.00    +0.000 C 
ATOM     15  C   UNL     1     111.185 126.875 141.190  0.00  0.00    +0.000 C 
ATOM     16  C   UNL     1     111.831 127.005 140.435  0.00  0.00    +0.000 C 
ATOM     17  C   UNL     1     112.173 127.920 140.221  0.00  0.00    +0.000 C 
ATOM     18  O   UNL     1     111.869 128.707 140.761  0.00  0.00    +0.000 OA
ATOM     19  O   UNL     1     112.135 126.218 139.895  0.00  0.00    +0.000 OA
ATOM     20  O   UNL     1     110.843 125.960 141.404  0.00  0.00    +0.000 OA
ATOM     21  O   UNL     1     110.235 127.532 142.484  0.00  0.00    +0.000 OA
ENDBRANCH  11  17
ENDBRANCH  10  11
ENDBRANCH   1  10
BRANCH   5  22
ATOM     22  O   UNL     1     112.609 128.228 135.856  0.00  0.00    +0.000 OA
BRANCH  22  23
ATOM     23  C   UNL     1     112.351 127.287 136.084  0.00  0.00    +0.000 A 
ATOM     24  C   UNL     1     113.055 126.619 136.277  0.00  0.00    +0.000 A 
ATOM     25  O   UNL     1     114.021 126.878 136.247  0.00  0.00    +0.000 OA
ATOM     26  C   UNL     1     112.796 125.678 136.504  0.00  0.00    +0.000 A 
ATOM     27  C   UNL     1     113.503 124.998 136.701  0.00  0.00    +0.000 A 
ATOM     28  C   UNL     1     113.244 124.058 136.928  0.00  0.00    +0.000 A 
ATOM     29  C   UNL     1     112.278 123.798 136.958  0.00  0.00    +0.000 A 
ATOM     30  C   UNL     1     111.571 124.479 136.761  0.00  0.00    +0.000 A 
ATOM     31  C   UNL     1     111.830 125.420 136.534  0.00  0.00    +0.000 A 
ATOM     32  O   UNL     1     111.123 126.100 136.338  0.00  0.00    +0.000 OA
ATOM     33  C   UNL     1     111.385 127.027 136.114  0.00  0.00    +0.000 A 
ATOM     34  O   UNL     1     112.019 122.858 137.185  0.00  0.00    +0.000 OA
ATOM     35  O   UNL     1     114.469 125.257 136.671  0.00  0.00    +0.000 OA
BRANCH  33  36
ATOM     36  C   UNL     1     110.677 127.709 135.917  0.00  0.00    +0.000 A 
ATOM     37  C   UNL     1     110.120 128.079 136.661  0.00  0.00    +0.000 A 
ATOM     38  C   UNL     1     109.413 128.760 136.465  0.00  0.00    +0.000 A 
ATOM     39  C   UNL     1     109.263 129.071 135.525  0.00  0.00    +0.000 A 
ATOM     40  C   UNL     1     109.821 128.701 134.781  0.00  0.00    +0.000 A 
ATOM     41  C   UNL     1     110.528 128.020 134.977  0.00  0.00    +0.000 A 
ATOM     42  O   UNL     1     108.557 129.752 135.330  0.00  0.00    +0.000 OA
ENDBRANCH  33  36
ENDBRANCH  22  23
ENDBRANCH   5  22
TORSDOF 6
ENDMDL
MODEL 2
REMARK VINA RESULT:     -10.2      1.608      3.223
REMARK  Name = 
REMARK  6 active torsions:
REMARK  status: ('A' for Active; 'I' for Inactive)
REMARK    1  A    between atoms: C_6  and  O_8
REMARK    2  A    between atoms: O_8  and  C_9
REMARK    3  A    between atoms: C_9  and  C_10
REMARK    4  A    between atoms: C_14  and  O_16
REMARK    5  A    between atoms: O_16  and  C_17
REMARK    6  A    between atoms: C_27  and  C_28
REMARK                            x       y       z     vdW  Elec       q    Type
REMARK                         _______ _______ _______ _____ _____    ______ ____
ROOT
ATOM      1  C   UNL     1     109.879 129.053 137.482  0.00  0.00    +0.000 C 
ATOM      2  C   UNL     1     109.277 129.737 137.066  0.00  0.00    +0.000 C 
ATOM      3  C   UNL     1     109.405 130.000 136.108  0.00  0.00    +0.000 C 
ATOM      4  C   UNL     1     110.129 129.582 135.570  0.00  0.00    +0.000 C 
ATOM      5  C   UNL     1     110.730 128.899 135.985  0.00  0.00    +0.000 C 
ATOM      6  O   UNL     1     110.603 128.635 136.944  0.00  0.00    +0.000 OA
ATOM      7  O   UNL     1     110.256 129.846 134.612  0.00  0.00    +0.000 OA
ATOM      8  O   UNL     1     108.803 130.684 135.693  0.00  0.00    +0.000 OA
ATOM      9  O   UNL     1     108.549 130.157 137.607  0.00  0.00    +0.000 OA
ENDROOT
BRANCH   1  10
ATOM     10  C   UNL     1     109.748 128.797 138.428  0.00  0.00    +0.000 C 
BRANCH  10  11
ATOM     11  O   UNL     1     110.021 127.888 138.749  0.00  0.00    +0.000 OA
BRANCH  11  17
ATOM     12  C   UNL     1     108.195 128.354 141.661  0.00  0.00    +0.000 C 
ATOM     13  C   UNL     1     108.743 127.764 141.066  0.00  0.00    +0.000 C 
ATOM     14  C   UNL     1     108.928 126.817 141.333  0.00  0.00    +0.000 C 
ATOM     15  C   UNL     1     109.476 126.227 140.739  0.00  0.00    +0.000 C 
ATOM     16  C   UNL     1     109.841 126.585 139.876  0.00  0.00    +0.000 C 
ATOM     17  C   UNL     1     109.657 127.531 139.610  0.00  0.00    +0.000 C 
ATOM     18  O   UNL     1     109.108 128.122 140.205  0.00  0.00    +0.000 OA
ATOM     19  O   UNL     1     110.390 125.995 139.282  0.00  0.00    +0.000 OA
ATOM     20  O   UNL     1     109.660 125.281 141.005  0.00  0.00    +0.000 OA
ATOM     21  O   UNL     1     108.563 126.460 142.195  0.00  0.00    +0.000 OA
ENDBRANCH  11  17
ENDBRANCH  10  11
ENDBRANCH   1  10
BRANCH   5  22
ATOM     22  O   UNL     1     111.458 128.478 135.444  0.00  0.00    +0.000 OA
BRANCH  22  23
ATOM     23  C   UNL     1     111.918 127.654 135.778  0.00  0.00    +0.000 A 
ATOM     24  C   UNL     1     111.435 126.790 135.779  0.00  0.00    +0.000 A 
ATOM     25  O   UNL     1     110.492 126.738 135.448  0.00  0.00    +0.000 OA
ATOM     26  C   UNL     1     111.895 125.965 136.113  0.00  0.00    +0.000 A 
ATOM     27  C   UNL     1     111.412 125.089 136.116  0.00  0.00    +0.000 A 
ATOM     28  C   UNL     1     111.872 124.265 136.450  0.00  0.00    +0.000 A 
ATOM     29  C   UNL     1     112.815 124.317 136.781  0.00  0.00    +0.000 A 
ATOM     30  C   UNL     1     113.297 125.194 136.777  0.00  0.00    +0.000 A 
ATOM     31  C   UNL     1     112.838 126.019 136.443  0.00  0.00    +0.000 A 
ATOM     32  O   UNL     1     113.321 126.895 136.440  0.00  0.00    +0.000 OA
ATOM     33  C   UNL     1     112.861 127.706 136.109  0.00  0.00    +0.000 A 
ATOM     34  O   UNL     1     113.275 123.493 137.115  0.00  0.00    +0.000 OA
ATOM     35  O   UNL     1     110.469 125.036 135.785  0.00  0.00    +0.000 OA
BRANCH  33  36
ATOM     36  C   UNL     1     113.344 128.584 136.106  0.00  0.00    +0.000 A 
ATOM     37  C   UNL     1     113.713 128.947 135.249  0.00  0.00    +0.000 A 
ATOM     38  C   UNL     1     114.196 129.824 135.245  0.00  0.00    +0.000 A 
ATOM     39  C   UNL     1     114.310 130.338 136.097  0.00  0.00    +0.000 A 
ATOM     40  C   UNL     1     113.941 129.974 136.953  0.00  0.00    +0.000 A 
ATOM     41  C   UNL     1     113.458 129.098 136.958  0.00  0.00    +0.000 A 
ATOM     42  O   UNL     1     114.792 131.215 136.092  0.00  0.00    +0.000 OA
ENDBRANCH  33  36
ENDBRANCH  22  23
ENDBRANCH   5  22
TORSDOF 6
ENDMDL
MODEL 3
REMARK VINA RESULT:     -10.0      1.231      3.011
REMARK  Name = 
REMARK  6 active torsions:
REMARK  status: ('A' for Active; 'I' for Inactive)
REMARK    1  A    between atoms: C_6  and  O_8
REMARK    2  A    between atoms: O_8  and  C_9
REMARK    3  A    between atoms: C_9  and  C_10
REMARK    4  A    between atoms: C_14  and  O_16
REMARK    5  A    between atoms: O_16  and  C_17
REMARK    6  A    between atoms: C_27  and  C_28
REMARK                            x       y       z     vdW  Elec       q    Type
REMARK                         _______ _______ _______ _____ _____    ______ ____
ROOT
ATOM      1  C   UNL     1     109.903 129.045 137.500  0.00  0.00    +0.000 C 
ATOM      2  C   UNL     1     109.289 129.718 137.083  0.00  0.00    +0.000 C 
ATOM      3  C   UNL     1     109.409 129.978 136.123  0.00  0.00    +0.000 C 
ATOM      4  C   UNL     1     110.137 129.569 135.585  0.00  0.00    +0.000 C 
ATOM      5  C   UNL     1     110.751 128.897 136.002  0.00  0.00    +0.000 C 
ATOM      6  O   UNL     1     110.631 128.636 136.962  0.00  0.00    +0.000 OA
ATOM      7  O   UNL     1     110.257 129.829 134.625  0.00  0.00    +0.000 OA
ATOM      8  O   UNL     1     108.795 130.650 135.707  0.00  0.00    +0.000 OA
ATOM      9  O   UNL     1     108.556 130.129 137.625  0.00  0.00    +0.000 OA
ENDROOT
BRANCH   1  10
ATOM     10  C   UNL     1     109.780 128.792 138.449  0.00  0.00    +0.000 C 
BRANCH  10  11
ATOM     11  O   UNL     1     110.171 127.940 138.799  0.00  0.00    +0.000 OA
BRANCH  11  17
ATOM     12  C   UNL     1     110.248 129.282 141.997  0.00  0.00    +0.000 C 
ATOM     13  C   UNL     1     110.463 128.537 141.364  0.00  0.00    +0.000 C 
ATOM     14  C   UNL     1     110.933 127.717 141.696  0.00  0.00    +0.000 C 
ATOM     15  C   UNL     1     111.148 126.972 141.063  0.00  0.00    +0.000 C 
ATOM     16  C   UNL     1     110.894 127.047 140.097  0.00  0.00    +0.000 C 
ATOM     17  C   UNL     1     110.425 127.865 139.765  0.00  0.00    +0.000 C 
ATOM     18  O   UNL     1     110.209 128.611 140.399  0.00  0.00    +0.000 OA
ATOM     19  O   UNL     1     111.109 126.302 139.463  0.00  0.00    +0.000 OA
ATOM     20  O   UNL     1     111.617 126.154 141.395  0.00  0.00    +0.000 OA
ATOM     21  O   UNL     1     111.187 127.643 142.662  0.00  0.00    +0.000 OA
ENDBRANCH  11  17
ENDBRANCH  10  11
ENDBRANCH   1  10
BRANCH   5  22
ATOM     22  O   UNL     1     111.484 128.485 135.460  0.00  0.00    +0.000 OA
BRANCH  22  23
ATOM     23  C   UNL     1     111.961 127.673 135.798  0.00  0.00    +0.000 A 
ATOM     24  C   UNL     1     111.496 126.799 135.806  0.00  0.00    +0.000 A 
ATOM     25  O   UNL     1     110.554 126.725 135.477  0.00  0.00    +0.000 OA
ATOM     26  C   UNL     1     111.974 125.986 136.145  0.00  0.00    +0.000 A 
ATOM     27  C   UNL     1     111.509 125.100 136.154  0.00  0.00    +0.000 A 
ATOM     28  C   UNL     1     111.986 124.289 136.493  0.00  0.00    +0.000 A 
ATOM     29  C   UNL     1     112.929 124.363 136.822  0.00  0.00    +0.000 A 
ATOM     30  C   UNL     1     113.393 125.249 136.812  0.00  0.00    +0.000 A 
ATOM     31  C   UNL     1     112.916 126.062 136.473  0.00  0.00    +0.000 A 
ATOM     32  O   UNL     1     113.381 126.948 136.464  0.00  0.00    +0.000 OA
ATOM     33  C   UNL     1     112.904 127.747 136.128  0.00  0.00    +0.000 A 
ATOM     34  O   UNL     1     113.406 123.550 137.161  0.00  0.00    +0.000 OA
ATOM     35  O   UNL     1     110.567 125.026 135.826  0.00  0.00    +0.000 OA
BRANCH  33  36
ATOM     36  C   UNL     1     113.368 128.635 136.117  0.00  0.00    +0.000 A 
ATOM     37  C   UNL     1     113.467 129.156 136.966  0.00  0.00    +0.000 A 
ATOM     38  C   UNL     1     113.931 130.043 136.957  0.00  0.00    +0.000 A 
ATOM     39  C   UNL     1     114.296 130.408 136.099  0.00  0.00    +0.000 A 
ATOM     40  C   UNL     1     114.198 129.887 135.251  0.00  0.00    +0.000 A 
ATOM     41  C   UNL     1     113.734 129.000 135.260  0.00  0.00    +0.000 A 
ATOM     42  O   UNL     1     114.760 131.295 136.090  0.00  0.00    +0.000 OA
ENDBRANCH  33  36
ENDBRANCH  22  23
ENDBRANCH   5  22
TORSDOF 6
ENDMDL
MODEL 4
REMARK VINA RESULT:     -10.0      1.585      5.277
REMARK  Name = 
REMARK  6 active torsions:
REMARK  status: ('A' for Active; 'I' for Inactive)
REMARK    1  A    between atoms: C_6  and  O_8
REMARK    2  A    between atoms: O_8  and  C_9
REMARK    3  A    between atoms: C_9  and  C_10
REMARK    4  A    between atoms: C_14  and  O_16
REMARK    5  A    between atoms: O_16  and  C_17
REMARK    6  A    between atoms: C_27  and  C_28
REMARK                            x       y       z     vdW  Elec       q    Type
REMARK                         _______ _______ _______ _____ _____    ______ ____
ROOT
ATOM      1  C   UNL     1     110.191 128.115 138.741  0.00  0.00    +0.000 C 
ATOM      2  C   UNL     1     109.873 127.671 139.581  0.00  0.00    +0.000 C 
ATOM      3  C   UNL     1     110.460 127.008 140.051  0.00  0.00    +0.000 C 
ATOM      4  C   UNL     1     111.358 126.792 139.682  0.00  0.00    +0.000 C 
ATOM      5  C   UNL     1     111.675 127.235 138.843  0.00  0.00    +0.000 C 
ATOM      6  O   UNL     1     111.088 127.898 138.373  0.00  0.00    +0.000 OA
ATOM      7  O   UNL     1     111.945 126.130 140.152  0.00  0.00    +0.000 OA
ATOM      8  O   UNL     1     110.143 126.565 140.890  0.00  0.00    +0.000 OA
ATOM      9  O   UNL     1     108.970 127.889 139.951  0.00  0.00    +0.000 OA
ENDROOT
BRANCH   1  10
ATOM     10  C   UNL     1     109.607 128.768 138.282  0.00  0.00    +0.000 C 
BRANCH  10  11
ATOM     11  O   UNL     1     109.627 128.850 137.284  0.00  0.00    +0.000 OA
BRANCH  11  17
ATOM     12  C   UNL     1     110.712 132.121 136.883  0.00  0.00    +0.000 C 
ATOM     13  C   UNL     1     110.073 131.384 136.654  0.00  0.00    +0.000 C 
ATOM     14  C   UNL     1     109.338 131.547 135.994  0.00  0.00    +0.000 C 
ATOM     15  C   UNL     1     108.699 130.811 135.764  0.00  0.00    +0.000 C 
ATOM     16  C   UNL     1     108.796 129.912 136.195  0.00  0.00    +0.000 C 
ATOM     17  C   UNL     1     109.530 129.749 136.854  0.00  0.00    +0.000 C 
ATOM     18  O   UNL     1     110.170 130.486 137.084  0.00  0.00    +0.000 OA
ATOM     19  O   UNL     1     108.157 129.175 135.966  0.00  0.00    +0.000 OA
ATOM     20  O   UNL     1     107.965 130.974 135.106  0.00  0.00    +0.000 OA
ATOM     21  O   UNL     1     109.241 132.446 135.564  0.00  0.00    +0.000 OA
ENDBRANCH  11  17
ENDBRANCH  10  11
ENDBRANCH   1  10
BRANCH   5  22
ATOM     22  O   UNL     1     112.578 127.017 138.473  0.00  0.00    +0.000 OA
BRANCH  22  23
ATOM     23  C   UNL     1     112.929 127.519 137.681  0.00  0.00    +0.000 A 
ATOM     24  C   UNL     1     113.191 128.469 137.780  0.00  0.00    +0.000 A 
ATOM     25  O   UNL     1     113.106 128.927 138.665  0.00  0.00    +0.000 OA
ATOM     26  C   UNL     1     113.542 128.972 136.988  0.00  0.00    +0.000 A 
ATOM     27  C   UNL     1     113.808 129.932 137.082  0.00  0.00    +0.000 A 
ATOM     28  C   UNL     1     114.158 130.433 136.290  0.00  0.00    +0.000 A 
ATOM     29  C   UNL     1     114.244 129.975 135.404  0.00  0.00    +0.000 A 
ATOM     30  C   UNL     1     113.978 129.015 135.311  0.00  0.00    +0.000 A 
ATOM     31  C   UNL     1     113.627 128.512 136.103  0.00  0.00    +0.000 A 
ATOM     32  O   UNL     1     113.361 127.552 136.009  0.00  0.00    +0.000 OA
ATOM     33  C   UNL     1     113.015 127.061 136.795  0.00  0.00    +0.000 A 
ATOM     34  O   UNL     1     114.595 130.478 134.612  0.00  0.00    +0.000 OA
ATOM     35  O   UNL     1     113.723 130.390 137.966  0.00  0.00    +0.000 OA
BRANCH  33  36
ATOM     36  C   UNL     1     112.748 126.100 136.702  0.00  0.00    +0.000 A 
ATOM     37  C   UNL     1     113.367 125.378 137.016  0.00  0.00    +0.000 A 
ATOM     38  C   UNL     1     113.102 124.417 136.923  0.00  0.00    +0.000 A 
ATOM     39  C   UNL     1     112.218 124.178 136.518  0.00  0.00    +0.000 A 
ATOM     40  C   UNL     1     111.600 124.900 136.204  0.00  0.00    +0.000 A 
ATOM     41  C   UNL     1     111.865 125.861 136.297  0.00  0.00    +0.000 A 
ATOM     42  O   UNL     1     111.953 123.217 136.425  0.00  0.00    +0.000 OA
ENDBRANCH  33  36
ENDBRANCH  22  23
ENDBRANCH   5  22
TORSDOF 6
ENDMDL
MODEL 5
REMARK VINA RESULT:      -9.9      1.416      4.140
REMARK  Name = 
REMARK  6 active torsions:
REMARK  status: ('A' for Active; 'I' for Inactive)
REMARK    1  A    between atoms: C_6  and  O_8
REMARK    2  A    between atoms: O_8  and  C_9
REMARK    3  A    between atoms: C_9  and  C_10
REMARK    4  A    between atoms: C_14  and  O_16
REMARK    5  A    between atoms: O_16  and  C_17
REMARK    6  A    between atoms: C_27  and  C_28
REMARK                            x       y       z     vdW  Elec       q    Type
REMARK                         _______ _______ _______ _____ _____    ______ ____
ROOT
ATOM      1  C   UNL     1     112.481 129.663 137.987  0.00  0.00    +0.000 C 
ATOM      2  C   UNL     1     113.079 130.365 138.376  0.00  0.00    +0.000 C 
ATOM      3  C   UNL     1     113.646 130.155 139.175  0.00  0.00    +0.000 C 
ATOM      4  C   UNL     1     113.614 129.249 139.581  0.00  0.00    +0.000 C 
ATOM      5  C   UNL     1     113.016 128.546 139.193  0.00  0.00    +0.000 C 
ATOM      6  O   UNL     1     112.450 128.756 138.394  0.00  0.00    +0.000 OA
ATOM      7  O   UNL     1     114.181 129.038 140.380  0.00  0.00    +0.000 OA
ATOM      8  O   UNL     1     114.244 130.858 139.563  0.00  0.00    +0.000 OA
ATOM      9  O   UNL     1     113.111 131.277 137.967  0.00  0.00    +0.000 OA
ENDROOT
BRANCH   1  10
ATOM     10  C   UNL     1     111.924 129.876 137.198  0.00  0.00    +0.000 C 
BRANCH  10  11
ATOM     11  O   UNL     1     111.285 129.198 136.832  0.00  0.00    +0.000 OA
BRANCH  11  17
ATOM     12  C   UNL     1     108.956 131.695 136.220  0.00  0.00    +0.000 C 
ATOM     13  C   UNL     1     109.198 130.724 136.252  0.00  0.00    +0.000 C 
ATOM     14  C   UNL     1     108.519 130.030 136.011  0.00  0.00    +0.000 C 
ATOM     15  C   UNL     1     108.760 129.060 136.043  0.00  0.00    +0.000 C 
ATOM     16  C   UNL     1     109.683 128.782 136.317  0.00  0.00    +0.000 C 
ATOM     17  C   UNL     1     110.363 129.475 136.558  0.00  0.00    +0.000 C 
ATOM     18  O   UNL     1     110.121 130.447 136.526  0.00  0.00    +0.000 OA
ATOM     19  O   UNL     1     109.926 127.811 136.349  0.00  0.00    +0.000 OA
ATOM     20  O   UNL     1     108.081 128.367 135.801  0.00  0.00    +0.000 OA
ATOM     21  O   UNL     1     107.596 130.308 135.737  0.00  0.00    +0.000 OA
ENDBRANCH  11  17
ENDBRANCH  10  11
ENDBRANCH   1  10
BRANCH   5  22
ATOM     22  O   UNL     1     112.985 127.634 139.602  0.00  0.00    +0.000 OA
BRANCH  22  23
ATOM     23  C   UNL     1     112.624 126.862 139.077  0.00  0.00    +0.000 A 
ATOM     24  C   UNL     1     113.153 126.490 138.326  0.00  0.00    +0.000 A 
ATOM     25  O   UNL     1     114.043 126.883 138.093  0.00  0.00    +0.000 OA
ATOM     26  C   UNL     1     112.792 125.718 137.801  0.00  0.00    +0.000 A 
ATOM     27  C   UNL     1     113.322 125.338 137.041  0.00  0.00    +0.000 A 
ATOM     28  C   UNL     1     112.961 124.566 136.516  0.00  0.00    +0.000 A 
ATOM     29  C   UNL     1     112.071 124.174 136.750  0.00  0.00    +0.000 A 
ATOM     30  C   UNL     1     111.542 124.554 137.510  0.00  0.00    +0.000 A 
ATOM     31  C   UNL     1     111.902 125.326 138.035  0.00  0.00    +0.000 A 
ATOM     32  O   UNL     1     111.372 125.706 138.795  0.00  0.00    +0.000 OA
ATOM     33  C   UNL     1     111.734 126.469 139.311  0.00  0.00    +0.000 A 
ATOM     34  O   UNL     1     111.711 123.402 136.224  0.00  0.00    +0.000 OA
ATOM     35  O   UNL     1     114.212 125.730 136.807  0.00  0.00    +0.000 OA
BRANCH  33  36
ATOM     36  C   UNL     1     111.204 126.850 140.071  0.00  0.00    +0.000 A 
ATOM     37  C   UNL     1     110.371 127.373 139.887  0.00  0.00    +0.000 A 
ATOM     38  C   UNL     1     109.841 127.754 140.646  0.00  0.00    +0.000 A 
ATOM     39  C   UNL     1     110.144 127.611 141.589  0.00  0.00    +0.000 A 
ATOM     40  C   UNL     1     110.978 127.088 141.774  0.00  0.00    +0.000 A 
ATOM     41  C   UNL     1     111.507 126.707 141.015  0.00  0.00    +0.000 A 
ATOM     42  O   UNL     1     109.615 127.992 142.348  0.00  0.00    +0.000 OA
ENDBRANCH  33  36
ENDBRANCH  22  23
ENDBRANCH   5  22
TORSDOF 6
ENDMDL
MODEL 6
REMARK VINA RESULT:      -9.8      1.182      1.397
REMARK  Name = 
REMARK  6 active torsions:
REMARK  status: ('A' for Active; 'I' for Inactive)
REMARK    1  A    between atoms: C_6  and  O_8
REMARK    2  A    between atoms: O_8  and  C_9
REMARK    3  A    between atoms: C_9  and  C_10
REMARK    4  A    between atoms: C_14  and  O_16
REMARK    5  A    between atoms: O_16  and  C_17
REMARK    6  A    between atoms: C_27  and  C_28
REMARK                            x       y       z     vdW  Elec       q    Type
REMARK                         _______ _______ _______ _____ _____    ______ ____
ROOT
ATOM      1  C   UNL     1     111.943 129.075 139.112  0.00  0.00    +0.000 C 
ATOM      2  C   UNL     1     112.484 129.903 139.265  0.00  0.00    +0.000 C 
ATOM      3  C   UNL     1     113.011 130.303 138.512  0.00  0.00    +0.000 C 
ATOM      4  C   UNL     1     112.996 129.878 137.614  0.00  0.00    +0.000 C 
ATOM      5  C   UNL     1     112.455 129.050 137.461  0.00  0.00    +0.000 C 
ATOM      6  O   UNL     1     111.928 128.650 138.213  0.00  0.00    +0.000 OA
ATOM      7  O   UNL     1     113.523 130.278 136.862  0.00  0.00    +0.000 OA
ATOM      8  O   UNL     1     113.553 131.131 138.666  0.00  0.00    +0.000 OA
ATOM      9  O   UNL     1     112.499 130.330 140.168  0.00  0.00    +0.000 OA
ENDROOT
BRANCH   1  10
ATOM     10  C   UNL     1     111.424 128.684 139.858  0.00  0.00    +0.000 C 
BRANCH  10  11
ATOM     11  O   UNL     1     111.210 127.706 139.868  0.00  0.00    +0.000 OA
BRANCH  11  17
ATOM     12  C   UNL     1     108.624 128.294 142.105  0.00  0.00    +0.000 C 
ATOM     13  C   UNL     1     109.164 127.659 141.550  0.00  0.00    +0.000 C 
ATOM     14  C   UNL     1     108.951 126.681 141.560  0.00  0.00    +0.000 C 
ATOM     15  C   UNL     1     109.490 126.045 141.007  0.00  0.00    +0.000 C 
ATOM     16  C   UNL     1     110.244 126.387 140.442  0.00  0.00    +0.000 C 
ATOM     17  C   UNL     1     110.457 127.364 140.432  0.00  0.00    +0.000 C 
ATOM     18  O   UNL     1     109.917 128.001 140.986  0.00  0.00    +0.000 OA
ATOM     19  O   UNL     1     110.784 125.751 139.888  0.00  0.00    +0.000 OA
ATOM     20  O   UNL     1     109.277 125.068 141.017  0.00  0.00    +0.000 OA
ATOM     21  O   UNL     1     108.197 126.338 142.125  0.00  0.00    +0.000 OA
ENDBRANCH  11  17
ENDBRANCH  10  11
ENDBRANCH   1  10
BRANCH   5  22
ATOM     22  O   UNL     1     112.440 128.622 136.557  0.00  0.00    +0.000 OA
BRANCH  22  23
ATOM     23  C   UNL     1     112.166 127.664 136.461  0.00  0.00    +0.000 A 
ATOM     24  C   UNL     1     112.774 126.947 136.772  0.00  0.00    +0.000 A 
ATOM     25  O   UNL     1     113.658 127.176 137.180  0.00  0.00    +0.000 OA
ATOM     26  C   UNL     1     112.499 125.989 136.676  0.00  0.00    +0.000 A 
ATOM     27  C   UNL     1     113.110 125.260 136.988  0.00  0.00    +0.000 A 
ATOM     28  C   UNL     1     112.836 124.302 136.892  0.00  0.00    +0.000 A 
ATOM     29  C   UNL     1     111.951 124.073 136.484  0.00  0.00    +0.000 A 
ATOM     30  C   UNL     1     111.341 124.803 136.173  0.00  0.00    +0.000 A 
ATOM     31  C   UNL     1     111.615 125.761 136.268  0.00  0.00    +0.000 A 
ATOM     32  O   UNL     1     111.004 126.490 135.956  0.00  0.00    +0.000 OA
ATOM     33  C   UNL     1     111.281 127.435 136.054  0.00  0.00    +0.000 A 
ATOM     34  O   UNL     1     111.677 123.114 136.389  0.00  0.00    +0.000 OA
ATOM     35  O   UNL     1     113.994 125.488 137.396  0.00  0.00    +0.000 OA
BRANCH  33  36
ATOM     36  C   UNL     1     110.670 128.165 135.741  0.00  0.00    +0.000 A 
ATOM     37  C   UNL     1     109.830 128.365 136.248  0.00  0.00    +0.000 A 
ATOM     38  C   UNL     1     109.220 129.094 135.937  0.00  0.00    +0.000 A 
ATOM     39  C   UNL     1     109.449 129.625 135.119  0.00  0.00    +0.000 A 
ATOM     40  C   UNL     1     110.288 129.425 134.612  0.00  0.00    +0.000 A 
ATOM     41  C   UNL     1     110.899 128.696 134.923  0.00  0.00    +0.000 A 
ATOM     42  O   UNL     1     108.838 130.354 134.808  0.00  0.00    +0.000 OA
ENDBRANCH  33  36
ENDBRANCH  22  23
ENDBRANCH   5  22
TORSDOF 6
ENDMDL
MODEL 7
REMARK VINA RESULT:      -9.7      1.708      4.666
REMARK  Name = 
REMARK  6 active torsions:
REMARK  status: ('A' for Active; 'I' for Inactive)
REMARK    1  A    between atoms: C_6  and  O_8
REMARK    2  A    between atoms: O_8  and  C_9
REMARK    3  A    between atoms: C_9  and  C_10
REMARK    4  A    between atoms: C_14  and  O_16
REMARK    5  A    between atoms: O_16  and  C_17
REMARK    6  A    between atoms: C_27  and  C_28
REMARK                            x       y       z     vdW  Elec       q    Type
REMARK                         _______ _______ _______ _____ _____    ______ ____
ROOT
ATOM      1  C   UNL     1     114.046 129.067 135.973  0.00  0.00    +0.000 C 
ATOM      2  C   UNL     1     114.644 129.502 135.297  0.00  0.00    +0.000 C 
ATOM      3  C   UNL     1     114.767 130.496 135.301  0.00  0.00    +0.000 C 
ATOM      4  C   UNL     1     114.295 131.051 135.977  0.00  0.00    +0.000 C 
ATOM      5  C   UNL     1     113.698 130.618 136.654  0.00  0.00    +0.000 C 
ATOM      6  O   UNL     1     113.575 129.623 136.649  0.00  0.00    +0.000 OA
ATOM      7  O   UNL     1     114.418 132.045 135.982  0.00  0.00    +0.000 OA
ATOM      8  O   UNL     1     115.364 130.929 134.625  0.00  0.00    +0.000 OA
ATOM      9  O   UNL     1     115.118 128.942 134.617  0.00  0.00    +0.000 OA
ENDROOT
BRANCH   1  10
ATOM     10  C   UNL     1     113.929 128.086 135.964  0.00  0.00    +0.000 C 
BRANCH  10  11
ATOM     11  O   UNL     1     113.111 127.670 136.365  0.00  0.00    +0.000 OA
BRANCH  11  17
ATOM     12  C   UNL     1     114.622 124.682 137.273  0.00  0.00    +0.000 C 
ATOM     13  C   UNL     1     113.820 125.184 136.945  0.00  0.00    +0.000 C 
ATOM     14  C   UNL     1     112.971 124.694 136.743  0.00  0.00    +0.000 C 
ATOM     15  C   UNL     1     112.169 125.195 136.415  0.00  0.00    +0.000 C 
ATOM     16  C   UNL     1     112.216 126.188 136.289  0.00  0.00    +0.000 C 
ATOM     17  C   UNL     1     113.064 126.678 136.491  0.00  0.00    +0.000 C 
ATOM     18  O   UNL     1     113.867 126.176 136.819  0.00  0.00    +0.000 OA
ATOM     19  O   UNL     1     111.414 126.690 135.961  0.00  0.00    +0.000 OA
ATOM     20  O   UNL     1     111.321 124.705 136.213  0.00  0.00    +0.000 OA
ATOM     21  O   UNL     1     112.923 123.701 136.869  0.00  0.00    +0.000 OA
ENDBRANCH  11  17
ENDBRANCH  10  11
ENDBRANCH   1  10
BRANCH   5  22
ATOM     22  O   UNL     1     113.224 131.177 137.334  0.00  0.00    +0.000 OA
BRANCH  22  23
ATOM     23  C   UNL     1     112.870 130.755 138.170  0.00  0.00    +0.000 A 
ATOM     24  C   UNL     1     113.502 130.442 138.866  0.00  0.00    +0.000 A 
ATOM     25  O   UNL     1     114.489 130.546 138.736  0.00  0.00    +0.000 OA
ATOM     26  C   UNL     1     113.148 130.020 139.702  0.00  0.00    +0.000 A 
ATOM     27  C   UNL     1     113.782 129.702 140.409  0.00  0.00    +0.000 A 
ATOM     28  C   UNL     1     113.428 129.280 141.245  0.00  0.00    +0.000 A 
ATOM     29  C   UNL     1     112.441 129.176 141.375  0.00  0.00    +0.000 A 
ATOM     30  C   UNL     1     111.808 129.495 140.667  0.00  0.00    +0.000 A 
ATOM     31  C   UNL     1     112.162 129.917 139.831  0.00  0.00    +0.000 A 
ATOM     32  O   UNL     1     111.528 130.235 139.124  0.00  0.00    +0.000 OA
ATOM     33  C   UNL     1     111.883 130.651 138.300  0.00  0.00    +0.000 A 
ATOM     34  O   UNL     1     112.088 128.754 142.211  0.00  0.00    +0.000 OA
ATOM     35  O   UNL     1     114.768 129.806 140.279  0.00  0.00    +0.000 OA
BRANCH  33  36
ATOM     36  C   UNL     1     111.250 130.970 137.592  0.00  0.00    +0.000 A 
ATOM     37  C   UNL     1     110.786 130.307 137.003  0.00  0.00    +0.000 A 
ATOM     38  C   UNL     1     110.152 130.624 136.296  0.00  0.00    +0.000 A 
ATOM     39  C   UNL     1     109.984 131.604 136.177  0.00  0.00    +0.000 A 
ATOM     40  C   UNL     1     110.448 132.267 136.766  0.00  0.00    +0.000 A 
ATOM     41  C   UNL     1     111.081 131.950 137.474  0.00  0.00    +0.000 A 
ATOM     42  O   UNL     1     109.351 131.922 135.470  0.00  0.00    +0.000 OA
ENDBRANCH  33  36
ENDBRANCH  22  23
ENDBRANCH   5  22
TORSDOF 6
ENDMDL
MODEL 8
REMARK VINA RESULT:      -9.6      1.778      5.003
REMARK  Name = 
REMARK  6 active torsions:
REMARK  status: ('A' for Active; 'I' for Inactive)
REMARK    1  A    between atoms: C_6  and  O_8
REMARK    2  A    between atoms: O_8  and  C_9
REMARK    3  A    between atoms: C_9  and  C_10
REMARK    4  A    between atoms: C_14  and  O_16
REMARK    5  A    between atoms: O_16  and  C_17
REMARK    6  A    between atoms: C_27  and  C_28
REMARK                            x       y       z     vdW  Elec       q    Type
REMARK                         _______ _______ _______ _____ _____    ______ ____
ROOT
ATOM      1  C   UNL     1     111.387 127.171 140.606  0.00  0.00    +0.000 C 
ATOM      2  C   UNL     1     110.688 126.498 140.854  0.00  0.00    +0.000 C 
ATOM      3  C   UNL     1     110.206 125.989 140.138  0.00  0.00    +0.000 C 
ATOM      4  C   UNL     1     110.421 126.154 139.182  0.00  0.00    +0.000 C 
ATOM      5  C   UNL     1     111.118 126.827 138.933  0.00  0.00    +0.000 C 
ATOM      6  O   UNL     1     111.601 127.335 139.649  0.00  0.00    +0.000 OA
ATOM      7  O   UNL     1     109.938 125.646 138.466  0.00  0.00    +0.000 OA
ATOM      8  O   UNL     1     109.508 125.316 140.386  0.00  0.00    +0.000 OA
ATOM      9  O   UNL     1     110.473 126.332 141.816  0.00  0.00    +0.000 OA
ENDROOT
BRANCH   1  10
ATOM     10  C   UNL     1     111.860 127.670 141.317  0.00  0.00    +0.000 C 
BRANCH  10  11
ATOM     11  O   UNL     1     112.667 128.220 141.098  0.00  0.00    +0.000 OA
BRANCH  11  17
ATOM     12  C   UNL     1     111.624 130.682 143.308  0.00  0.00    +0.000 C 
ATOM     13  C   UNL     1     112.242 130.372 142.584  0.00  0.00    +0.000 C 
ATOM     14  C   UNL     1     112.956 130.982 142.240  0.00  0.00    +0.000 C 
ATOM     15  C   UNL     1     113.574 130.673 141.516  0.00  0.00    +0.000 C 
ATOM     16  C   UNL     1     113.478 129.752 141.135  0.00  0.00    +0.000 C 
ATOM     17  C   UNL     1     112.764 129.141 141.478  0.00  0.00    +0.000 C 
ATOM     18  O   UNL     1     112.145 129.451 142.203  0.00  0.00    +0.000 OA
ATOM     19  O   UNL     1     114.095 129.441 140.411  0.00  0.00    +0.000 OA
ATOM     20  O   UNL     1     114.288 131.284 141.173  0.00  0.00    +0.000 OA
ATOM     21  O   UNL     1     113.053 131.904 142.621  0.00  0.00    +0.000 OA
ENDBRANCH  11  17
ENDBRANCH  10  11
ENDBRANCH   1  10
BRANCH   5  22
ATOM     22  O   UNL     1     111.334 126.992 137.971  0.00  0.00    +0.000 OA
BRANCH  22  23
ATOM     23  C   UNL     1     111.887 127.786 137.711  0.00  0.00    +0.000 A 
ATOM     24  C   UNL     1     111.490 128.692 137.747  0.00  0.00    +0.000 A 
ATOM     25  O   UNL     1     110.541 128.817 138.041  0.00  0.00    +0.000 OA
ATOM     26  C   UNL     1     112.042 129.486 137.487  0.00  0.00    +0.000 A 
ATOM     27  C   UNL     1     111.646 130.405 137.522  0.00  0.00    +0.000 A 
ATOM     28  C   UNL     1     112.199 131.198 137.262  0.00  0.00    +0.000 A 
ATOM     29  C   UNL     1     113.147 131.073 136.968  0.00  0.00    +0.000 A 
ATOM     30  C   UNL     1     113.542 130.154 136.934  0.00  0.00    +0.000 A 
ATOM     31  C   UNL     1     112.990 129.360 137.194  0.00  0.00    +0.000 A 
ATOM     32  O   UNL     1     113.386 128.441 137.159  0.00  0.00    +0.000 OA
ATOM     33  C   UNL     1     112.835 127.661 137.417  0.00  0.00    +0.000 A 
ATOM     34  O   UNL     1     113.700 131.866 136.708  0.00  0.00    +0.000 OA
ATOM     35  O   UNL     1     110.699 130.530 137.816  0.00  0.00    +0.000 OA
BRANCH  33  36
ATOM     36  C   UNL     1     113.231 126.741 137.383  0.00  0.00    +0.000 A 
ATOM     37  C   UNL     1     113.875 126.448 138.091  0.00  0.00    +0.000 A 
ATOM     38  C   UNL     1     114.271 125.529 138.057  0.00  0.00    +0.000 A 
ATOM     39  C   UNL     1     114.022 124.903 137.316  0.00  0.00    +0.000 A 
ATOM     40  C   UNL     1     113.377 125.196 136.609  0.00  0.00    +0.000 A 
ATOM     41  C   UNL     1     112.982 126.115 136.642  0.00  0.00    +0.000 A 
ATOM     42  O   UNL     1     114.417 123.984 137.283  0.00  0.00    +0.000 OA
ENDBRANCH  33  36
ENDBRANCH  22  23
ENDBRANCH   5  22
TORSDOF 6
ENDMDL
MODEL 9
REMARK VINA RESULT:      -9.5      2.381      4.223
REMARK  Name = 
REMARK  6 active torsions:
REMARK  status: ('A' for Active; 'I' for Inactive)
REMARK    1  A    between atoms: C_6  and  O_8
REMARK    2  A    between atoms: O_8  and  C_9
REMARK    3  A    between atoms: C_9  and  C_10
REMARK    4  A    between atoms: C_14  and  O_16
REMARK    5  A    between atoms: O_16  and  C_17
REMARK    6  A    between atoms: C_27  and  C_28
REMARK                            x       y       z     vdW  Elec       q    Type
REMARK                         _______ _______ _______ _____ _____    ______ ____
ROOT
ATOM      1  C   UNL     1     109.786 129.613 139.565  0.00  0.00    +0.000 C 
ATOM      2  C   UNL     1     109.353 130.504 139.420  0.00  0.00    +0.000 C 
ATOM      3  C   UNL     1     109.842 131.224 138.923  0.00  0.00    +0.000 C 
ATOM      4  C   UNL     1     110.756 131.053 138.573  0.00  0.00    +0.000 C 
ATOM      5  C   UNL     1     111.190 130.162 138.718  0.00  0.00    +0.000 C 
ATOM      6  O   UNL     1     110.701 129.443 139.216  0.00  0.00    +0.000 OA
ATOM      7  O   UNL     1     111.245 131.772 138.076  0.00  0.00    +0.000 OA
ATOM      8  O   UNL     1     109.408 132.115 138.778  0.00  0.00    +0.000 OA
ATOM      9  O   UNL     1     108.433 130.676 139.772  0.00  0.00    +0.000 OA
ENDROOT
BRANCH   1  10
ATOM     10  C   UNL     1     109.300 128.907 140.057  0.00  0.00    +0.000 C 
BRANCH  10  11
ATOM     11  O   UNL     1     109.732 128.020 140.230  0.00  0.00    +0.000 OA
BRANCH  11  17
ATOM     12  C   UNL     1     106.891 126.893 141.871  0.00  0.00    +0.000 C 
ATOM     13  C   UNL     1     107.777 126.707 141.443  0.00  0.00    +0.000 C 
ATOM     14  C   UNL     1     108.129 125.771 141.407  0.00  0.00    +0.000 C 
ATOM     15  C   UNL     1     109.014 125.584 140.980  0.00  0.00    +0.000 C 
ATOM     16  C   UNL     1     109.549 126.335 140.587  0.00  0.00    +0.000 C 
ATOM     17  C   UNL     1     109.198 127.270 140.622  0.00  0.00    +0.000 C 
ATOM     18  O   UNL     1     108.312 127.457 141.051  0.00  0.00    +0.000 OA
ATOM     19  O   UNL     1     110.435 126.148 140.159  0.00  0.00    +0.000 OA
ATOM     20  O   UNL     1     109.365 124.648 140.944  0.00  0.00    +0.000 OA
ATOM     21  O   UNL     1     107.594 125.020 141.800  0.00  0.00    +0.000 OA
ENDBRANCH  11  17
ENDBRANCH  10  11
ENDBRANCH   1  10
BRANCH   5  22
ATOM     22  O   UNL     1     112.110 129.991 138.366  0.00  0.00    +0.000 OA
BRANCH  22  23
ATOM     23  C   UNL     1     112.468 129.056 138.337  0.00  0.00    +0.000 A 
ATOM     24  C   UNL     1     112.097 128.409 137.686  0.00  0.00    +0.000 A 
ATOM     25  O   UNL     1     111.367 128.685 137.060  0.00  0.00    +0.000 OA
ATOM     26  C   UNL     1     112.455 127.474 137.657  0.00  0.00    +0.000 A 
ATOM     27  C   UNL     1     112.084 126.816 137.001  0.00  0.00    +0.000 A 
ATOM     28  C   UNL     1     112.442 125.882 136.973  0.00  0.00    +0.000 A 
ATOM     29  C   UNL     1     113.172 125.606 137.599  0.00  0.00    +0.000 A 
ATOM     30  C   UNL     1     113.543 126.265 138.255  0.00  0.00    +0.000 A 
ATOM     31  C   UNL     1     113.185 127.200 138.284  0.00  0.00    +0.000 A 
ATOM     32  O   UNL     1     113.557 127.858 138.940  0.00  0.00    +0.000 OA
ATOM     33  C   UNL     1     113.198 128.780 138.964  0.00  0.00    +0.000 A 
ATOM     34  O   UNL     1     113.530 124.671 137.570  0.00  0.00    +0.000 OA
ATOM     35  O   UNL     1     111.354 127.091 136.375  0.00  0.00    +0.000 OA
BRANCH  33  36
ATOM     36  C   UNL     1     113.570 129.440 139.620  0.00  0.00    +0.000 A 
ATOM     37  C   UNL     1     114.196 130.156 139.308  0.00  0.00    +0.000 A 
ATOM     38  C   UNL     1     114.568 130.815 139.963  0.00  0.00    +0.000 A 
ATOM     39  C   UNL     1     114.313 130.760 140.929  0.00  0.00    +0.000 A 
ATOM     40  C   UNL     1     113.686 130.044 141.241  0.00  0.00    +0.000 A 
ATOM     41  C   UNL     1     113.315 129.384 140.587  0.00  0.00    +0.000 A 
ATOM     42  O   UNL     1     114.684 131.419 141.584  0.00  0.00    +0.000 OA
ENDBRANCH  33  36
ENDBRANCH  22  23
ENDBRANCH   5  22
TORSDOF 6
ENDMDL
MODEL 10
REMARK VINA RESULT:      -9.5      1.997      3.886
REMARK  Name = 
REMARK  6 active torsions:
REMARK  status: ('A' for Active; 'I' for Inactive)
REMARK    1  A    between atoms: C_6  and  O_8
REMARK    2  A    between atoms: O_8  and  C_9
REMARK    3  A    between atoms: C_9  and  C_10
REMARK    4  A    between atoms: C_14  and  O_16
REMARK    5  A    between atoms: O_16  and  C_17
REMARK    6  A    between atoms: C_27  and  C_28
REMARK                            x       y       z     vdW  Elec       q    Type
REMARK                         _______ _______ _______ _____ _____    ______ ____
ROOT
ATOM      1  C   UNL     1     113.308 129.610 139.449  0.00  0.00    +0.000 C 
ATOM      2  C   UNL     1     113.760 130.237 138.812  0.00  0.00    +0.000 C 
ATOM      3  C   UNL     1     113.662 130.104 137.824  0.00  0.00    +0.000 C 
ATOM      4  C   UNL     1     113.115 129.350 137.477  0.00  0.00    +0.000 C 
ATOM      5  C   UNL     1     112.663 128.723 138.113  0.00  0.00    +0.000 C 
ATOM      6  O   UNL     1     112.761 128.856 139.102  0.00  0.00    +0.000 OA
ATOM      7  O   UNL     1     113.017 129.217 136.489  0.00  0.00    +0.000 OA
ATOM      8  O   UNL     1     114.114 130.730 137.188  0.00  0.00    +0.000 OA
ATOM      9  O   UNL     1     114.310 130.995 139.162  0.00  0.00    +0.000 OA
ENDROOT
BRANCH   1  10
ATOM     10  C   UNL     1     113.409 129.747 140.424  0.00  0.00    +0.000 C 
BRANCH  10  11
ATOM     11  O   UNL     1     112.949 129.135 141.071  0.00  0.00    +0.000 OA
BRANCH  11  17
ATOM     12  C   UNL     1     112.291 131.831 143.152  0.00  0.00    +0.000 C 
ATOM     13  C   UNL     1     112.221 130.852 142.952  0.00  0.00    +0.000 C 
ATOM     14  C   UNL     1     111.753 130.243 143.593  0.00  0.00    +0.000 C 
ATOM     15  C   UNL     1     111.684 129.264 143.394  0.00  0.00    +0.000 C 
ATOM     16  C   UNL     1     112.083 128.895 142.552  0.00  0.00    +0.000 C 
ATOM     17  C   UNL     1     112.551 129.504 141.911  0.00  0.00    +0.000 C 
ATOM     18  O   UNL     1     112.620 130.484 142.111  0.00  0.00    +0.000 OA
ATOM     19  O   UNL     1     112.014 127.916 142.352  0.00  0.00    +0.000 OA
ATOM     20  O   UNL     1     111.216 128.655 144.034  0.00  0.00    +0.000 OA
ATOM     21  O   UNL     1     111.354 130.612 144.435  0.00  0.00    +0.000 OA
ENDBRANCH  11  17
ENDBRANCH  10  11
ENDBRANCH   1  10
BRANCH   5  22
ATOM     22  O   UNL     1     112.113 127.965 137.763  0.00  0.00    +0.000 OA
BRANCH  22  23
ATOM     23  C   UNL     1     111.588 127.394 138.396  0.00  0.00    +0.000 A 
ATOM     24  C   UNL     1     110.792 127.769 138.849  0.00  0.00    +0.000 A 
ATOM     25  O   UNL     1     110.511 128.714 138.677  0.00  0.00    +0.000 OA
ATOM     26  C   UNL     1     110.267 127.197 139.482  0.00  0.00    +0.000 A 
ATOM     27  C   UNL     1     109.461 127.571 139.943  0.00  0.00    +0.000 A 
ATOM     28  C   UNL     1     108.936 126.999 140.575  0.00  0.00    +0.000 A 
ATOM     29  C   UNL     1     109.217 126.054 140.748  0.00  0.00    +0.000 A 
ATOM     30  C   UNL     1     110.024 125.682 140.286  0.00  0.00    +0.000 A 
ATOM     31  C   UNL     1     110.549 126.253 139.653  0.00  0.00    +0.000 A 
ATOM     32  O   UNL     1     111.355 125.879 139.192  0.00  0.00    +0.000 OA
ATOM     33  C   UNL     1     111.869 126.449 138.568  0.00  0.00    +0.000 A 
ATOM     34  O   UNL     1     108.692 125.483 141.381  0.00  0.00    +0.000 OA
ATOM     35  O   UNL     1     109.179 128.515 139.771  0.00  0.00    +0.000 OA
BRANCH  33  36
ATOM     36  C   UNL     1     112.676 126.075 138.106  0.00  0.00    +0.000 A 
ATOM     37  C   UNL     1     112.612 125.775 137.154  0.00  0.00    +0.000 A 
ATOM     38  C   UNL     1     113.418 125.402 136.692  0.00  0.00    +0.000 A 
ATOM     39  C   UNL     1     114.288 125.329 137.182  0.00  0.00    +0.000 A 
ATOM     40  C   UNL     1     114.352 125.630 138.135  0.00  0.00    +0.000 A 
ATOM     41  C   UNL     1     113.547 126.003 138.597  0.00  0.00    +0.000 A 
ATOM     42  O   UNL     1     115.094 124.956 136.720  0.00  0.00    +0.000 OA
ENDBRANCH  33  36
ENDBRANCH  22  23
ENDBRANCH   5  22
TORSDOF 6
ENDMDL
