MODEL 1
REMARK VINA RESULT:      -9.6      0.000      0.000
REMARK  Name = 
REMARK  4 active torsions:
REMARK  status: ('A' for Active; 'I' for Inactive)
REMARK    1  A    between atoms: O_2  and  C_16
REMARK    2  A    between atoms: O_2  and  C_23
REMARK    3  A    between atoms: C_17  and  C_24
REMARK    4  A    between atoms: C_18  and  C_21
REMARK                            x       y       z     vdW  Elec       q    Type
REMARK                         _______ _______ _______ _____ _____    ______ ____
ROOT
ATOM      1  O   UNL     1     108.373 125.527 147.449  0.00  0.00    +0.000 OA
ATOM      2  C   UNL     1     105.434 124.983 147.599  0.00  0.00    +0.000 A 
ATOM      3  C   UNL     1     106.759 125.822 146.888  0.00  0.00    +0.000 A 
ATOM      4  C   UNL     1     105.776 125.638 146.940  0.00  0.00    +0.000 A 
ATOM      5  C   UNL     1     106.061 124.509 148.208  0.00  0.00    +0.000 A 
ATOM      6  C   UNL     1     107.386 125.348 147.496  0.00  0.00    +0.000 A 
ATOM      7  C   UNL     1     107.034 124.686 148.162  0.00  0.00    +0.000 A 
ENDROOT
BRANCH   2  12
ATOM      8  O   UNL     1     104.002 124.266 146.932  0.00  0.00    +0.000 OA
ATOM      9  O   UNL     1     104.366 125.683 149.141  0.00  0.00    +0.000 OA
ATOM     10  O   UNL     1     100.967 124.599 148.579  0.00  0.00    +0.000 OA
ATOM     11  O   UNL     1     101.137 122.832 145.599  0.00  0.00    +0.000 OA
ATOM     12  C   UNL     1     104.451 124.800 147.651  0.00  0.00    +0.000 C 
ATOM     13  C   UNL     1     103.917 125.150 148.422  0.00  0.00    +0.000 C 
ATOM     14  C   UNL     1     102.934 124.966 148.474  0.00  0.00    +0.000 C 
ATOM     15  C   UNL     1     102.485 124.432 147.755  0.00  0.00    +0.000 A 
ATOM     16  C   UNL     1     103.019 124.083 146.984  0.00  0.00    +0.000 A 
ATOM     17  C   UNL     1     101.501 124.249 147.808  0.00  0.00    +0.000 A 
ATOM     18  C   UNL     1     102.569 123.549 146.266  0.00  0.00    +0.000 A 
ATOM     19  C   UNL     1     101.052 123.715 147.088  0.00  0.00    +0.000 A 
ATOM     20  C   UNL     1     101.586 123.365 146.317  0.00  0.00    +0.000 A 
ENDBRANCH   2  12
BRANCH   3  21
ATOM     21  O   UNL     1     107.116 126.479 146.228  0.00  0.00    +0.000 OA
BRANCH  21  29
ATOM     22  O   UNL     1     106.558 125.743 144.768  0.00  0.00    +0.000 OA
ATOM     23  O   UNL     1     105.785 128.434 143.686  0.00  0.00    +0.000 OA
ATOM     24  O   UNL     1     106.601 128.279 145.510  0.00  0.00    +0.000 OA
ATOM     25  O   UNL     1     105.485 126.798 142.585  0.00  0.00    +0.000 OA
ATOM     26  C   UNL     1     106.044 127.541 144.050  0.00  0.00    +0.000 C 
ATOM     27  C   UNL     1     106.450 127.457 144.957  0.00  0.00    +0.000 C 
ATOM     28  C   UNL     1     105.893 126.720 143.497  0.00  0.00    +0.000 C 
ATOM     29  C   UNL     1     106.709 126.564 145.320  0.00  0.00    +0.000 C 
ATOM     30  C   UNL     1     106.150 125.821 143.856  0.00  0.00    +0.000 C 
BRANCH  30  33
ATOM     31  O   UNL     1     106.637 124.769 142.566  0.00  0.00    +0.000 OA
ATOM     32  O   UNL     1     105.212 124.410 143.488  0.00  0.00    +0.000 OA
ATOM     33  C   UNL     1     105.999 125.000 143.303  0.00  0.00    +0.000 C 
ENDBRANCH  30  33
ENDBRANCH  21  29
ENDBRANCH   3  21
TORSDOF 4
ENDMDL
MODEL 2
REMARK VINA RESULT:      -9.5     11.234     12.825
REMARK  Name = 
REMARK  4 active torsions:
REMARK  status: ('A' for Active; 'I' for Inactive)
REMARK    1  A    between atoms: O_2  and  C_16
REMARK    2  A    between atoms: O_2  and  C_23
REMARK    3  A    between atoms: C_17  and  C_24
REMARK    4  A    between atoms: C_18  and  C_21
REMARK                            x       y       z     vdW  Elec       q    Type
REMARK                         _______ _______ _______ _____ _____    ______ ____
ROOT
ATOM      1  O   UNL     1     114.097 131.471 136.699  0.00  0.00    +0.000 OA
ATOM      2  C   UNL     1     112.675 128.886 136.194  0.00  0.00    +0.000 A 
ATOM      3  C   UNL     1     112.846 130.340 137.102  0.00  0.00    +0.000 A 
ATOM      4  C   UNL     1     112.372 129.474 136.930  0.00  0.00    +0.000 A 
ATOM      5  C   UNL     1     113.446 129.151 135.625  0.00  0.00    +0.000 A 
ATOM      6  C   UNL     1     113.617 130.604 136.533  0.00  0.00    +0.000 A 
ATOM      7  C   UNL     1     113.919 130.005 135.788  0.00  0.00    +0.000 A 
ENDROOT
BRANCH   2  12
ATOM      8  O   UNL     1     112.559 127.169 136.408  0.00  0.00    +0.000 OA
ATOM      9  O   UNL     1     111.011 128.860 135.082  0.00  0.00    +0.000 OA
ATOM     10  O   UNL     1     109.946 125.412 134.954  0.00  0.00    +0.000 OA
ATOM     11  O   UNL     1     112.326 123.733 136.837  0.00  0.00    +0.000 OA
ATOM     12  C   UNL     1     112.201 128.021 136.023  0.00  0.00    +0.000 C 
ATOM     13  C   UNL     1     111.369 128.008 135.467  0.00  0.00    +0.000 C 
ATOM     14  C   UNL     1     110.894 127.142 135.296  0.00  0.00    +0.000 C 
ATOM     15  C   UNL     1     111.253 126.291 135.681  0.00  0.00    +0.000 A 
ATOM     16  C   UNL     1     112.085 126.304 136.238  0.00  0.00    +0.000 A 
ATOM     17  C   UNL     1     110.778 125.425 135.510  0.00  0.00    +0.000 A 
ATOM     18  C   UNL     1     112.442 125.451 136.623  0.00  0.00    +0.000 A 
ATOM     19  C   UNL     1     111.136 124.572 135.896  0.00  0.00    +0.000 A 
ATOM     20  C   UNL     1     111.968 124.585 136.452  0.00  0.00    +0.000 A 
ENDBRANCH   2  12
BRANCH   3  21
ATOM     21  O   UNL     1     112.550 130.940 137.841  0.00  0.00    +0.000 OA
BRANCH  21  29
ATOM     22  O   UNL     1     111.178 131.621 137.040  0.00  0.00    +0.000 OA
ATOM     23  O   UNL     1     109.659 131.644 139.629  0.00  0.00    +0.000 OA
ATOM     24  O   UNL     1     111.539 130.954 139.572  0.00  0.00    +0.000 OA
ATOM     25  O   UNL     1     108.792 132.318 137.963  0.00  0.00    +0.000 OA
ATOM     26  C   UNL     1     110.168 131.635 138.770  0.00  0.00    +0.000 C 
ATOM     27  C   UNL     1     111.104 131.292 138.735  0.00  0.00    +0.000 C 
ATOM     28  C   UNL     1     109.733 131.973 137.934  0.00  0.00    +0.000 C 
ATOM     29  C   UNL     1     111.613 131.283 137.876  0.00  0.00    +0.000 C 
ATOM     30  C   UNL     1     110.237 131.966 137.069  0.00  0.00    +0.000 C 
BRANCH  30  33
ATOM     31  O   UNL     1     109.303 131.671 135.638  0.00  0.00    +0.000 OA
ATOM     32  O   UNL     1     109.867 133.273 135.993  0.00  0.00    +0.000 OA
ATOM     33  C   UNL     1     109.803 132.304 136.233  0.00  0.00    +0.000 C 
ENDBRANCH  30  33
ENDBRANCH  21  29
ENDBRANCH   3  21
TORSDOF 4
ENDMDL
MODEL 3
REMARK VINA RESULT:      -9.3     10.275     12.434
REMARK  Name = 
REMARK  4 active torsions:
REMARK  status: ('A' for Active; 'I' for Inactive)
REMARK    1  A    between atoms: O_2  and  C_16
REMARK    2  A    between atoms: O_2  and  C_23
REMARK    3  A    between atoms: C_17  and  C_24
REMARK    4  A    between atoms: C_18  and  C_21
REMARK                            x       y       z     vdW  Elec       q    Type
REMARK                         _______ _______ _______ _____ _____    ______ ____
ROOT
ATOM      1  O   UNL     1     109.218 130.121 135.131  0.00  0.00    +0.000 OA
ATOM      2  C   UNL     1     110.637 127.565 135.773  0.00  0.00    +0.000 A 
ATOM      3  C   UNL     1     109.779 128.964 136.295  0.00  0.00    +0.000 A 
ATOM      4  C   UNL     1     110.255 128.108 136.506  0.00  0.00    +0.000 A 
ATOM      5  C   UNL     1     110.551 127.864 134.829  0.00  0.00    +0.000 A 
ATOM      6  C   UNL     1     109.693 129.263 135.351  0.00  0.00    +0.000 A 
ATOM      7  C   UNL     1     110.082 128.709 134.612  0.00  0.00    +0.000 A 
ENDROOT
BRANCH   2  12
ATOM      8  O   UNL     1     112.063 126.728 136.300  0.00  0.00    +0.000 OA
ATOM      9  O   UNL     1     109.687 125.815 135.565  0.00  0.00    +0.000 OA
ATOM     10  O   UNL     1     112.063 123.267 136.517  0.00  0.00    +0.000 OA
ATOM     11  O   UNL     1     114.914 125.055 137.355  0.00  0.00    +0.000 OA
ATOM     12  C   UNL     1     111.112 126.710 135.985  0.00  0.00    +0.000 C 
ATOM     13  C   UNL     1     110.637 125.835 135.881  0.00  0.00    +0.000 C 
ATOM     14  C   UNL     1     111.112 124.978 136.093  0.00  0.00    +0.000 C 
ATOM     15  C   UNL     1     112.063 124.998 136.408  0.00  0.00    +0.000 A 
ATOM     16  C   UNL     1     112.538 125.873 136.512  0.00  0.00    +0.000 A 
ATOM     17  C   UNL     1     112.538 124.142 136.621  0.00  0.00    +0.000 A 
ATOM     18  C   UNL     1     113.488 125.892 136.828  0.00  0.00    +0.000 A 
ATOM     19  C   UNL     1     113.489 124.161 136.936  0.00  0.00    +0.000 A 
ATOM     20  C   UNL     1     113.964 125.036 137.040  0.00  0.00    +0.000 A 
ENDBRANCH   2  12
BRANCH   3  21
ATOM     21  O   UNL     1     109.390 129.519 137.026  0.00  0.00    +0.000 OA
BRANCH  21  29
ATOM     22  O   UNL     1     110.957 129.944 137.618  0.00  0.00    +0.000 OA
ATOM     23  O   UNL     1     109.751 130.836 140.217  0.00  0.00    +0.000 OA
ATOM     24  O   UNL     1     108.580 130.114 138.760  0.00  0.00    +0.000 OA
ATOM     25  O   UNL     1     111.723 130.964 139.942  0.00  0.00    +0.000 OA
ATOM     26  C   UNL     1     110.148 130.538 139.351  0.00  0.00    +0.000 C 
ATOM     27  C   UNL     1     109.571 130.178 138.622  0.00  0.00    +0.000 C 
ATOM     28  C   UNL     1     111.137 130.602 139.213  0.00  0.00    +0.000 C 
ATOM     29  C   UNL     1     109.968 129.880 137.756  0.00  0.00    +0.000 C 
ATOM     30  C   UNL     1     111.543 130.305 138.347  0.00  0.00    +0.000 C 
BRANCH  30  33
ATOM     31  O   UNL     1     113.118 129.585 138.419  0.00  0.00    +0.000 OA
ATOM     32  O   UNL     1     112.934 131.217 137.860  0.00  0.00    +0.000 OA
ATOM     33  C   UNL     1     112.532 130.369 138.208  0.00  0.00    +0.000 C 
ENDBRANCH  30  33
ENDBRANCH  21  29
ENDBRANCH   3  21
TORSDOF 4
ENDMDL
MODEL 4
REMARK VINA RESULT:      -9.2     11.411     12.569
REMARK  Name = 
REMARK  4 active torsions:
REMARK  status: ('A' for Active; 'I' for Inactive)
REMARK    1  A    between atoms: O_2  and  C_16
REMARK    2  A    between atoms: O_2  and  C_23
REMARK    3  A    between atoms: C_17  and  C_24
REMARK    4  A    between atoms: C_18  and  C_21
REMARK                            x       y       z     vdW  Elec       q    Type
REMARK                         _______ _______ _______ _____ _____    ______ ____
ROOT
ATOM      1  O   UNL     1     113.426 132.182 136.779  0.00  0.00    +0.000 OA
ATOM      2  C   UNL     1     112.590 129.308 136.751  0.00  0.00    +0.000 A 
ATOM      3  C   UNL     1     112.281 130.945 137.187  0.00  0.00    +0.000 A 
ATOM      4  C   UNL     1     112.004 129.982 137.177  0.00  0.00    +0.000 A 
ATOM      5  C   UNL     1     113.451 129.581 136.336  0.00  0.00    +0.000 A 
ATOM      6  C   UNL     1     113.142 131.218 136.772  0.00  0.00    +0.000 A 
ATOM      7  C   UNL     1     113.731 130.531 136.343  0.00  0.00    +0.000 A 
ENDROOT
BRANCH   2  12
ATOM      8  O   UNL     1     111.681 128.014 136.038  0.00  0.00    +0.000 OA
ATOM      9  O   UNL     1     113.300 128.047 138.135  0.00  0.00    +0.000 OA
ATOM     10  O   UNL     1     111.836 124.828 137.401  0.00  0.00    +0.000 OA
ATOM     11  O   UNL     1     109.863 125.425 134.612  0.00  0.00    +0.000 OA
ATOM     12  C   UNL     1     112.313 128.346 136.741  0.00  0.00    +0.000 C 
ATOM     13  C   UNL     1     112.668 127.716 137.433  0.00  0.00    +0.000 C 
ATOM     14  C   UNL     1     112.390 126.753 137.422  0.00  0.00    +0.000 C 
ATOM     15  C   UNL     1     111.759 126.422 136.720  0.00  0.00    +0.000 A 
ATOM     16  C   UNL     1     111.404 127.052 136.028  0.00  0.00    +0.000 A 
ATOM     17  C   UNL     1     111.481 125.459 136.709  0.00  0.00    +0.000 A 
ATOM     18  C   UNL     1     110.772 126.719 135.325  0.00  0.00    +0.000 A 
ATOM     19  C   UNL     1     110.849 125.127 136.006  0.00  0.00    +0.000 A 
ATOM     20  C   UNL     1     110.494 125.757 135.314  0.00  0.00    +0.000 A 
ENDBRANCH   2  12
BRANCH   3  21
ATOM     21  O   UNL     1     111.698 131.634 137.613  0.00  0.00    +0.000 OA
BRANCH  21  29
ATOM     22  O   UNL     1     110.398 131.524 136.481  0.00  0.00    +0.000 OA
ATOM     23  O   UNL     1     108.420 132.047 138.677  0.00  0.00    +0.000 OA
ATOM     24  O   UNL     1     110.381 131.983 139.083  0.00  0.00    +0.000 OA
ATOM     25  O   UNL     1     107.778 131.762 136.809  0.00  0.00    +0.000 OA
ATOM     26  C   UNL     1     109.081 131.873 137.949  0.00  0.00    +0.000 C 
ATOM     27  C   UNL     1     110.059 131.840 138.145  0.00  0.00    +0.000 C 
ATOM     28  C   UNL     1     108.759 131.730 137.012  0.00  0.00    +0.000 C 
ATOM     29  C   UNL     1     110.720 131.667 137.418  0.00  0.00    +0.000 C 
ATOM     30  C   UNL     1     109.417 131.556 136.278  0.00  0.00    +0.000 C 
BRANCH  30  33
ATOM     31  O   UNL     1     109.003 132.193 134.719  0.00  0.00    +0.000 OA
ATOM     32  O   UNL     1     108.865 130.491 135.026  0.00  0.00    +0.000 OA
ATOM     33  C   UNL     1     109.095 131.413 135.341  0.00  0.00    +0.000 C 
ENDBRANCH  30  33
ENDBRANCH  21  29
ENDBRANCH   3  21
TORSDOF 4
ENDMDL
MODEL 5
REMARK VINA RESULT:      -9.2     10.759     12.693
REMARK  Name = 
REMARK  4 active torsions:
REMARK  status: ('A' for Active; 'I' for Inactive)
REMARK    1  A    between atoms: O_2  and  C_16
REMARK    2  A    between atoms: O_2  and  C_23
REMARK    3  A    between atoms: C_17  and  C_24
REMARK    4  A    between atoms: C_18  and  C_21
REMARK                            x       y       z     vdW  Elec       q    Type
REMARK                         _______ _______ _______ _____ _____    ______ ____
ROOT
ATOM      1  O   UNL     1     114.726 128.123 135.371  0.00  0.00    +0.000 OA
ATOM      2  C   UNL     1     111.982 129.262 135.737  0.00  0.00    +0.000 A 
ATOM      3  C   UNL     1     113.233 128.196 136.251  0.00  0.00    +0.000 A 
ATOM      4  C   UNL     1     112.315 128.579 136.371  0.00  0.00    +0.000 A 
ATOM      5  C   UNL     1     112.553 129.569 134.983  0.00  0.00    +0.000 A 
ATOM      6  C   UNL     1     113.804 128.503 135.497  0.00  0.00    +0.000 A 
ATOM      7  C   UNL     1     113.461 129.195 134.858  0.00  0.00    +0.000 A 
ENDROOT
BRANCH   2  12
ATOM      8  O   UNL     1     110.917 130.402 136.496  0.00  0.00    +0.000 OA
ATOM      9  O   UNL     1     110.442 128.513 134.700  0.00  0.00    +0.000 OA
ATOM     10  O   UNL     1     107.541 130.418 135.700  0.00  0.00    +0.000 OA
ATOM     11  O   UNL     1     108.786 132.682 138.014  0.00  0.00    +0.000 OA
ATOM     12  C   UNL     1     111.065 129.645 135.857  0.00  0.00    +0.000 C 
ATOM     13  C   UNL     1     110.295 129.270 135.339  0.00  0.00    +0.000 C 
ATOM     14  C   UNL     1     109.377 129.653 135.459  0.00  0.00    +0.000 C 
ATOM     15  C   UNL     1     109.230 130.410 136.098  0.00  0.00    +0.000 A 
ATOM     16  C   UNL     1     110.000 130.785 136.616  0.00  0.00    +0.000 A 
ATOM     17  C   UNL     1     108.311 130.792 136.218  0.00  0.00    +0.000 A 
ATOM     18  C   UNL     1     109.851 131.542 137.255  0.00  0.00    +0.000 A 
ATOM     19  C   UNL     1     108.164 131.550 136.858  0.00  0.00    +0.000 A 
ATOM     20  C   UNL     1     108.934 131.925 137.376  0.00  0.00    +0.000 A 
ENDBRANCH   2  12
BRANCH   3  21
ATOM     21  O   UNL     1     113.580 127.507 136.883  0.00  0.00    +0.000 OA
BRANCH  21  29
ATOM     22  O   UNL     1     112.504 126.184 136.607  0.00  0.00    +0.000 OA
ATOM     23  O   UNL     1     112.117 125.860 139.565  0.00  0.00    +0.000 OA
ATOM     24  O   UNL     1     113.325 127.295 138.860  0.00  0.00    +0.000 OA
ATOM     25  O   UNL     1     111.169 124.643 138.301  0.00  0.00    +0.000 OA
ATOM     26  C   UNL     1     112.249 125.971 138.582  0.00  0.00    +0.000 C 
ATOM     27  C   UNL     1     112.848 126.684 138.225  0.00  0.00    +0.000 C 
ATOM     28  C   UNL     1     111.773 125.361 137.947  0.00  0.00    +0.000 C 
ATOM     29  C   UNL     1     112.980 126.795 137.241  0.00  0.00    +0.000 C 
ATOM     30  C   UNL     1     111.900 125.466 136.960  0.00  0.00    +0.000 C 
BRANCH  30  33
ATOM     31  O   UNL     1     111.772 123.930 136.167  0.00  0.00    +0.000 OA
ATOM     32  O   UNL     1     110.602 125.171 135.850  0.00  0.00    +0.000 OA
ATOM     33  C   UNL     1     111.424 124.856 136.325  0.00  0.00    +0.000 C 
ENDBRANCH  30  33
ENDBRANCH  21  29
ENDBRANCH   3  21
TORSDOF 4
ENDMDL
MODEL 6
REMARK VINA RESULT:      -9.2      8.626     11.127
REMARK  Name = 
REMARK  4 active torsions:
REMARK  status: ('A' for Active; 'I' for Inactive)
REMARK    1  A    between atoms: O_2  and  C_16
REMARK    2  A    between atoms: O_2  and  C_23
REMARK    3  A    between atoms: C_17  and  C_24
REMARK    4  A    between atoms: C_18  and  C_21
REMARK                            x       y       z     vdW  Elec       q    Type
REMARK                         _______ _______ _______ _____ _____    ______ ____
ROOT
ATOM      1  O   UNL     1     107.717 131.077 140.497  0.00  0.00    +0.000 OA
ATOM      2  C   UNL     1     109.966 129.221 139.822  0.00  0.00    +0.000 A 
ATOM      3  C   UNL     1     109.195 130.751 139.650  0.00  0.00    +0.000 A 
ATOM      4  C   UNL     1     109.946 130.128 139.426  0.00  0.00    +0.000 A 
ATOM      5  C   UNL     1     109.245 128.927 140.439  0.00  0.00    +0.000 A 
ATOM      6  C   UNL     1     108.473 130.457 140.268  0.00  0.00    +0.000 A 
ATOM      7  C   UNL     1     108.499 129.537 140.665  0.00  0.00    +0.000 A 
ENDROOT
BRANCH   2  12
ATOM      8  O   UNL     1     111.508 128.527 140.207  0.00  0.00    +0.000 OA
ATOM      9  O   UNL     1     109.887 128.119 138.152  0.00  0.00    +0.000 OA
ATOM     10  O   UNL     1     112.932 126.179 138.088  0.00  0.00    +0.000 OA
ATOM     11  O   UNL     1     114.594 127.138 140.978  0.00  0.00    +0.000 OA
ATOM     12  C   UNL     1     110.717 128.599 139.597  0.00  0.00    +0.000 C 
ATOM     13  C   UNL     1     110.677 128.048 138.763  0.00  0.00    +0.000 C 
ATOM     14  C   UNL     1     111.429 127.424 138.538  0.00  0.00    +0.000 C 
ATOM     15  C   UNL     1     112.220 127.353 139.148  0.00  0.00    +0.000 A 
ATOM     16  C   UNL     1     112.259 127.905 139.983  0.00  0.00    +0.000 A 
ATOM     17  C   UNL     1     112.972 126.730 138.923  0.00  0.00    +0.000 A 
ATOM     18  C   UNL     1     113.051 127.832 140.592  0.00  0.00    +0.000 A 
ATOM     19  C   UNL     1     113.763 126.659 139.534  0.00  0.00    +0.000 A 
ATOM     20  C   UNL     1     113.803 127.210 140.368  0.00  0.00    +0.000 A 
ENDBRANCH   2  12
BRANCH   3  21
ATOM     21  O   UNL     1     109.164 131.668 139.258  0.00  0.00    +0.000 OA
BRANCH  21  29
ATOM     22  O   UNL     1     108.616 131.199 137.688  0.00  0.00    +0.000 OA
ATOM     23  O   UNL     1     110.256 133.382 136.444  0.00  0.00    +0.000 OA
ATOM     24  O   UNL     1     110.262 133.128 138.432  0.00  0.00    +0.000 OA
ATOM     25  O   UNL     1     109.159 132.183 135.288  0.00  0.00    +0.000 OA
ATOM     26  C   UNL     1     109.712 132.657 136.862  0.00  0.00    +0.000 C 
ATOM     27  C   UNL     1     109.711 132.525 137.851  0.00  0.00    +0.000 C 
ATOM     28  C   UNL     1     109.161 132.056 136.282  0.00  0.00    +0.000 C 
ATOM     29  C   UNL     1     109.166 131.800 138.269  0.00  0.00    +0.000 C 
ATOM     30  C   UNL     1     108.613 131.326 136.694  0.00  0.00    +0.000 C 
BRANCH  30  33
ATOM     31  O   UNL     1     108.459 129.879 135.752  0.00  0.00    +0.000 OA
ATOM     32  O   UNL     1     107.117 130.968 135.896  0.00  0.00    +0.000 OA
ATOM     33  C   UNL     1     108.062 130.725 136.114  0.00  0.00    +0.000 C 
ENDBRANCH  30  33
ENDBRANCH  21  29
ENDBRANCH   3  21
TORSDOF 4
ENDMDL
MODEL 7
REMARK VINA RESULT:      -9.1      2.670      6.115
REMARK  Name = 
REMARK  4 active torsions:
REMARK  status: ('A' for Active; 'I' for Inactive)
REMARK    1  A    between atoms: O_2  and  C_16
REMARK    2  A    between atoms: O_2  and  C_23
REMARK    3  A    between atoms: C_17  and  C_24
REMARK    4  A    between atoms: C_18  and  C_21
REMARK                            x       y       z     vdW  Elec       q    Type
REMARK                         _______ _______ _______ _____ _____    ______ ____
ROOT
ATOM      1  O   UNL     1     108.169 126.337 142.448  0.00  0.00    +0.000 OA
ATOM      2  C   UNL     1     105.800 128.165 142.462  0.00  0.00    +0.000 A 
ATOM      3  C   UNL     1     106.506 126.640 142.834  0.00  0.00    +0.000 A 
ATOM      4  C   UNL     1     105.714 127.254 142.837  0.00  0.00    +0.000 A 
ATOM      5  C   UNL     1     106.665 128.474 142.083  0.00  0.00    +0.000 A 
ATOM      6  C   UNL     1     107.371 126.948 142.454  0.00  0.00    +0.000 A 
ATOM      7  C   UNL     1     107.452 127.872 142.076  0.00  0.00    +0.000 A 
ENDROOT
BRANCH   2  12
ATOM      8  O   UNL     1     104.851 129.391 143.242  0.00  0.00    +0.000 OA
ATOM      9  O   UNL     1     104.530 128.169 140.914  0.00  0.00    +0.000 OA
ATOM     10  O   UNL     1     101.999 130.622 141.701  0.00  0.00    +0.000 OA
ATOM     11  O   UNL     1     102.955 131.842 144.804  0.00  0.00    +0.000 OA
ATOM     12  C   UNL     1     105.009 128.779 142.465  0.00  0.00    +0.000 C 
ATOM     13  C   UNL     1     104.374 128.781 141.691  0.00  0.00    +0.000 C 
ATOM     14  C   UNL     1     103.582 129.395 141.695  0.00  0.00    +0.000 C 
ATOM     15  C   UNL     1     103.426 130.006 142.472  0.00  0.00    +0.000 A 
ATOM     16  C   UNL     1     104.060 130.004 143.246  0.00  0.00    +0.000 A 
ATOM     17  C   UNL     1     102.633 130.620 142.475  0.00  0.00    +0.000 A 
ATOM     18  C   UNL     1     103.903 130.616 144.023  0.00  0.00    +0.000 A 
ATOM     19  C   UNL     1     102.477 131.232 143.253  0.00  0.00    +0.000 A 
ATOM     20  C   UNL     1     103.112 131.230 144.027  0.00  0.00    +0.000 A 
ENDBRANCH   2  12
BRANCH   3  21
ATOM     21  O   UNL     1     106.432 125.718 143.209  0.00  0.00    +0.000 OA
BRANCH  21  29
ATOM     22  O   UNL     1     106.655 126.169 144.862  0.00  0.00    +0.000 OA
ATOM     23  O   UNL     1     104.794 123.978 145.726  0.00  0.00    +0.000 OA
ATOM     24  O   UNL     1     105.188 124.254 143.781  0.00  0.00    +0.000 OA
ATOM     25  O   UNL     1     105.639 125.161 147.093  0.00  0.00    +0.000 OA
ATOM     26  C   UNL     1     105.412 124.706 145.435  0.00  0.00    +0.000 C 
ATOM     27  C   UNL     1     105.613 124.848 144.468  0.00  0.00    +0.000 C 
ATOM     28  C   UNL     1     105.836 125.299 146.120  0.00  0.00    +0.000 C 
ATOM     29  C   UNL     1     106.231 125.575 144.176  0.00  0.00    +0.000 C 
ATOM     30  C   UNL     1     106.458 126.030 145.835  0.00  0.00    +0.000 C 
BRANCH  30  33
ATOM     31  O   UNL     1     106.439 127.485 146.779  0.00  0.00    +0.000 OA
ATOM     32  O   UNL     1     107.746 126.356 146.947  0.00  0.00    +0.000 OA
ATOM     33  C   UNL     1     106.881 126.624 146.521  0.00  0.00    +0.000 C 
ENDBRANCH  30  33
ENDBRANCH  21  29
ENDBRANCH   3  21
TORSDOF 4
ENDMDL
MODEL 8
REMARK VINA RESULT:      -9.1      9.183     12.423
REMARK  Name = 
REMARK  4 active torsions:
REMARK  status: ('A' for Active; 'I' for Inactive)
REMARK    1  A    between atoms: O_2  and  C_16
REMARK    2  A    between atoms: O_2  and  C_23
REMARK    3  A    between atoms: C_17  and  C_24
REMARK    4  A    between atoms: C_18  and  C_21
REMARK                            x       y       z     vdW  Elec       q    Type
REMARK                         _______ _______ _______ _____ _____    ______ ____
ROOT
ATOM      1  O   UNL     1     110.428 130.659 135.403  0.00  0.00    +0.000 OA
ATOM      2  C   UNL     1     111.912 128.135 136.025  0.00  0.00    +0.000 A 
ATOM      3  C   UNL     1     111.403 129.716 136.482  0.00  0.00    +0.000 A 
ATOM      4  C   UNL     1     111.899 128.870 136.688  0.00  0.00    +0.000 A 
ATOM      5  C   UNL     1     111.435 128.233 135.158  0.00  0.00    +0.000 A 
ATOM      6  C   UNL     1     110.927 129.813 135.615  0.00  0.00    +0.000 A 
ATOM      7  C   UNL     1     110.943 129.066 134.948  0.00  0.00    +0.000 A 
ENDROOT
BRANCH   2  12
ATOM      8  O   UNL     1     111.904 126.441 136.398  0.00  0.00    +0.000 OA
ATOM      9  O   UNL     1     113.912 128.143 136.104  0.00  0.00    +0.000 OA
ATOM     10  O   UNL     1     114.896 124.758 136.888  0.00  0.00    +0.000 OA
ATOM     11  O   UNL     1     111.887 123.052 137.143  0.00  0.00    +0.000 OA
ATOM     12  C   UNL     1     112.407 127.291 136.231  0.00  0.00    +0.000 C 
ATOM     13  C   UNL     1     113.408 127.294 136.270  0.00  0.00    +0.000 C 
ATOM     14  C   UNL     1     113.904 126.449 136.476  0.00  0.00    +0.000 C 
ATOM     15  C   UNL     1     113.399 125.600 136.643  0.00  0.00    +0.000 A 
ATOM     16  C   UNL     1     112.399 125.596 136.603  0.00  0.00    +0.000 A 
ATOM     17  C   UNL     1     113.896 124.754 136.849  0.00  0.00    +0.000 A 
ATOM     18  C   UNL     1     111.896 124.746 136.770  0.00  0.00    +0.000 A 
ATOM     19  C   UNL     1     113.391 123.904 137.016  0.00  0.00    +0.000 A 
ATOM     20  C   UNL     1     112.391 123.901 136.976  0.00  0.00    +0.000 A 
ENDBRANCH   2  12
BRANCH   3  21
ATOM     21  O   UNL     1     111.384 130.463 137.143  0.00  0.00    +0.000 OA
BRANCH  21  29
ATOM     22  O   UNL     1     110.311 129.835 138.343  0.00  0.00    +0.000 OA
ATOM     23  O   UNL     1     112.213 130.676 140.506  0.00  0.00    +0.000 OA
ATOM     24  O   UNL     1     112.657 131.027 138.584  0.00  0.00    +0.000 OA
ATOM     25  O   UNL     1     110.504 129.766 140.985  0.00  0.00    +0.000 OA
ATOM     26  C   UNL     1     111.583 130.398 139.784  0.00  0.00    +0.000 C 
ATOM     27  C   UNL     1     111.799 130.570 138.825  0.00  0.00    +0.000 C 
ATOM     28  C   UNL     1     110.725 129.941 140.024  0.00  0.00    +0.000 C 
ATOM     29  C   UNL     1     111.169 130.292 138.102  0.00  0.00    +0.000 C 
ATOM     30  C   UNL     1     110.089 129.660 139.304  0.00  0.00    +0.000 C 
BRANCH  30  33
ATOM     31  O   UNL     1     108.418 129.747 139.758  0.00  0.00    +0.000 OA
ATOM     32  O   UNL     1     109.187 128.203 139.571  0.00  0.00    +0.000 OA
ATOM     33  C   UNL     1     109.231 129.203 139.544  0.00  0.00    +0.000 C 
ENDBRANCH  30  33
ENDBRANCH  21  29
ENDBRANCH   3  21
TORSDOF 4
ENDMDL
MODEL 9
REMARK VINA RESULT:      -9.1     10.075     12.678
REMARK  Name = 
REMARK  4 active torsions:
REMARK  status: ('A' for Active; 'I' for Inactive)
REMARK    1  A    between atoms: O_2  and  C_16
REMARK    2  A    between atoms: O_2  and  C_23
REMARK    3  A    between atoms: C_17  and  C_24
REMARK    4  A    between atoms: C_18  and  C_21
REMARK                            x       y       z     vdW  Elec       q    Type
REMARK                         _______ _______ _______ _____ _____    ______ ____
ROOT
ATOM      1  O   UNL     1     112.831 131.757 136.875  0.00  0.00    +0.000 OA
ATOM      2  C   UNL     1     112.723 128.771 136.709  0.00  0.00    +0.000 A 
ATOM      3  C   UNL     1     112.314 130.233 137.521  0.00  0.00    +0.000 A 
ATOM      4  C   UNL     1     112.279 129.234 137.463  0.00  0.00    +0.000 A 
ATOM      5  C   UNL     1     113.202 129.292 136.011  0.00  0.00    +0.000 A 
ATOM      6  C   UNL     1     112.793 130.755 136.823  0.00  0.00    +0.000 A 
ATOM      7  C   UNL     1     113.240 130.280 136.062  0.00  0.00    +0.000 A 
ENDROOT
BRANCH   2  12
ATOM      8  O   UNL     1     113.452 127.223 136.993  0.00  0.00    +0.000 OA
ATOM      9  O   UNL     1     111.124 127.871 135.909  0.00  0.00    +0.000 OA
ATOM     10  O   UNL     1     111.783 124.324 136.077  0.00  0.00    +0.000 OA
ATOM     11  O   UNL     1     114.911 124.126 137.561  0.00  0.00    +0.000 OA
ATOM     12  C   UNL     1     112.688 127.772 136.651  0.00  0.00    +0.000 C 
ATOM     13  C   UNL     1     111.888 127.322 136.251  0.00  0.00    +0.000 C 
ATOM     14  C   UNL     1     111.853 126.322 136.193  0.00  0.00    +0.000 C 
ATOM     15  C   UNL     1     112.618 125.774 136.535  0.00  0.00    +0.000 A 
ATOM     16  C   UNL     1     113.417 126.224 136.935  0.00  0.00    +0.000 A 
ATOM     17  C   UNL     1     112.583 124.774 136.477  0.00  0.00    +0.000 A 
ATOM     18  C   UNL     1     114.182 125.674 137.277  0.00  0.00    +0.000 A 
ATOM     19  C   UNL     1     113.348 124.225 136.819  0.00  0.00    +0.000 A 
ATOM     20  C   UNL     1     114.147 124.675 137.219  0.00  0.00    +0.000 A 
ENDBRANCH   2  12
BRANCH   3  21
ATOM     21  O   UNL     1     111.871 130.711 138.276  0.00  0.00    +0.000 OA
BRANCH  21  29
ATOM     22  O   UNL     1     113.105 130.598 139.480  0.00  0.00    +0.000 OA
ATOM     23  O   UNL     1     111.049 129.878 141.544  0.00  0.00    +0.000 OA
ATOM     24  O   UNL     1     110.494 130.230 139.651  0.00  0.00    +0.000 OA
ATOM     25  O   UNL     1     112.971 130.006 142.060  0.00  0.00    +0.000 OA
ATOM     26  C   UNL     1     111.729 130.118 140.854  0.00  0.00    +0.000 C 
ATOM     27  C   UNL     1     111.460 130.294 139.910  0.00  0.00    +0.000 C 
ATOM     28  C   UNL     1     112.694 130.182 141.113  0.00  0.00    +0.000 C 
ATOM     29  C   UNL     1     112.140 130.534 139.221  0.00  0.00    +0.000 C 
ATOM     30  C   UNL     1     113.382 130.422 140.427  0.00  0.00    +0.000 C 
BRANCH  30  33
ATOM     31  O   UNL     1     114.725 131.362 140.992  0.00  0.00    +0.000 OA
ATOM     32  O   UNL     1     114.932 129.676 140.639  0.00  0.00    +0.000 OA
ATOM     33  C   UNL     1     114.347 130.486 140.686  0.00  0.00    +0.000 C 
ENDBRANCH  30  33
ENDBRANCH  21  29
ENDBRANCH   3  21
TORSDOF 4
ENDMDL
MODEL 10
REMARK VINA RESULT:      -9.1      9.448     12.511
REMARK  Name = 
REMARK  4 active torsions:
REMARK  status: ('A' for Active; 'I' for Inactive)
REMARK    1  A    between atoms: O_2  and  C_16
REMARK    2  A    between atoms: O_2  and  C_23
REMARK    3  A    between atoms: C_17  and  C_24
REMARK    4  A    between atoms: C_18  and  C_21
REMARK                            x       y       z     vdW  Elec       q    Type
REMARK                         _______ _______ _______ _____ _____    ______ ____
ROOT
ATOM      1  O   UNL     1     114.098 126.622 136.364  0.00  0.00    +0.000 OA
ATOM      2  C   UNL     1     112.473 129.111 136.716  0.00  0.00    +0.000 A 
ATOM      3  C   UNL     1     112.830 127.488 137.169  0.00  0.00    +0.000 A 
ATOM      4  C   UNL     1     112.287 128.322 137.284  0.00  0.00    +0.000 A 
ATOM      5  C   UNL     1     113.194 129.078 136.032  0.00  0.00    +0.000 A 
ATOM      6  C   UNL     1     113.550 127.456 136.485  0.00  0.00    +0.000 A 
ATOM      7  C   UNL     1     113.734 128.257 135.912  0.00  0.00    +0.000 A 
ENDROOT
BRANCH   2  12
ATOM      8  O   UNL     1     111.140 130.115 136.240  0.00  0.00    +0.000 OA
ATOM      9  O   UNL     1     112.968 130.438 138.130  0.00  0.00    +0.000 OA
ATOM     10  O   UNL     1     110.551 133.110 137.887  0.00  0.00    +0.000 OA
ATOM     11  O   UNL     1     108.475 132.123 135.290  0.00  0.00    +0.000 OA
ATOM     12  C   UNL     1     111.931 129.944 136.831  0.00  0.00    +0.000 C 
ATOM     13  C   UNL     1     112.178 130.608 137.539  0.00  0.00    +0.000 C 
ATOM     14  C   UNL     1     111.636 131.442 137.655  0.00  0.00    +0.000 C 
ATOM     15  C   UNL     1     110.846 131.612 137.063  0.00  0.00    +0.000 A 
ATOM     16  C   UNL     1     110.598 130.948 136.356  0.00  0.00    +0.000 A 
ATOM     17  C   UNL     1     110.303 132.446 137.180  0.00  0.00    +0.000 A 
ATOM     18  C   UNL     1     109.808 131.119 135.765  0.00  0.00    +0.000 A 
ATOM     19  C   UNL     1     109.512 132.617 136.588  0.00  0.00    +0.000 A 
ATOM     20  C   UNL     1     109.265 131.953 135.880  0.00  0.00    +0.000 A 
ENDBRANCH   2  12
BRANCH   3  21
ATOM     21  O   UNL     1     112.652 126.687 137.736  0.00  0.00    +0.000 OA
BRANCH  21  29
ATOM     22  O   UNL     1     113.424 127.196 139.196  0.00  0.00    +0.000 OA
ATOM     23  O   UNL     1     111.141 126.097 140.805  0.00  0.00    +0.000 OA
ATOM     24  O   UNL     1     111.125 125.953 138.807  0.00  0.00    +0.000 OA
ATOM     25  O   UNL     1     112.677 126.973 141.729  0.00  0.00    +0.000 OA
ATOM     26  C   UNL     1     111.898 126.461 140.266  0.00  0.00    +0.000 C 
ATOM     27  C   UNL     1     111.896 126.392 139.271  0.00  0.00    +0.000 C 
ATOM     28  C   UNL     1     112.669 126.901 140.730  0.00  0.00    +0.000 C 
ATOM     29  C   UNL     1     112.654 126.756 138.732  0.00  0.00    +0.000 C 
ATOM     30  C   UNL     1     113.432 127.268 140.195  0.00  0.00    +0.000 C 
BRANCH  30  33
ATOM     31  O   UNL     1     114.970 127.153 140.987  0.00  0.00    +0.000 OA
ATOM     32  O   UNL     1     114.205 128.699 140.794  0.00  0.00    +0.000 OA
ATOM     33  C   UNL     1     114.203 127.707 140.659  0.00  0.00    +0.000 C 
ENDBRANCH  30  33
ENDBRANCH  21  29
ENDBRANCH   3  21
TORSDOF 4
ENDMDL
