MODEL 1
REMARK VINA RESULT:      -8.6      0.000      0.000
REMARK  Name = 14483216
REMARK  3 active torsions:
REMARK  status: ('A' for Active; 'I' for Inactive)
REMARK    1  A    between atoms: O_4  and  C_20
REMARK    2  A    between atoms: O_5  and  C_21
REMARK    3  A    between atoms: C_7  and  C_8
REMARK                            x       y       z     vdW  Elec       q    Type
REMARK                         _______ _______ _______ _____ _____    ______ ____
ROOT
ATOM      1  O   UNL     1     104.993 124.111 146.930  0.00  0.00    +0.000 OA
ATOM      2  O   UNL     1     103.130 125.253 148.093  0.00  0.00    +0.000 OA
ATOM      3  C   UNL     1     105.144 124.576 147.595  0.00  0.00    +0.000 A 
ATOM      4  C   UNL     1     103.599 124.408 147.041  0.00  0.00    +0.000 A 
ATOM      5  C   UNL     1     104.220 124.028 146.653  0.00  0.00    +0.000 A 
ATOM      6  C   UNL     1     104.524 124.956 147.983  0.00  0.00    +0.000 A 
ATOM      7  C   UNL     1     103.751 124.872 147.706  0.00  0.00    +0.000 A 
ATOM      8  C   UNL     1     102.790 124.328 146.762  0.00  0.00    +0.000 A 
ATOM      9  C   UNL     1     104.075 123.541 145.960  0.00  0.00    +0.000 A 
ATOM     10  C   UNL     1     102.626 123.846 146.071  0.00  0.00    +0.000 A 
ATOM     11  C   UNL     1     103.272 123.450 145.667  0.00  0.00    +0.000 A 
ENDROOT
BRANCH   3  14
ATOM     12  O   UNL     1     107.293 124.099 149.527  0.00  0.00    +0.000 OA
ATOM     13  O   UNL     1     108.174 124.809 148.833  0.00  0.00    +0.000 OA
ATOM     14  C   UNL     1     105.917 124.659 147.872  0.00  0.00    +0.000 A 
ATOM     15  C   UNL     1     106.915 124.384 148.857  0.00  0.00    +0.000 A 
ATOM     16  C   UNL     1     106.142 124.301 148.580  0.00  0.00    +0.000 A 
ATOM     17  C   UNL     1     107.462 124.826 148.426  0.00  0.00    +0.000 A 
ATOM     18  C   UNL     1     106.465 125.101 147.440  0.00  0.00    +0.000 A 
ATOM     19  C   UNL     1     107.237 125.184 147.718  0.00  0.00    +0.000 A 
ATOM     20  C   UNL     1     108.070 124.362 149.512  0.00  0.00    +0.000 C 
ENDBRANCH   3  14
BRANCH  10  21
ATOM     21  O   UNL     1     101.852 123.764 145.796  0.00  0.00    +0.000 OA
ATOM     22  C   UNL     1     101.218 123.857 146.315  0.00  0.00    +0.000 C 
ENDBRANCH  10  21
BRANCH  11  23
ATOM     23  O   UNL     1     103.124 122.984 145.001  0.00  0.00    +0.000 OA
ATOM     24  C   UNL     1     103.748 122.741 144.520  0.00  0.00    +0.000 C 
ENDBRANCH  11  23
TORSDOF 3
ENDMDL
MODEL 2
REMARK VINA RESULT:      -8.3      1.408      4.666
REMARK  Name = 14483216
REMARK  3 active torsions:
REMARK  status: ('A' for Active; 'I' for Inactive)
REMARK    1  A    between atoms: O_4  and  C_20
REMARK    2  A    between atoms: O_5  and  C_21
REMARK    3  A    between atoms: C_7  and  C_8
REMARK                            x       y       z     vdW  Elec       q    Type
REMARK                         _______ _______ _______ _____ _____    ______ ____
ROOT
ATOM      1  O   UNL     1     104.227 124.717 146.119  0.00  0.00    +0.000 OA
ATOM      2  O   UNL     1     105.265 124.415 148.346  0.00  0.00    +0.000 OA
ATOM      3  C   UNL     1     103.785 124.400 146.741  0.00  0.00    +0.000 A 
ATOM      4  C   UNL     1     105.360 124.831 146.983  0.00  0.00    +0.000 A 
ATOM      5  C   UNL     1     105.014 124.932 146.241  0.00  0.00    +0.000 A 
ATOM      6  C   UNL     1     104.131 124.300 147.484  0.00  0.00    +0.000 A 
ATOM      7  C   UNL     1     104.919 124.515 147.604  0.00  0.00    +0.000 A 
ATOM      8  C   UNL     1     106.179 125.052 147.121  0.00  0.00    +0.000 A 
ATOM      9  C   UNL     1     105.463 125.260 145.585  0.00  0.00    +0.000 A 
ATOM     10  C   UNL     1     106.643 125.381 146.478  0.00  0.00    +0.000 A 
ATOM     11  C   UNL     1     106.283 125.486 145.705  0.00  0.00    +0.000 A 
ENDROOT
BRANCH   3  14
ATOM     12  O   UNL     1     101.685 122.740 145.556  0.00  0.00    +0.000 OA
ATOM     13  O   UNL     1     100.711 123.417 146.153  0.00  0.00    +0.000 OA
ATOM     14  C   UNL     1     102.998 124.185 146.620  0.00  0.00    +0.000 A 
ATOM     15  C   UNL     1     102.029 123.334 146.005  0.00  0.00    +0.000 A 
ATOM     16  C   UNL     1     102.816 123.549 146.127  0.00  0.00    +0.000 A 
ATOM     17  C   UNL     1     101.424 123.754 146.376  0.00  0.00    +0.000 A 
ATOM     18  C   UNL     1     102.393 124.606 146.991  0.00  0.00    +0.000 A 
ATOM     19  C   UNL     1     101.606 124.390 146.869  0.00  0.00    +0.000 A 
ATOM     20  C   UNL     1     100.872 122.791 145.648  0.00  0.00    +0.000 C 
ENDBRANCH   3  14
BRANCH  10  21
ATOM     21  O   UNL     1     107.430 125.596 146.601  0.00  0.00    +0.000 OA
ATOM     22  C   UNL     1     107.790 125.443 147.328  0.00  0.00    +0.000 C 
ENDBRANCH  10  21
BRANCH  11  23
ATOM     23  O   UNL     1     106.722 125.802 145.081  0.00  0.00    +0.000 OA
ATOM     24  C   UNL     1     106.337 126.092 144.411  0.00  0.00    +0.000 C 
ENDBRANCH  11  23
TORSDOF 3
ENDMDL
MODEL 3
REMARK VINA RESULT:      -8.2     12.981     14.101
REMARK  Name = 14483216
REMARK  3 active torsions:
REMARK  status: ('A' for Active; 'I' for Inactive)
REMARK    1  A    between atoms: O_4  and  C_20
REMARK    2  A    between atoms: O_5  and  C_21
REMARK    3  A    between atoms: C_7  and  C_8
REMARK                            x       y       z     vdW  Elec       q    Type
REMARK                         _______ _______ _______ _____ _____    ______ ____
ROOT
ATOM      1  O   UNL     1     112.546 127.245 136.084  0.00  0.00    +0.000 OA
ATOM      2  O   UNL     1     114.057 125.617 137.176  0.00  0.00    +0.000 OA
ATOM      3  C   UNL     1     113.277 127.492 136.377  0.00  0.00    +0.000 A 
ATOM      4  C   UNL     1     112.824 125.912 136.520  0.00  0.00    +0.000 A 
ATOM      5  C   UNL     1     112.320 126.455 136.156  0.00  0.00    +0.000 A 
ATOM      6  C   UNL     1     113.781 126.950 136.741  0.00  0.00    +0.000 A 
ATOM      7  C   UNL     1     113.554 126.160 136.812  0.00  0.00    +0.000 A 
ATOM      8  C   UNL     1     112.598 125.087 136.601  0.00  0.00    +0.000 A 
ATOM      9  C   UNL     1     111.556 126.209 135.848  0.00  0.00    +0.000 A 
ATOM     10  C   UNL     1     111.839 124.823 136.299  0.00  0.00    +0.000 A 
ATOM     11  C   UNL     1     111.314 125.388 135.920  0.00  0.00    +0.000 A 
ENDROOT
BRANCH   3  14
ATOM     12  O   UNL     1     113.352 130.280 137.271  0.00  0.00    +0.000 OA
ATOM     13  O   UNL     1     114.091 130.668 136.238  0.00  0.00    +0.000 OA
ATOM     14  C   UNL     1     113.504 128.282 136.304  0.00  0.00    +0.000 A 
ATOM     15  C   UNL     1     113.496 129.621 136.803  0.00  0.00    +0.000 A 
ATOM     16  C   UNL     1     113.270 128.831 136.875  0.00  0.00    +0.000 A 
ATOM     17  C   UNL     1     113.956 129.862 136.161  0.00  0.00    +0.000 A 
ATOM     18  C   UNL     1     113.963 128.523 135.663  0.00  0.00    +0.000 A 
ATOM     19  C   UNL     1     114.189 129.314 135.592  0.00  0.00    +0.000 A 
ATOM     20  C   UNL     1     113.719 130.925 136.922  0.00  0.00    +0.000 C 
ENDBRANCH   3  14
BRANCH  10  21
ATOM     21  O   UNL     1     111.614 124.032 136.372  0.00  0.00    +0.000 OA
ATOM     22  C   UNL     1     111.991 123.546 136.922  0.00  0.00    +0.000 C 
ENDBRANCH  10  21
BRANCH  11  23
ATOM     23  O   UNL     1     110.582 125.144 135.626  0.00  0.00    +0.000 OA
ATOM     24  C   UNL     1     110.129 125.658 135.168  0.00  0.00    +0.000 C 
ENDBRANCH  11  23
TORSDOF 3
ENDMDL
MODEL 4
REMARK VINA RESULT:      -8.1      0.922      1.845
REMARK  Name = 14483216
REMARK  3 active torsions:
REMARK  status: ('A' for Active; 'I' for Inactive)
REMARK    1  A    between atoms: O_4  and  C_20
REMARK    2  A    between atoms: O_5  and  C_21
REMARK    3  A    between atoms: C_7  and  C_8
REMARK                            x       y       z     vdW  Elec       q    Type
REMARK                         _______ _______ _______ _____ _____    ______ ____
ROOT
ATOM      1  O   UNL     1     104.265 124.677 147.777  0.00  0.00    +0.000 OA
ATOM      2  O   UNL     1     103.987 123.796 145.481  0.00  0.00    +0.000 OA
ATOM      3  C   UNL     1     104.928 124.534 147.306  0.00  0.00    +0.000 A 
ATOM      4  C   UNL     1     103.417 124.232 146.716  0.00  0.00    +0.000 A 
ATOM      5  C   UNL     1     103.510 124.526 147.481  0.00  0.00    +0.000 A 
ATOM      6  C   UNL     1     104.836 124.241 146.541  0.00  0.00    +0.000 A 
ATOM      7  C   UNL     1     104.080 124.090 146.246  0.00  0.00    +0.000 A 
ATOM      8  C   UNL     1     102.635 124.071 146.397  0.00  0.00    +0.000 A 
ATOM      9  C   UNL     1     102.827 124.679 147.981  0.00  0.00    +0.000 A 
ATOM     10  C   UNL     1     101.942 124.217 146.882  0.00  0.00    +0.000 A 
ATOM     11  C   UNL     1     102.038 124.523 147.679  0.00  0.00    +0.000 A 
ENDROOT
BRANCH   3  14
ATOM     12  O   UNL     1     107.094 124.177 149.244  0.00  0.00    +0.000 OA
ATOM     13  O   UNL     1     107.898 125.025 148.613  0.00  0.00    +0.000 OA
ATOM     14  C   UNL     1     105.683 124.686 147.602  0.00  0.00    +0.000 A 
ATOM     15  C   UNL     1     106.694 124.461 148.587  0.00  0.00    +0.000 A 
ATOM     16  C   UNL     1     105.939 124.309 148.291  0.00  0.00    +0.000 A 
ATOM     17  C   UNL     1     107.194 124.987 148.194  0.00  0.00    +0.000 A 
ATOM     18  C   UNL     1     106.183 125.213 147.210  0.00  0.00    +0.000 A 
ATOM     19  C   UNL     1     106.938 125.363 147.507  0.00  0.00    +0.000 A 
ATOM     20  C   UNL     1     107.836 124.525 149.260  0.00  0.00    +0.000 C 
ENDBRANCH   3  14
BRANCH  10  21
ATOM     21  O   UNL     1     101.188 124.065 146.584  0.00  0.00    +0.000 OA
ATOM     22  C   UNL     1     101.082 123.489 146.004  0.00  0.00    +0.000 C 
ENDBRANCH  10  21
BRANCH  11  23
ATOM     23  O   UNL     1     101.377 124.667 148.152  0.00  0.00    +0.000 OA
ATOM     24  C   UNL     1     101.460 125.079 148.862  0.00  0.00    +0.000 C 
ENDBRANCH  11  23
TORSDOF 3
ENDMDL
MODEL 5
REMARK VINA RESULT:      -8.0     13.790     14.892
REMARK  Name = 14483216
REMARK  3 active torsions:
REMARK  status: ('A' for Active; 'I' for Inactive)
REMARK    1  A    between atoms: O_4  and  C_20
REMARK    2  A    between atoms: O_5  and  C_21
REMARK    3  A    between atoms: C_7  and  C_8
REMARK                            x       y       z     vdW  Elec       q    Type
REMARK                         _______ _______ _______ _____ _____    ______ ____
ROOT
ATOM      1  O   UNL     1     113.879 127.654 136.333  0.00  0.00    +0.000 OA
ATOM      2  O   UNL     1     111.456 127.598 135.832  0.00  0.00    +0.000 OA
ATOM      3  C   UNL     1     113.495 128.337 136.073  0.00  0.00    +0.000 A 
ATOM      4  C   UNL     1     112.647 126.934 136.259  0.00  0.00    +0.000 A 
ATOM      5  C   UNL     1     113.454 126.953 136.426  0.00  0.00    +0.000 A 
ATOM      6  C   UNL     1     112.687 128.318 135.905  0.00  0.00    +0.000 A 
ATOM      7  C   UNL     1     112.264 127.616 135.999  0.00  0.00    +0.000 A 
ATOM      8  C   UNL     1     112.194 126.209 136.352  0.00  0.00    +0.000 A 
ATOM      9  C   UNL     1     113.865 126.249 136.698  0.00  0.00    +0.000 A 
ATOM     10  C   UNL     1     112.587 125.496 136.623  0.00  0.00    +0.000 A 
ATOM     11  C   UNL     1     113.428 125.515 136.797  0.00  0.00    +0.000 A 
ENDROOT
BRANCH   3  14
ATOM     12  O   UNL     1     115.297 130.125 134.612  0.00  0.00    +0.000 OA
ATOM     13  O   UNL     1     115.243 131.065 135.549  0.00  0.00    +0.000 OA
ATOM     14  C   UNL     1     113.920 129.038 135.980  0.00  0.00    +0.000 A 
ATOM     15  C   UNL     1     114.804 129.856 135.210  0.00  0.00    +0.000 A 
ATOM     16  C   UNL     1     114.379 129.155 135.303  0.00  0.00    +0.000 A 
ATOM     17  C   UNL     1     114.770 130.440 135.792  0.00  0.00    +0.000 A 
ATOM     18  C   UNL     1     113.886 129.622 136.561  0.00  0.00    +0.000 A 
ATOM     19  C   UNL     1     114.311 130.323 136.467  0.00  0.00    +0.000 A 
ATOM     20  C   UNL     1     115.567 130.870 134.822  0.00  0.00    +0.000 C 
ENDBRANCH   3  14
BRANCH  10  21
ATOM     21  O   UNL     1     112.161 124.796 136.715  0.00  0.00    +0.000 OA
ATOM     22  C   UNL     1     111.478 124.667 136.271  0.00  0.00    +0.000 C 
ENDBRANCH  10  21
BRANCH  11  23
ATOM     23  O   UNL     1     113.815 124.834 137.058  0.00  0.00    +0.000 OA
ATOM     24  C   UNL     1     114.597 124.877 137.318  0.00  0.00    +0.000 C 
ENDBRANCH  11  23
TORSDOF 3
ENDMDL
MODEL 6
REMARK VINA RESULT:      -8.0      8.196      9.479
REMARK  Name = 14483216
REMARK  3 active torsions:
REMARK  status: ('A' for Active; 'I' for Inactive)
REMARK    1  A    between atoms: O_4  and  C_20
REMARK    2  A    between atoms: O_5  and  C_21
REMARK    3  A    between atoms: C_7  and  C_8
REMARK                            x       y       z     vdW  Elec       q    Type
REMARK                         _______ _______ _______ _____ _____    ______ ____
ROOT
ATOM      1  O   UNL     1     102.942 130.603 142.328  0.00  0.00    +0.000 OA
ATOM      2  O   UNL     1     102.938 129.301 140.223  0.00  0.00    +0.000 OA
ATOM      3  C   UNL     1     102.465 130.840 141.697  0.00  0.00    +0.000 A 
ATOM      4  C   UNL     1     103.415 129.499 141.555  0.00  0.00    +0.000 A 
ATOM      5  C   UNL     1     103.417 129.932 142.256  0.00  0.00    +0.000 A 
ATOM      6  C   UNL     1     102.464 130.406 140.996  0.00  0.00    +0.000 A 
ATOM      7  C   UNL     1     102.939 129.735 140.925  0.00  0.00    +0.000 A 
ATOM      8  C   UNL     1     103.906 128.798 141.469  0.00  0.00    +0.000 A 
ATOM      9  C   UNL     1     103.909 129.696 142.920  0.00  0.00    +0.000 A 
ATOM     10  C   UNL     1     104.404 128.546 142.122  0.00  0.00    +0.000 A 
ATOM     11  C   UNL     1     104.406 128.998 142.852  0.00  0.00    +0.000 A 
ENDROOT
BRANCH   3  14
ATOM     12  O   UNL     1     101.947 133.711 141.447  0.00  0.00    +0.000 OA
ATOM     13  O   UNL     1     100.710 133.604 141.919  0.00  0.00    +0.000 OA
ATOM     14  C   UNL     1     101.991 131.511 141.769  0.00  0.00    +0.000 A 
ATOM     15  C   UNL     1     101.811 132.921 141.619  0.00  0.00    +0.000 A 
ATOM     16  C   UNL     1     102.285 132.250 141.547  0.00  0.00    +0.000 A 
ATOM     17  C   UNL     1     101.042 132.854 141.912  0.00  0.00    +0.000 A 
ATOM     18  C   UNL     1     101.223 131.444 142.062  0.00  0.00    +0.000 A 
ATOM     19  C   UNL     1     100.749 132.116 142.134  0.00  0.00    +0.000 A 
ATOM     20  C   UNL     1     101.268 134.132 141.632  0.00  0.00    +0.000 C 
ENDBRANCH   3  14
BRANCH  10  21
ATOM     21  O   UNL     1     104.878 127.875 142.048  0.00  0.00    +0.000 OA
ATOM     22  C   UNL     1     104.839 127.416 141.363  0.00  0.00    +0.000 C 
ENDBRANCH  10  21
BRANCH  11  23
ATOM     23  O   UNL     1     104.881 128.764 143.485  0.00  0.00    +0.000 OA
ATOM     24  C   UNL     1     104.901 129.215 144.176  0.00  0.00    +0.000 C 
ENDBRANCH  11  23
TORSDOF 3
ENDMDL
MODEL 7
REMARK VINA RESULT:      -7.8      9.459     10.386
REMARK  Name = 14483216
REMARK  3 active torsions:
REMARK  status: ('A' for Active; 'I' for Inactive)
REMARK    1  A    between atoms: O_4  and  C_20
REMARK    2  A    between atoms: O_5  and  C_21
REMARK    3  A    between atoms: C_7  and  C_8
REMARK                            x       y       z     vdW  Elec       q    Type
REMARK                         _______ _______ _______ _____ _____    ______ ____
ROOT
ATOM      1  O   UNL     1     102.693 132.004 141.196  0.00  0.00    +0.000 OA
ATOM      2  O   UNL     1     100.710 132.156 142.669  0.00  0.00    +0.000 OA
ATOM      3  C   UNL     1     102.333 131.316 141.477  0.00  0.00    +0.000 A 
ATOM      4  C   UNL     1     101.730 132.792 141.897  0.00  0.00    +0.000 A 
ATOM      5  C   UNL     1     102.391 132.742 141.406  0.00  0.00    +0.000 A 
ATOM      6  C   UNL     1     101.672 131.366 141.968  0.00  0.00    +0.000 A 
ATOM      7  C   UNL     1     101.371 132.105 142.178  0.00  0.00    +0.000 A 
ATOM      8  C   UNL     1     101.406 133.556 142.124  0.00  0.00    +0.000 A 
ATOM      9  C   UNL     1     102.774 133.451 141.108  0.00  0.00    +0.000 A 
ATOM     10  C   UNL     1     101.776 134.276 141.834  0.00  0.00    +0.000 A 
ATOM     11  C   UNL     1     102.464 134.223 141.323  0.00  0.00    +0.000 A 
ENDROOT
BRANCH   3  14
ATOM     12  O   UNL     1     104.126 129.028 141.836  0.00  0.00    +0.000 OA
ATOM     13  O   UNL     1     103.644 128.390 140.775  0.00  0.00    +0.000 OA
ATOM     14  C   UNL     1     102.636 130.578 141.266  0.00  0.00    +0.000 A 
ATOM     15  C   UNL     1     103.540 129.497 141.504  0.00  0.00    +0.000 A 
ATOM     16  C   UNL     1     103.238 130.235 141.715  0.00  0.00    +0.000 A 
ATOM     17  C   UNL     1     103.241 129.101 140.846  0.00  0.00    +0.000 A 
ATOM     18  C   UNL     1     102.336 130.181 140.607  0.00  0.00    +0.000 A 
ATOM     19  C   UNL     1     102.640 129.443 140.397  0.00  0.00    +0.000 A 
ATOM     20  C   UNL     1     104.190 128.346 141.386  0.00  0.00    +0.000 C 
ENDBRANCH   3  14
BRANCH  10  21
ATOM     21  O   UNL     1     101.472 135.013 142.046  0.00  0.00    +0.000 OA
ATOM     22  C   UNL     1     101.157 135.128 142.800  0.00  0.00    +0.000 C 
ENDBRANCH  10  21
BRANCH  11  23
ATOM     23  O   UNL     1     102.826 134.909 141.040  0.00  0.00    +0.000 OA
ATOM     24  C   UNL     1     103.371 134.864 140.423  0.00  0.00    +0.000 C 
ENDBRANCH  11  23
TORSDOF 3
ENDMDL
MODEL 8
REMARK VINA RESULT:      -7.8     11.010     12.880
REMARK  Name = 14483216
REMARK  3 active torsions:
REMARK  status: ('A' for Active; 'I' for Inactive)
REMARK    1  A    between atoms: O_4  and  C_20
REMARK    2  A    between atoms: O_5  and  C_21
REMARK    3  A    between atoms: C_7  and  C_8
REMARK                            x       y       z     vdW  Elec       q    Type
REMARK                         _______ _______ _______ _____ _____    ______ ____
ROOT
ATOM      1  O   UNL     1     111.950 126.131 138.297  0.00  0.00    +0.000 OA
ATOM      2  O   UNL     1     114.417 125.986 138.155  0.00  0.00    +0.000 OA
ATOM      3  C   UNL     1     112.309 125.879 137.598  0.00  0.00    +0.000 A 
ATOM      4  C   UNL     1     113.236 126.285 138.901  0.00  0.00    +0.000 A 
ATOM      5  C   UNL     1     112.414 126.334 138.949  0.00  0.00    +0.000 A 
ATOM      6  C   UNL     1     113.131 125.831 137.550  0.00  0.00    +0.000 A 
ATOM      7  C   UNL     1     113.594 126.034 138.203  0.00  0.00    +0.000 A 
ATOM      8  C   UNL     1     113.730 126.494 139.573  0.00  0.00    +0.000 A 
ATOM      9  C   UNL     1     112.028 126.594 139.672  0.00  0.00    +0.000 A 
ATOM     10  C   UNL     1     113.362 126.757 140.304  0.00  0.00    +0.000 A 
ATOM     11  C   UNL     1     112.506 126.807 140.353  0.00  0.00    +0.000 A 
ENDROOT
BRANCH   3  14
ATOM     12  O   UNL     1     110.739 126.517 135.209  0.00  0.00    +0.000 OA
ATOM     13  O   UNL     1     110.453 125.243 134.968  0.00  0.00    +0.000 OA
ATOM     14  C   UNL     1     111.845 125.676 136.947  0.00  0.00    +0.000 A 
ATOM     15  C   UNL     1     111.095 126.063 135.794  0.00  0.00    +0.000 A 
ATOM     16  C   UNL     1     111.559 126.266 136.445  0.00  0.00    +0.000 A 
ATOM     17  C   UNL     1     110.917 125.272 135.644  0.00  0.00    +0.000 A 
ATOM     18  C   UNL     1     111.667 124.885 136.797  0.00  0.00    +0.000 A 
ATOM     19  C   UNL     1     111.203 124.683 136.145  0.00  0.00    +0.000 A 
ATOM     20  C   UNL     1     110.344 126.010 134.700  0.00  0.00    +0.000 C 
ENDBRANCH   3  14
BRANCH  10  21
ATOM     21  O   UNL     1     113.828 126.959 140.954  0.00  0.00    +0.000 OA
ATOM     22  C   UNL     1     114.608 127.202 140.842  0.00  0.00    +0.000 C 
ENDBRANCH  10  21
BRANCH  11  23
ATOM     23  O   UNL     1     112.143 127.058 141.051  0.00  0.00    +0.000 OA
ATOM     24  C   UNL     1     111.332 126.951 141.157  0.00  0.00    +0.000 C 
ENDBRANCH  11  23
TORSDOF 3
ENDMDL
MODEL 9
REMARK VINA RESULT:      -7.7     13.240     14.367
REMARK  Name = 14483216
REMARK  3 active torsions:
REMARK  status: ('A' for Active; 'I' for Inactive)
REMARK    1  A    between atoms: O_4  and  C_20
REMARK    2  A    between atoms: O_5  and  C_21
REMARK    3  A    between atoms: C_7  and  C_8
REMARK                            x       y       z     vdW  Elec       q    Type
REMARK                         _______ _______ _______ _____ _____    ______ ____
ROOT
ATOM      1  O   UNL     1     113.665 127.223 136.529  0.00  0.00    +0.000 OA
ATOM      2  O   UNL     1     111.326 126.747 135.872  0.00  0.00    +0.000 OA
ATOM      3  C   UNL     1     113.183 127.831 136.248  0.00  0.00    +0.000 A 
ATOM      4  C   UNL     1     112.587 126.297 136.372  0.00  0.00    +0.000 A 
ATOM      5  C   UNL     1     113.366 126.456 136.591  0.00  0.00    +0.000 A 
ATOM      6  C   UNL     1     112.403 127.672 136.029  0.00  0.00    +0.000 A 
ATOM      7  C   UNL     1     112.106 126.905 136.091  0.00  0.00    +0.000 A 
ATOM      8  C   UNL     1     112.265 125.503 136.432  0.00  0.00    +0.000 A 
ATOM      9  C   UNL     1     113.877 125.831 136.886  0.00  0.00    +0.000 A 
ATOM     10  C   UNL     1     112.761 124.865 136.724  0.00  0.00    +0.000 A 
ATOM     11  C   UNL     1     113.573 125.030 136.952  0.00  0.00    +0.000 A 
ENDROOT
BRANCH   3  14
ATOM     12  O   UNL     1     113.623 130.550 137.242  0.00  0.00    +0.000 OA
ATOM     13  O   UNL     1     114.302 130.914 136.160  0.00  0.00    +0.000 OA
ATOM     14  C   UNL     1     113.481 128.598 136.186  0.00  0.00    +0.000 A 
ATOM     15  C   UNL     1     113.656 129.905 136.736  0.00  0.00    +0.000 A 
ATOM     16  C   UNL     1     113.358 129.138 136.798  0.00  0.00    +0.000 A 
ATOM     17  C   UNL     1     114.078 130.131 136.064  0.00  0.00    +0.000 A 
ATOM     18  C   UNL     1     113.903 128.824 135.514  0.00  0.00    +0.000 A 
ATOM     19  C   UNL     1     114.201 129.591 135.454  0.00  0.00    +0.000 A 
ATOM     20  C   UNL     1     114.021 131.172 136.886  0.00  0.00    +0.000 C 
ENDBRANCH   3  14
BRANCH  10  21
ATOM     21  O   UNL     1     112.461 124.099 136.785  0.00  0.00    +0.000 OA
ATOM     22  C   UNL     1     111.750 123.904 136.414  0.00  0.00    +0.000 C 
ENDBRANCH  10  21
BRANCH  11  23
ATOM     23  O   UNL     1     114.057 124.424 137.234  0.00  0.00    +0.000 OA
ATOM     24  C   UNL     1     114.833 124.588 137.463  0.00  0.00    +0.000 C 
ENDBRANCH  11  23
TORSDOF 3
ENDMDL
MODEL 10
REMARK VINA RESULT:      -7.7     13.051     14.382
REMARK  Name = 14483216
REMARK  3 active torsions:
REMARK  status: ('A' for Active; 'I' for Inactive)
REMARK    1  A    between atoms: O_4  and  C_20
REMARK    2  A    between atoms: O_5  and  C_21
REMARK    3  A    between atoms: C_7  and  C_8
REMARK                            x       y       z     vdW  Elec       q    Type
REMARK                         _______ _______ _______ _____ _____    ______ ____
ROOT
ATOM      1  O   UNL     1     113.543 127.252 136.396  0.00  0.00    +0.000 OA
ATOM      2  O   UNL     1     112.707 128.497 138.364  0.00  0.00    +0.000 OA
ATOM      3  C   UNL     1     113.190 126.846 137.022  0.00  0.00    +0.000 A 
ATOM      4  C   UNL     1     113.338 128.488 137.083  0.00  0.00    +0.000 A 
ATOM      5  C   UNL     1     113.617 128.073 136.427  0.00  0.00    +0.000 A 
ATOM      6  C   UNL     1     112.911 127.261 137.678  0.00  0.00    +0.000 A 
ATOM      7  C   UNL     1     112.986 128.082 137.708  0.00  0.00    +0.000 A 
ATOM      8  C   UNL     1     113.410 129.343 137.127  0.00  0.00    +0.000 A 
ATOM      9  C   UNL     1     113.987 128.484 135.769  0.00  0.00    +0.000 A 
ATOM     10  C   UNL     1     113.776 129.771 136.479  0.00  0.00    +0.000 A 
ATOM     11  C   UNL     1     114.067 129.339 135.795  0.00  0.00    +0.000 A 
ENDROOT
BRANCH   3  14
ATOM     12  O   UNL     1     111.693 124.374 136.548  0.00  0.00    +0.000 OA
ATOM     13  O   UNL     1     112.730 123.601 136.849  0.00  0.00    +0.000 OA
ATOM     14  C   UNL     1     113.116 126.025 136.991  0.00  0.00    +0.000 A 
ATOM     15  C   UNL     1     112.323 124.863 136.741  0.00  0.00    +0.000 A 
ATOM     16  C   UNL     1     112.397 125.684 136.773  0.00  0.00    +0.000 A 
ATOM     17  C   UNL     1     112.967 124.383 136.929  0.00  0.00    +0.000 A 
ATOM     18  C   UNL     1     113.760 125.545 137.179  0.00  0.00    +0.000 A 
ATOM     19  C   UNL     1     113.685 124.723 137.147  0.00  0.00    +0.000 A 
ATOM     20  C   UNL     1     111.944 123.597 136.614  0.00  0.00    +0.000 C 
ENDBRANCH   3  14
BRANCH  10  21
ATOM     21  O   UNL     1     113.849 130.593 136.512  0.00  0.00    +0.000 OA
ATOM     22  C   UNL     1     113.347 131.032 136.996  0.00  0.00    +0.000 C 
ENDBRANCH  10  21
BRANCH  11  23
ATOM     23  O   UNL     1     114.421 129.742 135.168  0.00  0.00    +0.000 OA
ATOM     24  C   UNL     1     114.873 129.329 134.615  0.00  0.00    +0.000 C 
ENDBRANCH  11  23
TORSDOF 3
ENDMDL
