MODEL 1
REMARK VINA RESULT:      -9.4      0.000      0.000
REMARK  Name = 42607562
REMARK  10 active torsions:
REMARK  status: ('A' for Active; 'I' for Inactive)
REMARK    1  A    between atoms: O_4  and  C_18
REMARK    2  A    between atoms: O_4  and  C_20
REMARK    3  A    between atoms: O_6  and  C_19
REMARK    4  A    between atoms: O_6  and  C_23
REMARK    5  A    between atoms: C_16  and  C_19
REMARK    6  A    between atoms: C_23  and  C_27
REMARK    7  A    between atoms: C_26  and  C_28
REMARK    8  A    between atoms: C_28  and  C_30
REMARK    9  A    between atoms: C_29  and  C_31
REMARK   10  A    between atoms: C_32  and  C_35
REMARK                            x       y       z     vdW  Elec       q    Type
REMARK                         _______ _______ _______ _____ _____    ______ ____
ROOT
ATOM      1  O   UNL     1     112.481 125.874 137.012  0.00  0.00    +0.000 OA
ATOM      2  O   UNL     1     114.440 125.310 136.232  0.00  0.00    +0.000 OA
ATOM      3  O   UNL     1     113.722 123.831 136.371  0.00  0.00    +0.000 OA
ATOM      4  O   UNL     1     112.177 123.714 136.938  0.00  0.00    +0.000 OA
ATOM      5  C   UNL     1     113.668 125.251 136.515  0.00  0.00    +0.000 C 
ATOM      6  C   UNL     1     113.309 124.512 136.585  0.00  0.00    +0.000 C 
ATOM      7  C   UNL     1     113.255 125.932 136.729  0.00  0.00    +0.000 C 
ATOM      8  C   UNL     1     112.537 124.453 136.868  0.00  0.00    +0.000 C 
ATOM      9  C   UNL     1     112.123 125.134 137.082  0.00  0.00    +0.000 C 
ENDROOT
BRANCH   9  10
ATOM     10  O   UNL     1     111.350 125.076 137.366  0.00  0.00    +0.000 OA
BRANCH  10  13
ATOM     11  O   UNL     1     110.488 125.960 138.460  0.00  0.00    +0.000 OA
ATOM     12  O   UNL     1     109.336 127.021 137.940  0.00  0.00    +0.000 OA
ATOM     13  C   UNL     1     110.774 125.606 137.106  0.00  0.00    +0.000 A 
ATOM     14  C   UNL     1     110.343 126.048 137.654  0.00  0.00    +0.000 A 
ATOM     15  C   UNL     1     110.629 125.695 136.299  0.00  0.00    +0.000 A 
ATOM     16  C   UNL     1     109.767 126.579 137.394  0.00  0.00    +0.000 A 
ATOM     17  C   UNL     1     110.053 126.225 136.039  0.00  0.00    +0.000 A 
ATOM     18  C   UNL     1     109.622 126.667 136.586  0.00  0.00    +0.000 A 
BRANCH  18  20
ATOM     19  O   UNL     1     108.256 126.962 136.289  0.00  0.00    +0.000 OA
ATOM     20  C   UNL     1     109.046 127.197 136.326  0.00  0.00    +0.000 C 
BRANCH  20  21
ATOM     21  C   UNL     1     109.260 127.962 136.103  0.00  0.00    +0.000 C 
ATOM     22  C   UNL     1     108.701 128.463 135.760  0.00  0.00    +0.000 C 
BRANCH  22  25
ATOM     23  O   UNL     1     108.571 131.288 136.170  0.00  0.00    +0.000 OA
ATOM     24  O   UNL     1     109.557 131.523 134.867  0.00  0.00    +0.000 OA
ATOM     25  C   UNL     1     108.915 129.229 135.537  0.00  0.00    +0.000 A 
ATOM     26  C   UNL     1     108.636 129.876 135.965  0.00  0.00    +0.000 A 
ATOM     27  C   UNL     1     109.408 129.346 134.886  0.00  0.00    +0.000 A 
ATOM     28  C   UNL     1     108.850 130.641 135.742  0.00  0.00    +0.000 A 
ATOM     29  C   UNL     1     109.622 130.110 134.662  0.00  0.00    +0.000 A 
ATOM     30  C   UNL     1     109.343 130.758 135.091  0.00  0.00    +0.000 A 
ENDBRANCH  22  25
ENDBRANCH  20  21
ENDBRANCH  18  20
ENDBRANCH  10  13
ENDBRANCH   9  10
BRANCH   7  31
ATOM     31  C   UNL     1     113.613 126.672 136.659  0.00  0.00    +0.000 C 
BRANCH  31  32
ATOM     32  O   UNL     1     113.182 127.313 136.366  0.00  0.00    +0.000 OA
BRANCH  32  34
ATOM     33  O   UNL     1     114.158 128.273 135.958  0.00  0.00    +0.000 OA
ATOM     34  C   UNL     1     113.497 128.074 136.408  0.00  0.00    +0.000 C 
BRANCH  34  35
ATOM     35  C   UNL     1     113.149 128.637 136.902  0.00  0.00    +0.000 C 
ATOM     36  C   UNL     1     112.738 129.274 136.576  0.00  0.00    +0.000 C 
BRANCH  36  38
ATOM     37  O   UNL     1     111.350 131.525 138.549  0.00  0.00    +0.000 OA
ATOM     38  C   UNL     1     112.391 129.836 137.069  0.00  0.00    +0.000 A 
ATOM     39  C   UNL     1     111.920 129.595 137.702  0.00  0.00    +0.000 A 
ATOM     40  C   UNL     1     112.516 130.640 136.930  0.00  0.00    +0.000 A 
ATOM     41  C   UNL     1     111.573 130.159 138.195  0.00  0.00    +0.000 A 
ATOM     42  C   UNL     1     112.168 131.202 137.423  0.00  0.00    +0.000 A 
ATOM     43  C   UNL     1     111.697 130.961 138.056  0.00  0.00    +0.000 A 
ENDBRANCH  36  38
ENDBRANCH  34  35
ENDBRANCH  32  34
ENDBRANCH  31  32
ENDBRANCH   7  31
TORSDOF 10
ENDMDL
MODEL 2
REMARK VINA RESULT:      -9.0      1.680      5.048
REMARK  Name = 42607562
REMARK  10 active torsions:
REMARK  status: ('A' for Active; 'I' for Inactive)
REMARK    1  A    between atoms: O_4  and  C_18
REMARK    2  A    between atoms: O_4  and  C_20
REMARK    3  A    between atoms: O_6  and  C_19
REMARK    4  A    between atoms: O_6  and  C_23
REMARK    5  A    between atoms: C_16  and  C_19
REMARK    6  A    between atoms: C_23  and  C_27
REMARK    7  A    between atoms: C_26  and  C_28
REMARK    8  A    between atoms: C_28  and  C_30
REMARK    9  A    between atoms: C_29  and  C_31
REMARK   10  A    between atoms: C_32  and  C_35
REMARK                            x       y       z     vdW  Elec       q    Type
REMARK                         _______ _______ _______ _____ _____    ______ ____
ROOT
ATOM      1  O   UNL     1     110.152 129.305 136.589  0.00  0.00    +0.000 OA
ATOM      2  O   UNL     1     110.646 131.384 136.147  0.00  0.00    +0.000 OA
ATOM      3  O   UNL     1     109.343 131.157 135.160  0.00  0.00    +0.000 OA
ATOM      4  O   UNL     1     108.579 129.695 135.126  0.00  0.00    +0.000 OA
ATOM      5  C   UNL     1     110.264 130.654 136.130  0.00  0.00    +0.000 C 
ATOM      6  C   UNL     1     109.613 130.540 135.636  0.00  0.00    +0.000 C 
ATOM      7  C   UNL     1     110.534 130.037 136.606  0.00  0.00    +0.000 C 
ATOM      8  C   UNL     1     109.231 129.809 135.619  0.00  0.00    +0.000 C 
ATOM      9  C   UNL     1     109.501 129.192 136.095  0.00  0.00    +0.000 C 
ENDROOT
BRANCH   9  10
ATOM     10  O   UNL     1     109.118 128.460 136.078  0.00  0.00    +0.000 OA
BRANCH  10  13
ATOM     11  O   UNL     1     108.922 127.311 137.246  0.00  0.00    +0.000 OA
ATOM     12  O   UNL     1     109.807 125.919 137.191  0.00  0.00    +0.000 OA
ATOM     13  C   UNL     1     109.561 127.764 136.051  0.00  0.00    +0.000 A 
ATOM     14  C   UNL     1     109.462 127.190 136.635  0.00  0.00    +0.000 A 
ATOM     15  C   UNL     1     110.101 127.643 135.439  0.00  0.00    +0.000 A 
ATOM     16  C   UNL     1     109.904 126.494 136.607  0.00  0.00    +0.000 A 
ATOM     17  C   UNL     1     110.543 126.947 135.412  0.00  0.00    +0.000 A 
ATOM     18  C   UNL     1     110.445 126.372 135.995  0.00  0.00    +0.000 A 
BRANCH  18  20
ATOM     19  O   UNL     1     110.597 125.020 135.561  0.00  0.00    +0.000 OA
ATOM     20  C   UNL     1     110.887 125.676 135.968  0.00  0.00    +0.000 C 
BRANCH  20  21
ATOM     21  C   UNL     1     111.619 125.638 136.346  0.00  0.00    +0.000 C 
ATOM     22  C   UNL     1     112.182 125.088 136.099  0.00  0.00    +0.000 C 
BRANCH  22  25
ATOM     23  O   UNL     1     114.896 125.951 136.333  0.00  0.00    +0.000 OA
ATOM     24  O   UNL     1     115.111 124.932 137.613  0.00  0.00    +0.000 OA
ATOM     25  C   UNL     1     112.915 125.049 136.478  0.00  0.00    +0.000 A 
ATOM     26  C   UNL     1     113.539 125.519 136.216  0.00  0.00    +0.000 A 
ATOM     27  C   UNL     1     113.022 124.539 137.118  0.00  0.00    +0.000 A 
ATOM     28  C   UNL     1     114.272 125.480 136.595  0.00  0.00    +0.000 A 
ATOM     29  C   UNL     1     113.754 124.500 137.497  0.00  0.00    +0.000 A 
ATOM     30  C   UNL     1     114.379 124.971 137.235  0.00  0.00    +0.000 A 
ENDBRANCH  22  25
ENDBRANCH  20  21
ENDBRANCH  18  20
ENDBRANCH  10  13
ENDBRANCH   9  10
BRANCH   7  31
ATOM     31  C   UNL     1     111.185 130.149 137.099  0.00  0.00    +0.000 C 
BRANCH  31  32
ATOM     32  O   UNL     1     111.760 129.560 137.165  0.00  0.00    +0.000 OA
BRANCH  32  34
ATOM     33  O   UNL     1     112.888 130.160 137.805  0.00  0.00    +0.000 OA
ATOM     34  C   UNL     1     112.301 129.580 137.787  0.00  0.00    +0.000 C 
BRANCH  34  35
ATOM     35  C   UNL     1     112.256 129.020 138.391  0.00  0.00    +0.000 C 
ATOM     36  C   UNL     1     112.847 128.450 138.469  0.00  0.00    +0.000 C 
BRANCH  36  38
ATOM     37  O   UNL     1     112.662 126.209 140.885  0.00  0.00    +0.000 OA
ATOM     38  C   UNL     1     112.802 127.890 139.073  0.00  0.00    +0.000 A 
ATOM     39  C   UNL     1     113.475 127.697 139.509  0.00  0.00    +0.000 A 
ATOM     40  C   UNL     1     112.082 127.522 139.241  0.00  0.00    +0.000 A 
ATOM     41  C   UNL     1     113.428 127.137 140.113  0.00  0.00    +0.000 A 
ATOM     42  C   UNL     1     112.036 126.962 139.845  0.00  0.00    +0.000 A 
ATOM     43  C   UNL     1     112.709 126.770 140.281  0.00  0.00    +0.000 A 
ENDBRANCH  36  38
ENDBRANCH  34  35
ENDBRANCH  32  34
ENDBRANCH  31  32
ENDBRANCH   7  31
TORSDOF 10
ENDMDL
MODEL 3
REMARK VINA RESULT:      -9.0      1.333      3.579
REMARK  Name = 42607562
REMARK  10 active torsions:
REMARK  status: ('A' for Active; 'I' for Inactive)
REMARK    1  A    between atoms: O_4  and  C_18
REMARK    2  A    between atoms: O_4  and  C_20
REMARK    3  A    between atoms: O_6  and  C_19
REMARK    4  A    between atoms: O_6  and  C_23
REMARK    5  A    between atoms: C_16  and  C_19
REMARK    6  A    between atoms: C_23  and  C_27
REMARK    7  A    between atoms: C_26  and  C_28
REMARK    8  A    between atoms: C_28  and  C_30
REMARK    9  A    between atoms: C_29  and  C_31
REMARK   10  A    between atoms: C_32  and  C_35
REMARK                            x       y       z     vdW  Elec       q    Type
REMARK                         _______ _______ _______ _____ _____    ______ ____
ROOT
ATOM      1  O   UNL     1     112.440 125.681 136.264  0.00  0.00    +0.000 OA
ATOM      2  O   UNL     1     111.616 123.667 136.437  0.00  0.00    +0.000 OA
ATOM      3  O   UNL     1     113.121 123.443 137.075  0.00  0.00    +0.000 OA
ATOM      4  O   UNL     1     114.173 124.712 137.173  0.00  0.00    +0.000 OA
ATOM      5  C   UNL     1     112.142 124.300 136.486  0.00  0.00    +0.000 C 
ATOM      6  C   UNL     1     112.894 124.189 136.805  0.00  0.00    +0.000 C 
ATOM      7  C   UNL     1     111.915 125.046 136.215  0.00  0.00    +0.000 C 
ATOM      8  C   UNL     1     113.420 124.823 136.854  0.00  0.00    +0.000 C 
ATOM      9  C   UNL     1     113.193 125.568 136.583  0.00  0.00    +0.000 C 
ENDROOT
BRANCH   9  10
ATOM     10  O   UNL     1     113.719 126.203 136.632  0.00  0.00    +0.000 OA
BRANCH  10  13
ATOM     11  O   UNL     1     113.907 127.596 135.769  0.00  0.00    +0.000 OA
ATOM     12  O   UNL     1     113.408 129.035 136.404  0.00  0.00    +0.000 OA
ATOM     13  C   UNL     1     113.469 126.922 136.950  0.00  0.00    +0.000 A 
ATOM     14  C   UNL     1     113.564 127.619 136.518  0.00  0.00    +0.000 A 
ATOM     15  C   UNL     1     113.125 126.945 137.699  0.00  0.00    +0.000 A 
ATOM     16  C   UNL     1     113.314 128.338 136.835  0.00  0.00    +0.000 A 
ATOM     17  C   UNL     1     112.876 127.664 138.017  0.00  0.00    +0.000 A 
ATOM     18  C   UNL     1     112.970 128.361 137.586  0.00  0.00    +0.000 A 
BRANCH  18  20
ATOM     19  O   UNL     1     113.273 129.667 138.078  0.00  0.00    +0.000 OA
ATOM     20  C   UNL     1     112.720 129.080 137.903  0.00  0.00    +0.000 C 
BRANCH  20  21
ATOM     21  C   UNL     1     111.919 129.211 138.047  0.00  0.00    +0.000 C 
ATOM     22  C   UNL     1     111.683 129.848 138.515  0.00  0.00    +0.000 C 
BRANCH  22  25
ATOM     23  O   UNL     1     109.457 131.635 138.671  0.00  0.00    +0.000 OA
ATOM     24  O   UNL     1     108.475 130.375 139.088  0.00  0.00    +0.000 OA
ATOM     25  C   UNL     1     110.880 129.980 138.658  0.00  0.00    +0.000 A 
ATOM     26  C   UNL     1     110.570 130.742 138.593  0.00  0.00    +0.000 A 
ATOM     27  C   UNL     1     110.389 129.350 138.866  0.00  0.00    +0.000 A 
ATOM     28  C   UNL     1     109.768 130.873 138.736  0.00  0.00    +0.000 A 
ATOM     29  C   UNL     1     109.588 129.482 139.010  0.00  0.00    +0.000 A 
ATOM     30  C   UNL     1     109.277 130.244 138.945  0.00  0.00    +0.000 A 
ENDBRANCH  22  25
ENDBRANCH  20  21
ENDBRANCH  18  20
ENDBRANCH  10  13
ENDBRANCH   9  10
BRANCH   7  31
ATOM     31  C   UNL     1     111.162 125.158 135.896  0.00  0.00    +0.000 C 
BRANCH  31  32
ATOM     32  O   UNL     1     111.036 125.754 135.339  0.00  0.00    +0.000 OA
BRANCH  32  34
ATOM     33  O   UNL     1     109.681 125.540 134.937  0.00  0.00    +0.000 OA
ATOM     34  C   UNL     1     110.274 126.043 135.211  0.00  0.00    +0.000 C 
BRANCH  34  35
ATOM     35  C   UNL     1     110.106 126.838 135.358  0.00  0.00    +0.000 C 
ATOM     36  C   UNL     1     110.119 127.383 134.738  0.00  0.00    +0.000 C 
BRANCH  36  38
ATOM     37  O   UNL     1     109.444 130.559 135.328  0.00  0.00    +0.000 OA
ATOM     38  C   UNL     1     109.951 128.177 134.885  0.00  0.00    +0.000 A 
ATOM     39  C   UNL     1     110.461 128.765 134.612  0.00  0.00    +0.000 A 
ATOM     40  C   UNL     1     109.271 128.383 135.306  0.00  0.00    +0.000 A 
ATOM     41  C   UNL     1     110.292 129.559 134.760  0.00  0.00    +0.000 A 
ATOM     42  C   UNL     1     109.103 129.177 135.453  0.00  0.00    +0.000 A 
ATOM     43  C   UNL     1     109.613 129.765 135.180  0.00  0.00    +0.000 A 
ENDBRANCH  36  38
ENDBRANCH  34  35
ENDBRANCH  32  34
ENDBRANCH  31  32
ENDBRANCH   7  31
TORSDOF 10
ENDMDL
MODEL 4
REMARK VINA RESULT:      -8.9      2.123      5.707
REMARK  Name = 42607562
REMARK  10 active torsions:
REMARK  status: ('A' for Active; 'I' for Inactive)
REMARK    1  A    between atoms: O_4  and  C_18
REMARK    2  A    between atoms: O_4  and  C_20
REMARK    3  A    between atoms: O_6  and  C_19
REMARK    4  A    between atoms: O_6  and  C_23
REMARK    5  A    between atoms: C_16  and  C_19
REMARK    6  A    between atoms: C_23  and  C_27
REMARK    7  A    between atoms: C_26  and  C_28
REMARK    8  A    between atoms: C_28  and  C_30
REMARK    9  A    between atoms: C_29  and  C_31
REMARK   10  A    between atoms: C_32  and  C_35
REMARK                            x       y       z     vdW  Elec       q    Type
REMARK                         _______ _______ _______ _____ _____    ______ ____
ROOT
ATOM      1  O   UNL     1     110.272 128.267 135.868  0.00  0.00    +0.000 OA
ATOM      2  O   UNL     1     108.264 127.412 135.831  0.00  0.00    +0.000 OA
ATOM      3  O   UNL     1     107.920 129.023 135.727  0.00  0.00    +0.000 OA
ATOM      4  O   UNL     1     109.144 130.129 135.718  0.00  0.00    +0.000 OA
ATOM      5  C   UNL     1     108.876 127.965 135.826  0.00  0.00    +0.000 C 
ATOM      6  C   UNL     1     108.704 128.771 135.774  0.00  0.00    +0.000 C 
ATOM      7  C   UNL     1     109.660 127.713 135.873  0.00  0.00    +0.000 C 
ATOM      8  C   UNL     1     109.315 129.324 135.769  0.00  0.00    +0.000 C 
ATOM      9  C   UNL     1     110.100 129.072 135.816  0.00  0.00    +0.000 C 
ENDROOT
BRANCH   9  10
ATOM     10  O   UNL     1     110.712 129.626 135.812  0.00  0.00    +0.000 OA
BRANCH  10  13
ATOM     11  O   UNL     1     112.303 129.512 135.390  0.00  0.00    +0.000 OA
ATOM     12  O   UNL     1     113.466 129.466 136.560  0.00  0.00    +0.000 OA
ATOM     13  C   UNL     1     111.293 129.603 136.397  0.00  0.00    +0.000 A 
ATOM     14  C   UNL     1     112.089 129.546 136.185  0.00  0.00    +0.000 A 
ATOM     15  C   UNL     1     111.079 129.637 137.192  0.00  0.00    +0.000 A 
ATOM     16  C   UNL     1     112.670 129.523 136.770  0.00  0.00    +0.000 A 
ATOM     17  C   UNL     1     111.660 129.614 137.777  0.00  0.00    +0.000 A 
ATOM     18  C   UNL     1     112.456 129.558 137.567  0.00  0.00    +0.000 A 
BRANCH  18  20
ATOM     19  O   UNL     1     113.570 130.160 138.228  0.00  0.00    +0.000 OA
ATOM     20  C   UNL     1     113.037 129.535 138.152  0.00  0.00    +0.000 C 
BRANCH  20  21
ATOM     21  C   UNL     1     113.085 128.888 138.661  0.00  0.00    +0.000 C 
ATOM     22  C   UNL     1     113.447 128.968 139.397  0.00  0.00    +0.000 C 
BRANCH  22  25
ATOM     23  O   UNL     1     115.004 127.216 141.033  0.00  0.00    +0.000 OA
ATOM     24  O   UNL     1     113.639 126.377 141.434  0.00  0.00    +0.000 OA
ATOM     25  C   UNL     1     113.495 128.320 139.907  0.00  0.00    +0.000 A 
ATOM     26  C   UNL     1     114.225 128.092 140.215  0.00  0.00    +0.000 A 
ATOM     27  C   UNL     1     112.813 127.901 140.107  0.00  0.00    +0.000 A 
ATOM     28  C   UNL     1     114.273 127.444 140.724  0.00  0.00    +0.000 A 
ATOM     29  C   UNL     1     112.861 127.254 140.616  0.00  0.00    +0.000 A 
ATOM     30  C   UNL     1     113.591 127.025 140.925  0.00  0.00    +0.000 A 
ENDBRANCH  22  25
ENDBRANCH  20  21
ENDBRANCH  18  20
ENDBRANCH  10  13
ENDBRANCH   9  10
BRANCH   7  31
ATOM     31  C   UNL     1     109.833 126.909 135.925  0.00  0.00    +0.000 C 
BRANCH  31  32
ATOM     32  O   UNL     1     110.592 126.638 135.746  0.00  0.00    +0.000 OA
BRANCH  32  34
ATOM     33  O   UNL     1     110.430 125.223 135.872  0.00  0.00    +0.000 OA
ATOM     34  C   UNL     1     110.850 125.912 136.041  0.00  0.00    +0.000 C 
BRANCH  34  35
ATOM     35  C   UNL     1     111.531 125.876 136.507  0.00  0.00    +0.000 C 
ATOM     36  C   UNL     1     112.207 125.502 136.220  0.00  0.00    +0.000 C 
BRANCH  36  38
ATOM     37  O   UNL     1     114.928 125.360 138.082  0.00  0.00    +0.000 OA
ATOM     38  C   UNL     1     112.887 125.466 136.686  0.00  0.00    +0.000 A 
ATOM     39  C   UNL     1     112.915 124.961 137.337  0.00  0.00    +0.000 A 
ATOM     40  C   UNL     1     113.540 125.936 136.499  0.00  0.00    +0.000 A 
ATOM     41  C   UNL     1     113.596 124.926 137.803  0.00  0.00    +0.000 A 
ATOM     42  C   UNL     1     114.220 125.900 136.965  0.00  0.00    +0.000 A 
ATOM     43  C   UNL     1     114.248 125.395 137.617  0.00  0.00    +0.000 A 
ENDBRANCH  36  38
ENDBRANCH  34  35
ENDBRANCH  32  34
ENDBRANCH  31  32
ENDBRANCH   7  31
TORSDOF 10
ENDMDL
MODEL 5
REMARK VINA RESULT:      -8.9      1.585      5.159
REMARK  Name = 42607562
REMARK  10 active torsions:
REMARK  status: ('A' for Active; 'I' for Inactive)
REMARK    1  A    between atoms: O_4  and  C_18
REMARK    2  A    between atoms: O_4  and  C_20
REMARK    3  A    between atoms: O_6  and  C_19
REMARK    4  A    between atoms: O_6  and  C_23
REMARK    5  A    between atoms: C_16  and  C_19
REMARK    6  A    between atoms: C_23  and  C_27
REMARK    7  A    between atoms: C_26  and  C_28
REMARK    8  A    between atoms: C_28  and  C_30
REMARK    9  A    between atoms: C_29  and  C_31
REMARK   10  A    between atoms: C_32  and  C_35
REMARK                            x       y       z     vdW  Elec       q    Type
REMARK                         _______ _______ _______ _____ _____    ______ ____
ROOT
ATOM      1  O   UNL     1     109.879 129.816 136.193  0.00  0.00    +0.000 OA
ATOM      2  O   UNL     1     110.682 131.839 136.356  0.00  0.00    +0.000 OA
ATOM      3  O   UNL     1     109.432 132.083 135.307  0.00  0.00    +0.000 OA
ATOM      4  O   UNL     1     108.480 130.815 134.848  0.00  0.00    +0.000 OA
ATOM      5  C   UNL     1     110.207 131.206 136.127  0.00  0.00    +0.000 C 
ATOM      6  C   UNL     1     109.581 131.327 135.602  0.00  0.00    +0.000 C 
ATOM      7  C   UNL     1     110.356 130.450 136.422  0.00  0.00    +0.000 C 
ATOM      8  C   UNL     1     109.106 130.694 135.373  0.00  0.00    +0.000 C 
ATOM      9  C   UNL     1     109.254 129.938 135.668  0.00  0.00    +0.000 C 
ENDROOT
BRANCH   9  10
ATOM     10  O   UNL     1     108.778 129.304 135.439  0.00  0.00    +0.000 OA
BRANCH  10  13
ATOM     11  O   UNL     1     108.131 128.082 136.341  0.00  0.00    +0.000 OA
ATOM     12  O   UNL     1     108.768 126.563 136.249  0.00  0.00    +0.000 OA
ATOM     13  C   UNL     1     109.096 128.544 135.393  0.00  0.00    +0.000 A 
ATOM     14  C   UNL     1     108.773 127.934 135.844  0.00  0.00    +0.000 A 
ATOM     15  C   UNL     1     109.738 128.396 134.897  0.00  0.00    +0.000 A 
ATOM     16  C   UNL     1     109.091 127.174 135.798  0.00  0.00    +0.000 A 
ATOM     17  C   UNL     1     110.056 127.636 134.851  0.00  0.00    +0.000 A 
ATOM     18  C   UNL     1     109.733 127.025 135.301  0.00  0.00    +0.000 A 
BRANCH  18  20
ATOM     19  O   UNL     1     109.741 125.720 134.720  0.00  0.00    +0.000 OA
ATOM     20  C   UNL     1     110.052 126.265 135.255  0.00  0.00    +0.000 C 
BRANCH  20  21
ATOM     21  C   UNL     1     110.680 126.052 135.744  0.00  0.00    +0.000 C 
ATOM     22  C   UNL     1     111.068 125.333 135.626  0.00  0.00    +0.000 C 
BRANCH  22  25
ATOM     23  O   UNL     1     113.772 125.691 136.480  0.00  0.00    +0.000 OA
ATOM     24  O   UNL     1     113.585 124.476 137.583  0.00  0.00    +0.000 OA
ATOM     25  C   UNL     1     111.698 125.119 136.116  0.00  0.00    +0.000 A 
ATOM     26  C   UNL     1     112.420 125.512 136.053  0.00  0.00    +0.000 A 
ATOM     27  C   UNL     1     111.604 124.512 136.667  0.00  0.00    +0.000 A 
ATOM     28  C   UNL     1     113.050 125.298 136.543  0.00  0.00    +0.000 A 
ATOM     29  C   UNL     1     112.233 124.298 137.156  0.00  0.00    +0.000 A 
ATOM     30  C   UNL     1     112.956 124.691 137.094  0.00  0.00    +0.000 A 
ENDBRANCH  22  25
ENDBRANCH  20  21
ENDBRANCH  18  20
ENDBRANCH  10  13
ENDBRANCH   9  10
BRANCH   7  31
ATOM     31  C   UNL     1     110.980 130.327 136.946  0.00  0.00    +0.000 C 
BRANCH  31  32
ATOM     32  O   UNL     1     110.907 129.770 137.552  0.00  0.00    +0.000 OA
BRANCH  32  34
ATOM     33  O   UNL     1     112.329 129.733 137.688  0.00  0.00    +0.000 OA
ATOM     34  C   UNL     1     111.582 129.472 137.921  0.00  0.00    +0.000 C 
BRANCH  34  35
ATOM     35  C   UNL     1     111.508 128.913 138.524  0.00  0.00    +0.000 C 
ATOM     36  C   UNL     1     111.892 128.186 138.460  0.00  0.00    +0.000 C 
BRANCH  36  38
ATOM     37  O   UNL     1     111.601 125.951 140.871  0.00  0.00    +0.000 OA
ATOM     38  C   UNL     1     111.819 127.627 139.062  0.00  0.00    +0.000 A 
ATOM     39  C   UNL     1     111.098 127.245 139.186  0.00  0.00    +0.000 A 
ATOM     40  C   UNL     1     112.467 127.451 139.542  0.00  0.00    +0.000 A 
ATOM     41  C   UNL     1     111.026 126.686 139.789  0.00  0.00    +0.000 A 
ATOM     42  C   UNL     1     112.394 126.892 140.144  0.00  0.00    +0.000 A 
ATOM     43  C   UNL     1     111.673 126.510 140.268  0.00  0.00    +0.000 A 
ENDBRANCH  36  38
ENDBRANCH  34  35
ENDBRANCH  32  34
ENDBRANCH  31  32
ENDBRANCH   7  31
TORSDOF 10
ENDMDL
MODEL 6
REMARK VINA RESULT:      -8.9      1.792      5.728
REMARK  Name = 42607562
REMARK  10 active torsions:
REMARK  status: ('A' for Active; 'I' for Inactive)
REMARK    1  A    between atoms: O_4  and  C_18
REMARK    2  A    between atoms: O_4  and  C_20
REMARK    3  A    between atoms: O_6  and  C_19
REMARK    4  A    between atoms: O_6  and  C_23
REMARK    5  A    between atoms: C_16  and  C_19
REMARK    6  A    between atoms: C_23  and  C_27
REMARK    7  A    between atoms: C_26  and  C_28
REMARK    8  A    between atoms: C_28  and  C_30
REMARK    9  A    between atoms: C_29  and  C_31
REMARK   10  A    between atoms: C_32  and  C_35
REMARK                            x       y       z     vdW  Elec       q    Type
REMARK                         _______ _______ _______ _____ _____    ______ ____
ROOT
ATOM      1  O   UNL     1     110.287 129.667 136.653  0.00  0.00    +0.000 OA
ATOM      2  O   UNL     1     108.114 129.467 136.600  0.00  0.00    +0.000 OA
ATOM      3  O   UNL     1     108.379 130.349 135.231  0.00  0.00    +0.000 OA
ATOM      4  O   UNL     1     109.916 130.776 134.810  0.00  0.00    +0.000 OA
ATOM      5  C   UNL     1     108.881 129.681 136.390  0.00  0.00    +0.000 C 
ATOM      6  C   UNL     1     109.015 130.122 135.705  0.00  0.00    +0.000 C 
ATOM      7  C   UNL     1     109.517 129.453 136.864  0.00  0.00    +0.000 C 
ATOM      8  C   UNL     1     109.783 130.335 135.495  0.00  0.00    +0.000 C 
ATOM      9  C   UNL     1     110.419 130.108 135.969  0.00  0.00    +0.000 C 
ENDROOT
BRANCH   9  10
ATOM     10  O   UNL     1     111.188 130.321 135.758  0.00  0.00    +0.000 OA
BRANCH  10  13
ATOM     11  O   UNL     1     112.528 130.648 136.663  0.00  0.00    +0.000 OA
ATOM     12  O   UNL     1     113.748 129.541 136.760  0.00  0.00    +0.000 OA
ATOM     13  C   UNL     1     111.798 129.768 135.806  0.00  0.00    +0.000 A 
ATOM     14  C   UNL     1     112.468 129.931 136.259  0.00  0.00    +0.000 A 
ATOM     15  C   UNL     1     111.737 129.051 135.403  0.00  0.00    +0.000 A 
ATOM     16  C   UNL     1     113.078 129.378 136.308  0.00  0.00    +0.000 A 
ATOM     17  C   UNL     1     112.347 128.498 135.451  0.00  0.00    +0.000 A 
ATOM     18  C   UNL     1     113.017 128.661 135.904  0.00  0.00    +0.000 A 
BRANCH  18  20
ATOM     19  O   UNL     1     114.390 128.312 135.711  0.00  0.00    +0.000 OA
ATOM     20  C   UNL     1     113.627 128.107 135.952  0.00  0.00    +0.000 C 
BRANCH  20  21
ATOM     21  C   UNL     1     113.475 127.350 136.241  0.00  0.00    +0.000 C 
ATOM     22  C   UNL     1     114.060 126.770 136.207  0.00  0.00    +0.000 C 
BRANCH  22  25
ATOM     23  O   UNL     1     114.958 124.394 137.517  0.00  0.00    +0.000 OA
ATOM     24  O   UNL     1     113.451 123.739 137.363  0.00  0.00    +0.000 OA
ATOM     25  C   UNL     1     113.908 126.012 136.496  0.00  0.00    +0.000 A 
ATOM     26  C   UNL     1     114.509 125.582 136.862  0.00  0.00    +0.000 A 
ATOM     27  C   UNL     1     113.154 125.685 136.419  0.00  0.00    +0.000 A 
ATOM     28  C   UNL     1     114.357 124.824 137.151  0.00  0.00    +0.000 A 
ATOM     29  C   UNL     1     113.002 124.927 136.708  0.00  0.00    +0.000 A 
ATOM     30  C   UNL     1     113.603 124.497 137.074  0.00  0.00    +0.000 A 
ENDBRANCH  22  25
ENDBRANCH  20  21
ENDBRANCH  18  20
ENDBRANCH  10  13
ENDBRANCH   9  10
BRANCH   7  31
ATOM     31  C   UNL     1     109.385 129.013 137.548  0.00  0.00    +0.000 C 
BRANCH  31  32
ATOM     32  O   UNL     1     109.913 129.065 138.181  0.00  0.00    +0.000 OA
BRANCH  32  34
ATOM     33  O   UNL     1     109.302 128.194 139.135  0.00  0.00    +0.000 OA
ATOM     34  C   UNL     1     109.971 128.445 138.722  0.00  0.00    +0.000 C 
BRANCH  34  35
ATOM     35  C   UNL     1     110.698 128.077 138.851  0.00  0.00    +0.000 C 
ATOM     36  C   UNL     1     111.083 128.166 139.575  0.00  0.00    +0.000 C 
BRANCH  36  38
ATOM     37  O   UNL     1     113.989 126.688 140.088  0.00  0.00    +0.000 OA
ATOM     38  C   UNL     1     111.809 127.797 139.703  0.00  0.00    +0.000 A 
ATOM     39  C   UNL     1     112.503 128.244 139.716  0.00  0.00    +0.000 A 
ATOM     40  C   UNL     1     111.842 126.980 139.818  0.00  0.00    +0.000 A 
ATOM     41  C   UNL     1     113.229 127.874 139.845  0.00  0.00    +0.000 A 
ATOM     42  C   UNL     1     112.569 126.612 139.947  0.00  0.00    +0.000 A 
ATOM     43  C   UNL     1     113.262 127.059 139.960  0.00  0.00    +0.000 A 
ENDBRANCH  36  38
ENDBRANCH  34  35
ENDBRANCH  32  34
ENDBRANCH  31  32
ENDBRANCH   7  31
TORSDOF 10
ENDMDL
MODEL 7
REMARK VINA RESULT:      -8.8      2.746      6.277
REMARK  Name = 42607562
REMARK  10 active torsions:
REMARK  status: ('A' for Active; 'I' for Inactive)
REMARK    1  A    between atoms: O_4  and  C_18
REMARK    2  A    between atoms: O_4  and  C_20
REMARK    3  A    between atoms: O_6  and  C_19
REMARK    4  A    between atoms: O_6  and  C_23
REMARK    5  A    between atoms: C_16  and  C_19
REMARK    6  A    between atoms: C_23  and  C_27
REMARK    7  A    between atoms: C_26  and  C_28
REMARK    8  A    between atoms: C_28  and  C_30
REMARK    9  A    between atoms: C_29  and  C_31
REMARK   10  A    between atoms: C_32  and  C_35
REMARK                            x       y       z     vdW  Elec       q    Type
REMARK                         _______ _______ _______ _____ _____    ______ ____
ROOT
ATOM      1  O   UNL     1     111.691 130.618 140.732  0.00  0.00    +0.000 OA
ATOM      2  O   UNL     1     109.646 131.380 140.776  0.00  0.00    +0.000 OA
ATOM      3  O   UNL     1     109.994 131.327 142.388  0.00  0.00    +0.000 OA
ATOM      4  O   UNL     1     111.474 130.802 142.896  0.00  0.00    +0.000 OA
ATOM      5  C   UNL     1     110.385 131.117 141.030  0.00  0.00    +0.000 C 
ATOM      6  C   UNL     1     110.560 131.091 141.836  0.00  0.00    +0.000 C 
ATOM      7  C   UNL     1     110.951 130.881 140.478  0.00  0.00    +0.000 C 
ATOM      8  C   UNL     1     111.299 130.828 142.090  0.00  0.00    +0.000 C 
ATOM      9  C   UNL     1     111.865 130.592 141.538  0.00  0.00    +0.000 C 
ENDROOT
BRANCH   9  10
ATOM     10  O   UNL     1     112.605 130.329 141.792  0.00  0.00    +0.000 OA
BRANCH  10  13
ATOM     11  O   UNL     1     114.118 130.347 141.135  0.00  0.00    +0.000 OA
ATOM     12  O   UNL     1     114.762 128.963 140.508  0.00  0.00    +0.000 OA
ATOM     13  C   UNL     1     112.927 129.637 141.479  0.00  0.00    +0.000 A 
ATOM     14  C   UNL     1     113.684 129.647 141.150  0.00  0.00    +0.000 A 
ATOM     15  C   UNL     1     112.492 128.937 141.494  0.00  0.00    +0.000 A 
ATOM     16  C   UNL     1     114.006 128.955 140.837  0.00  0.00    +0.000 A 
ATOM     17  C   UNL     1     112.814 128.245 141.181  0.00  0.00    +0.000 A 
ATOM     18  C   UNL     1     113.571 128.253 140.852  0.00  0.00    +0.000 A 
BRANCH  18  20
ATOM     19  O   UNL     1     114.467 127.146 140.962  0.00  0.00    +0.000 OA
ATOM     20  C   UNL     1     113.893 127.561 140.539  0.00  0.00    +0.000 C 
BRANCH  20  21
ATOM     21  C   UNL     1     113.640 127.285 139.805  0.00  0.00    +0.000 C 
ATOM     22  C   UNL     1     113.828 126.518 139.566  0.00  0.00    +0.000 C 
BRANCH  22  25
ATOM     23  O   UNL     1     114.429 125.619 136.920  0.00  0.00    +0.000 OA
ATOM     24  O   UNL     1     112.818 125.411 136.625  0.00  0.00    +0.000 OA
ATOM     25  C   UNL     1     113.575 126.241 138.830  0.00  0.00    +0.000 A 
ATOM     26  C   UNL     1     114.129 126.069 138.243  0.00  0.00    +0.000 A 
ATOM     27  C   UNL     1     112.770 126.137 138.682  0.00  0.00    +0.000 A 
ATOM     28  C   UNL     1     113.876 125.792 137.507  0.00  0.00    +0.000 A 
ATOM     29  C   UNL     1     112.518 125.860 137.948  0.00  0.00    +0.000 A 
ATOM     30  C   UNL     1     113.071 125.688 137.360  0.00  0.00    +0.000 A 
ENDBRANCH  22  25
ENDBRANCH  20  21
ENDBRANCH  18  20
ENDBRANCH  10  13
ENDBRANCH   9  10
BRANCH   7  31
ATOM     31  C   UNL     1     110.778 130.907 139.672  0.00  0.00    +0.000 C 
BRANCH  31  32
ATOM     32  O   UNL     1     111.390 130.910 139.118  0.00  0.00    +0.000 OA
BRANCH  32  34
ATOM     33  O   UNL     1     110.466 130.660 138.057  0.00  0.00    +0.000 OA
ATOM     34  C   UNL     1     111.241 130.688 138.338  0.00  0.00    +0.000 C 
BRANCH  34  35
ATOM     35  C   UNL     1     111.869 130.493 137.838  0.00  0.00    +0.000 C 
ATOM     36  C   UNL     1     111.935 129.727 137.540  0.00  0.00    +0.000 C 
BRANCH  36  38
ATOM     37  O   UNL     1     114.445 128.951 135.543  0.00  0.00    +0.000 OA
ATOM     38  C   UNL     1     112.562 129.532 137.040  0.00  0.00    +0.000 A 
ATOM     39  C   UNL     1     112.413 129.187 136.306  0.00  0.00    +0.000 A 
ATOM     40  C   UNL     1     113.339 129.684 137.276  0.00  0.00    +0.000 A 
ATOM     41  C   UNL     1     113.041 128.993 135.807  0.00  0.00    +0.000 A 
ATOM     42  C   UNL     1     113.966 129.490 136.776  0.00  0.00    +0.000 A 
ATOM     43  C   UNL     1     113.817 129.145 136.042  0.00  0.00    +0.000 A 
ENDBRANCH  36  38
ENDBRANCH  34  35
ENDBRANCH  32  34
ENDBRANCH  31  32
ENDBRANCH   7  31
TORSDOF 10
ENDMDL
MODEL 8
REMARK VINA RESULT:      -8.7      1.755      5.913
REMARK  Name = 42607562
REMARK  10 active torsions:
REMARK  status: ('A' for Active; 'I' for Inactive)
REMARK    1  A    between atoms: O_4  and  C_18
REMARK    2  A    between atoms: O_4  and  C_20
REMARK    3  A    between atoms: O_6  and  C_19
REMARK    4  A    between atoms: O_6  and  C_23
REMARK    5  A    between atoms: C_16  and  C_19
REMARK    6  A    between atoms: C_23  and  C_27
REMARK    7  A    between atoms: C_26  and  C_28
REMARK    8  A    between atoms: C_28  and  C_30
REMARK    9  A    between atoms: C_29  and  C_31
REMARK   10  A    between atoms: C_32  and  C_35
REMARK                            x       y       z     vdW  Elec       q    Type
REMARK                         _______ _______ _______ _____ _____    ______ ____
ROOT
ATOM      1  O   UNL     1     109.814 129.329 135.798  0.00  0.00    +0.000 OA
ATOM      2  O   UNL     1     107.637 129.488 135.850  0.00  0.00    +0.000 OA
ATOM      3  O   UNL     1     108.053 131.035 135.455  0.00  0.00    +0.000 OA
ATOM      4  O   UNL     1     109.643 131.444 135.288  0.00  0.00    +0.000 OA
ATOM      5  C   UNL     1     108.431 129.693 135.767  0.00  0.00    +0.000 C 
ATOM      6  C   UNL     1     108.640 130.466 135.569  0.00  0.00    +0.000 C 
ATOM      7  C   UNL     1     109.018 129.124 135.881  0.00  0.00    +0.000 C 
ATOM      8  C   UNL     1     109.434 130.671 135.486  0.00  0.00    +0.000 C 
ATOM      9  C   UNL     1     110.021 130.102 135.600  0.00  0.00    +0.000 C 
ENDROOT
BRANCH   9  10
ATOM     10  O   UNL     1     110.816 130.307 135.517  0.00  0.00    +0.000 OA
BRANCH  10  13
ATOM     11  O   UNL     1     112.135 129.416 135.081  0.00  0.00    +0.000 OA
ATOM     12  O   UNL     1     113.231 128.951 136.223  0.00  0.00    +0.000 OA
ATOM     13  C   UNL     1     111.365 130.075 136.088  0.00  0.00    +0.000 A 
ATOM     14  C   UNL     1     112.024 129.629 135.869  0.00  0.00    +0.000 A 
ATOM     15  C   UNL     1     111.253 130.288 136.877  0.00  0.00    +0.000 A 
ATOM     16  C   UNL     1     112.572 129.397 136.441  0.00  0.00    +0.000 A 
ATOM     17  C   UNL     1     111.801 130.056 137.448  0.00  0.00    +0.000 A 
ATOM     18  C   UNL     1     112.461 129.610 137.230  0.00  0.00    +0.000 A 
BRANCH  18  20
ATOM     19  O   UNL     1     113.730 129.772 137.865  0.00  0.00    +0.000 OA
ATOM     20  C   UNL     1     113.009 129.378 137.802  0.00  0.00    +0.000 C 
BRANCH  20  21
ATOM     21  C   UNL     1     112.835 128.751 138.309  0.00  0.00    +0.000 C 
ATOM     22  C   UNL     1     113.201 128.704 139.046  0.00  0.00    +0.000 C 
BRANCH  22  25
ATOM     23  O   UNL     1     111.541 127.536 141.059  0.00  0.00    +0.000 OA
ATOM     24  O   UNL     1     112.506 126.196 141.077  0.00  0.00    +0.000 OA
ATOM     25  C   UNL     1     113.027 128.077 139.554  0.00  0.00    +0.000 A 
ATOM     26  C   UNL     1     112.371 128.120 140.052  0.00  0.00    +0.000 A 
ATOM     27  C   UNL     1     113.509 127.407 139.564  0.00  0.00    +0.000 A 
ATOM     28  C   UNL     1     112.197 127.493 140.561  0.00  0.00    +0.000 A 
ATOM     29  C   UNL     1     113.336 126.780 140.071  0.00  0.00    +0.000 A 
ATOM     30  C   UNL     1     112.679 126.823 140.570  0.00  0.00    +0.000 A 
ENDBRANCH  22  25
ENDBRANCH  20  21
ENDBRANCH  18  20
ENDBRANCH  10  13
ENDBRANCH   9  10
BRANCH   7  31
ATOM     31  C   UNL     1     108.811 128.350 136.079  0.00  0.00    +0.000 C 
BRANCH  31  32
ATOM     32  O   UNL     1     109.263 127.929 136.626  0.00  0.00    +0.000 OA
BRANCH  32  34
ATOM     33  O   UNL     1     108.423 126.794 136.843  0.00  0.00    +0.000 OA
ATOM     34  C   UNL     1     109.170 127.113 136.697  0.00  0.00    +0.000 C 
BRANCH  34  35
ATOM     35  C   UNL     1     109.824 126.615 136.622  0.00  0.00    +0.000 C 
ATOM     36  C   UNL     1     110.226 126.359 137.295  0.00  0.00    +0.000 C 
BRANCH  36  38
ATOM     37  O   UNL     1     112.840 124.367 136.994  0.00  0.00    +0.000 OA
ATOM     38  C   UNL     1     110.880 125.862 137.219  0.00  0.00    +0.000 A 
ATOM     39  C   UNL     1     111.435 125.997 136.624  0.00  0.00    +0.000 A 
ATOM     40  C   UNL     1     110.978 125.228 137.740  0.00  0.00    +0.000 A 
ATOM     41  C   UNL     1     112.088 125.498 136.550  0.00  0.00    +0.000 A 
ATOM     42  C   UNL     1     111.631 124.731 137.664  0.00  0.00    +0.000 A 
ATOM     43  C   UNL     1     112.186 124.866 137.069  0.00  0.00    +0.000 A 
ENDBRANCH  36  38
ENDBRANCH  34  35
ENDBRANCH  32  34
ENDBRANCH  31  32
ENDBRANCH   7  31
TORSDOF 10
ENDMDL
MODEL 9
REMARK VINA RESULT:      -8.7      2.210      3.931
REMARK  Name = 42607562
REMARK  10 active torsions:
REMARK  status: ('A' for Active; 'I' for Inactive)
REMARK    1  A    between atoms: O_4  and  C_18
REMARK    2  A    between atoms: O_4  and  C_20
REMARK    3  A    between atoms: O_6  and  C_19
REMARK    4  A    between atoms: O_6  and  C_23
REMARK    5  A    between atoms: C_16  and  C_19
REMARK    6  A    between atoms: C_23  and  C_27
REMARK    7  A    between atoms: C_26  and  C_28
REMARK    8  A    between atoms: C_28  and  C_30
REMARK    9  A    between atoms: C_29  and  C_31
REMARK   10  A    between atoms: C_32  and  C_35
REMARK                            x       y       z     vdW  Elec       q    Type
REMARK                         _______ _______ _______ _____ _____    ______ ____
ROOT
ATOM      1  O   UNL     1     112.427 125.891 137.350  0.00  0.00    +0.000 OA
ATOM      2  O   UNL     1     113.763 124.643 136.157  0.00  0.00    +0.000 OA
ATOM      3  O   UNL     1     112.763 123.500 136.803  0.00  0.00    +0.000 OA
ATOM      4  O   UNL     1     111.539 123.951 137.814  0.00  0.00    +0.000 OA
ATOM      5  C   UNL     1     113.151 124.868 136.662  0.00  0.00    +0.000 C 
ATOM      6  C   UNL     1     112.651 124.297 136.985  0.00  0.00    +0.000 C 
ATOM      7  C   UNL     1     113.039 125.665 136.844  0.00  0.00    +0.000 C 
ATOM      8  C   UNL     1     112.039 124.522 137.490  0.00  0.00    +0.000 C 
ATOM      9  C   UNL     1     111.927 125.319 137.673  0.00  0.00    +0.000 C 
ENDROOT
BRANCH   9  10
ATOM     10  O   UNL     1     111.315 125.545 138.178  0.00  0.00    +0.000 OA
BRANCH  10  13
ATOM     11  O   UNL     1     110.309 126.848 138.298  0.00  0.00    +0.000 OA
ATOM     12  O   UNL     1     110.575 127.991 139.457  0.00  0.00    +0.000 OA
ATOM     13  C   UNL     1     111.448 126.117 138.758  0.00  0.00    +0.000 A 
ATOM     14  C   UNL     1     110.944 126.768 138.817  0.00  0.00    +0.000 A 
ATOM     15  C   UNL     1     112.083 126.037 139.277  0.00  0.00    +0.000 A 
ATOM     16  C   UNL     1     111.077 127.340 139.397  0.00  0.00    +0.000 A 
ATOM     17  C   UNL     1     112.216 126.609 139.857  0.00  0.00    +0.000 A 
ATOM     18  C   UNL     1     111.714 127.261 139.917  0.00  0.00    +0.000 A 
BRANCH  18  20
ATOM     19  O   UNL     1     111.364 127.862 141.165  0.00  0.00    +0.000 OA
ATOM     20  C   UNL     1     111.847 127.832 140.496  0.00  0.00    +0.000 C 
BRANCH  20  21
ATOM     21  C   UNL     1     112.462 128.374 140.407  0.00  0.00    +0.000 C 
ATOM     22  C   UNL     1     112.763 128.768 141.067  0.00  0.00    +0.000 C 
BRANCH  22  25
ATOM     23  O   UNL     1     113.797 131.413 141.390  0.00  0.00    +0.000 OA
ATOM     24  O   UNL     1     115.225 130.937 140.711  0.00  0.00    +0.000 OA
ATOM     25  C   UNL     1     113.379 129.311 140.978  0.00  0.00    +0.000 A 
ATOM     26  C   UNL     1     113.280 130.091 141.228  0.00  0.00    +0.000 A 
ATOM     27  C   UNL     1     114.092 129.073 140.638  0.00  0.00    +0.000 A 
ATOM     28  C   UNL     1     113.896 130.633 141.140  0.00  0.00    +0.000 A 
ATOM     29  C   UNL     1     114.708 129.615 140.549  0.00  0.00    +0.000 A 
ATOM     30  C   UNL     1     114.609 130.395 140.800  0.00  0.00    +0.000 A 
ENDBRANCH  22  25
ENDBRANCH  20  21
ENDBRANCH  18  20
ENDBRANCH  10  13
ENDBRANCH   9  10
BRANCH   7  31
ATOM     31  C   UNL     1     113.538 126.237 136.522  0.00  0.00    +0.000 C 
BRANCH  31  32
ATOM     32  O   UNL     1     113.229 126.961 136.273  0.00  0.00    +0.000 OA
BRANCH  32  34
ATOM     33  O   UNL     1     114.401 127.637 135.811  0.00  0.00    +0.000 OA
ATOM     34  C   UNL     1     113.710 127.631 136.262  0.00  0.00    +0.000 C 
BRANCH  34  35
ATOM     35  C   UNL     1     113.498 128.297 136.702  0.00  0.00    +0.000 C 
ATOM     36  C   UNL     1     113.255 128.985 136.316  0.00  0.00    +0.000 C 
BRANCH  36  38
ATOM     37  O   UNL     1     112.413 131.647 138.076  0.00  0.00    +0.000 OA
ATOM     38  C   UNL     1     113.044 129.650 136.756  0.00  0.00    +0.000 A 
ATOM     39  C   UNL     1     112.259 129.762 136.985  0.00  0.00    +0.000 A 
ATOM     40  C   UNL     1     113.619 130.204 136.968  0.00  0.00    +0.000 A 
ATOM     41  C   UNL     1     112.049 130.428 137.425  0.00  0.00    +0.000 A 
ATOM     42  C   UNL     1     113.408 130.869 137.407  0.00  0.00    +0.000 A 
ATOM     43  C   UNL     1     112.623 130.981 137.636  0.00  0.00    +0.000 A 
ENDBRANCH  36  38
ENDBRANCH  34  35
ENDBRANCH  32  34
ENDBRANCH  31  32
ENDBRANCH   7  31
TORSDOF 10
ENDMDL
MODEL 10
REMARK VINA RESULT:      -8.7      2.303      6.107
REMARK  Name = 42607562
REMARK  10 active torsions:
REMARK  status: ('A' for Active; 'I' for Inactive)
REMARK    1  A    between atoms: O_4  and  C_18
REMARK    2  A    between atoms: O_4  and  C_20
REMARK    3  A    between atoms: O_6  and  C_19
REMARK    4  A    between atoms: O_6  and  C_23
REMARK    5  A    between atoms: C_16  and  C_19
REMARK    6  A    between atoms: C_23  and  C_27
REMARK    7  A    between atoms: C_26  and  C_28
REMARK    8  A    between atoms: C_28  and  C_30
REMARK    9  A    between atoms: C_29  and  C_31
REMARK   10  A    between atoms: C_32  and  C_35
REMARK                            x       y       z     vdW  Elec       q    Type
REMARK                         _______ _______ _______ _____ _____    ______ ____
ROOT
ATOM      1  O   UNL     1     111.294 131.169 138.444  0.00  0.00    +0.000 OA
ATOM      2  O   UNL     1     109.344 131.603 139.324  0.00  0.00    +0.000 OA
ATOM      3  O   UNL     1     109.377 132.692 138.085  0.00  0.00    +0.000 OA
ATOM      4  O   UNL     1     110.687 132.766 137.085  0.00  0.00    +0.000 OA
ATOM      5  C   UNL     1     109.999 131.640 138.825  0.00  0.00    +0.000 C 
ATOM      6  C   UNL     1     110.016 132.184 138.205  0.00  0.00    +0.000 C 
ATOM      7  C   UNL     1     110.638 131.132 138.944  0.00  0.00    +0.000 C 
ATOM      8  C   UNL     1     110.670 132.221 137.705  0.00  0.00    +0.000 C 
ATOM      9  C   UNL     1     111.309 131.713 137.825  0.00  0.00    +0.000 C 
ENDROOT
BRANCH   9  10
ATOM     10  O   UNL     1     111.965 131.750 137.325  0.00  0.00    +0.000 OA
BRANCH  10  13
ATOM     11  O   UNL     1     113.562 131.434 137.593  0.00  0.00    +0.000 OA
ATOM     12  O   UNL     1     114.237 130.044 137.014  0.00  0.00    +0.000 OA
ATOM     13  C   UNL     1     112.303 131.055 137.035  0.00  0.00    +0.000 A 
ATOM     14  C   UNL     1     113.101 130.898 137.170  0.00  0.00    +0.000 A 
ATOM     15  C   UNL     1     111.842 130.519 136.611  0.00  0.00    +0.000 A 
ATOM     16  C   UNL     1     113.439 130.203 136.880  0.00  0.00    +0.000 A 
ATOM     17  C   UNL     1     112.179 129.824 136.321  0.00  0.00    +0.000 A 
ATOM     18  C   UNL     1     112.977 129.665 136.455  0.00  0.00    +0.000 A 
BRANCH  18  20
ATOM     19  O   UNL     1     113.753 128.986 135.466  0.00  0.00    +0.000 OA
ATOM     20  C   UNL     1     113.315 128.971 136.166  0.00  0.00    +0.000 C 
BRANCH  20  21
ATOM     21  C   UNL     1     113.214 128.262 136.575  0.00  0.00    +0.000 C 
ATOM     22  C   UNL     1     113.451 127.550 136.231  0.00  0.00    +0.000 C 
BRANCH  22  25
ATOM     23  O   UNL     1     114.560 125.351 137.681  0.00  0.00    +0.000 OA
ATOM     24  O   UNL     1     113.049 124.713 137.868  0.00  0.00    +0.000 OA
ATOM     25  C   UNL     1     113.350 126.840 136.641  0.00  0.00    +0.000 A 
ATOM     26  C   UNL     1     114.005 126.451 136.956  0.00  0.00    +0.000 A 
ATOM     27  C   UNL     1     112.595 126.521 136.734  0.00  0.00    +0.000 A 
ATOM     28  C   UNL     1     113.905 125.741 137.365  0.00  0.00    +0.000 A 
ATOM     29  C   UNL     1     112.494 125.812 137.143  0.00  0.00    +0.000 A 
ATOM     30  C   UNL     1     113.150 125.422 137.459  0.00  0.00    +0.000 A 
ENDBRANCH  22  25
ENDBRANCH  20  21
ENDBRANCH  18  20
ENDBRANCH  10  13
ENDBRANCH   9  10
BRANCH   7  31
ATOM     31  C   UNL     1     110.622 130.587 139.563  0.00  0.00    +0.000 C 
BRANCH  31  32
ATOM     32  O   UNL     1     111.008 129.861 139.484  0.00  0.00    +0.000 OA
BRANCH  32  34
ATOM     33  O   UNL     1     110.396 129.158 140.567  0.00  0.00    +0.000 OA
ATOM     34  C   UNL     1     111.068 129.354 140.131  0.00  0.00    +0.000 C 
BRANCH  34  35
ATOM     35  C   UNL     1     111.803 129.043 140.343  0.00  0.00    +0.000 C 
ATOM     36  C   UNL     1     112.028 128.297 140.072  0.00  0.00    +0.000 C 
BRANCH  36  38
ATOM     37  O   UNL     1     114.964 127.052 140.922  0.00  0.00    +0.000 OA
ATOM     38  C   UNL     1     112.762 127.986 140.284  0.00  0.00    +0.000 A 
ATOM     39  C   UNL     1     113.451 128.412 140.127  0.00  0.00    +0.000 A 
ATOM     40  C   UNL     1     112.806 127.249 140.653  0.00  0.00    +0.000 A 
ATOM     41  C   UNL     1     114.185 128.100 140.340  0.00  0.00    +0.000 A 
ATOM     42  C   UNL     1     113.541 126.938 140.866  0.00  0.00    +0.000 A 
ATOM     43  C   UNL     1     114.230 127.364 140.709  0.00  0.00    +0.000 A 
ENDBRANCH  36  38
ENDBRANCH  34  35
ENDBRANCH  32  34
ENDBRANCH  31  32
ENDBRANCH   7  31
TORSDOF 10
ENDMDL
