MODEL 1
REMARK VINA RESULT:     -10.3      0.000      0.000
REMARK  Name = 131751170
REMARK  14 active torsions:
REMARK  status: ('A' for Active; 'I' for Inactive)
REMARK    1  A    between atoms: O_3  and  C_26
REMARK    2  A    between atoms: O_3  and  C_31
REMARK    3  A    between atoms: O_4  and  C_24
REMARK    4  A    between atoms: O_4  and  C_35
REMARK    5  A    between atoms: O_9  and  C_32
REMARK    6  A    between atoms: O_9  and  C_34
REMARK    7  A    between atoms: O_16  and  C_47
REMARK    8  A    between atoms: O_18  and  C_50
REMARK    9  A    between atoms: O_20  and  C_55
REMARK   10  A    between atoms: C_22  and  C_31
REMARK   11  A    between atoms: C_29  and  C_33
REMARK   12  A    between atoms: C_35  and  C_38
REMARK   13  A    between atoms: C_36  and  C_40
REMARK   14  A    between atoms: C_43  and  C_49
REMARK                            x       y       z     vdW  Elec       q    Type
REMARK                         _______ _______ _______ _____ _____    ______ ____
ROOT
ATOM      1  O   UNL     1     110.178 129.256 136.845  0.00  0.00    +0.000 OA
ATOM      2  O   UNL     1     108.590 127.795 136.519  0.00  0.00    +0.000 OA
ATOM      3  O   UNL     1     108.133 128.990 135.476  0.00  0.00    +0.000 OA
ATOM      4  O   UNL     1     109.041 130.362 135.347  0.00  0.00    +0.000 OA
ATOM      5  C   UNL     1     109.724 128.569 136.910  0.00  0.00    +0.000 C 
ATOM      6  C   UNL     1     109.043 128.481 136.454  0.00  0.00    +0.000 C 
ATOM      7  C   UNL     1     108.815 129.078 135.932  0.00  0.00    +0.000 C 
ATOM      8  C   UNL     1     109.268 129.765 135.867  0.00  0.00    +0.000 C 
ATOM      9  C   UNL     1     109.950 129.853 136.324  0.00  0.00    +0.000 C 
ENDROOT
BRANCH   9  10
ATOM     10  O   UNL     1     110.404 130.539 136.259  0.00  0.00    +0.000 OA
BRANCH  10  15
ATOM     11  O   UNL     1     112.414 130.932 137.013  0.00  0.00    +0.000 OA
ATOM     12  O   UNL     1     111.297 129.533 135.305  0.00  0.00    +0.000 OA
ATOM     13  O   UNL     1     112.561 128.971 134.896  0.00  0.00    +0.000 OA
ATOM     14  O   UNL     1     115.003 129.843 136.243  0.00  0.00    +0.000 OA
ATOM     15  C   UNL     1     111.222 130.502 136.351  0.00  0.00    +0.000 A 
ATOM     16  C   UNL     1     111.595 130.969 136.921  0.00  0.00    +0.000 A 
ATOM     17  C   UNL     1     111.670 129.999 135.874  0.00  0.00    +0.000 A 
ATOM     18  C   UNL     1     112.488 129.962 135.966  0.00  0.00    +0.000 A 
ATOM     19  C   UNL     1     112.860 130.429 136.536  0.00  0.00    +0.000 A 
ATOM     20  C   UNL     1     112.943 129.434 135.463  0.00  0.00    +0.000 A 
ATOM     21  C   UNL     1     113.713 130.399 136.641  0.00  0.00    +0.000 A 
ATOM     22  C   UNL     1     113.796 129.391 135.555  0.00  0.00    +0.000 A 
ATOM     23  C   UNL     1     114.183 129.877 136.148  0.00  0.00    +0.000 A 
BRANCH  16  25
ATOM     24  O   UNL     1     109.810 132.985 138.829  0.00  0.00    +0.000 OA
ATOM     25  C   UNL     1     111.149 131.473 137.398  0.00  0.00    +0.000 A 
ATOM     26  C   UNL     1     111.022 131.285 138.191  0.00  0.00    +0.000 A 
ATOM     27  C   UNL     1     110.828 132.165 137.081  0.00  0.00    +0.000 A 
ATOM     28  C   UNL     1     110.576 131.790 138.668  0.00  0.00    +0.000 A 
ATOM     29  C   UNL     1     110.382 132.668 137.559  0.00  0.00    +0.000 A 
ATOM     30  C   UNL     1     110.256 132.481 138.352  0.00  0.00    +0.000 A 
BRANCH  28  31
ATOM     31  O   UNL     1     110.450 131.602 139.461  0.00  0.00    +0.000 OA
ATOM     32  C   UNL     1     109.863 131.059 139.669  0.00  0.00    +0.000 C 
ENDBRANCH  28  31
ENDBRANCH  16  25
BRANCH  22  33
ATOM     33  O   UNL     1     114.240 128.887 135.076  0.00  0.00    +0.000 OA
ATOM     34  C   UNL     1     114.515 128.169 135.376  0.00  0.00    +0.000 C 
ENDBRANCH  22  33
ENDBRANCH  10  15
ENDBRANCH   9  10
BRANCH   5  35
ATOM     35  C   UNL     1     109.953 127.972 137.431  0.00  0.00    +0.000 C 
BRANCH  35  36
ATOM     36  O   UNL     1     110.753 127.843 137.584  0.00  0.00    +0.000 OA
BRANCH  36  42
ATOM     37  O   UNL     1     110.914 126.468 137.231  0.00  0.00    +0.000 OA
ATOM     38  O   UNL     1     112.039 126.044 139.395  0.00  0.00    +0.000 OA
ATOM     39  O   UNL     1     111.825 124.811 138.321  0.00  0.00    +0.000 OA
ATOM     40  C   UNL     1     111.396 126.944 138.490  0.00  0.00    +0.000 C 
ATOM     41  C   UNL     1     111.664 126.185 138.673  0.00  0.00    +0.000 C 
ATOM     42  C   UNL     1     111.021 127.085 137.769  0.00  0.00    +0.000 C 
ATOM     43  C   UNL     1     111.557 125.568 138.137  0.00  0.00    +0.000 C 
ATOM     44  C   UNL     1     111.182 125.710 137.416  0.00  0.00    +0.000 C 
BRANCH  44  46
ATOM     45  O   UNL     1     111.093 125.244 136.068  0.00  0.00    +0.000 OA
ATOM     46  C   UNL     1     111.075 125.093 136.879  0.00  0.00    +0.000 C 
ENDBRANCH  44  46
BRANCH  40  47
ATOM     47  O   UNL     1     111.503 127.561 139.026  0.00  0.00    +0.000 OA
BRANCH  47  49
ATOM     48  O   UNL     1     112.876 127.658 138.643  0.00  0.00    +0.000 OA
ATOM     49  C   UNL     1     112.246 127.911 139.110  0.00  0.00    +0.000 C 
BRANCH  49  50
ATOM     50  C   UNL     1     112.357 128.514 139.661  0.00  0.00    +0.000 C 
ATOM     51  C   UNL     1     113.119 128.784 139.828  0.00  0.00    +0.000 C 
BRANCH  51  53
ATOM     52  O   UNL     1     113.568 131.197 142.034  0.00  0.00    +0.000 OA
ATOM     53  C   UNL     1     113.231 129.388 140.380  0.00  0.00    +0.000 A 
ATOM     54  C   UNL     1     113.798 129.972 140.243  0.00  0.00    +0.000 A 
ATOM     55  C   UNL     1     112.777 129.406 141.069  0.00  0.00    +0.000 A 
ATOM     56  C   UNL     1     113.910 130.575 140.794  0.00  0.00    +0.000 A 
ATOM     57  C   UNL     1     112.890 130.010 141.620  0.00  0.00    +0.000 A 
ATOM     58  C   UNL     1     113.456 130.594 141.483  0.00  0.00    +0.000 A 
BRANCH  56  59
ATOM     59  O   UNL     1     114.476 131.159 140.657  0.00  0.00    +0.000 OA
ATOM     60  C   UNL     1     115.208 130.957 140.337  0.00  0.00    +0.000 C 
ENDBRANCH  56  59
ENDBRANCH  51  53
ENDBRANCH  49  50
ENDBRANCH  47  49
ENDBRANCH  40  47
ENDBRANCH  36  42
ENDBRANCH  35  36
ENDBRANCH   5  35
TORSDOF 14
ENDMDL
MODEL 2
REMARK VINA RESULT:     -10.2      1.304      4.137
REMARK  Name = 131751170
REMARK  14 active torsions:
REMARK  status: ('A' for Active; 'I' for Inactive)
REMARK    1  A    between atoms: O_3  and  C_26
REMARK    2  A    between atoms: O_3  and  C_31
REMARK    3  A    between atoms: O_4  and  C_24
REMARK    4  A    between atoms: O_4  and  C_35
REMARK    5  A    between atoms: O_9  and  C_32
REMARK    6  A    between atoms: O_9  and  C_34
REMARK    7  A    between atoms: O_16  and  C_47
REMARK    8  A    between atoms: O_18  and  C_50
REMARK    9  A    between atoms: O_20  and  C_55
REMARK   10  A    between atoms: C_22  and  C_31
REMARK   11  A    between atoms: C_29  and  C_33
REMARK   12  A    between atoms: C_35  and  C_38
REMARK   13  A    between atoms: C_36  and  C_40
REMARK   14  A    between atoms: C_43  and  C_49
REMARK                            x       y       z     vdW  Elec       q    Type
REMARK                         _______ _______ _______ _____ _____    ______ ____
ROOT
ATOM      1  O   UNL     1     110.724 130.493 138.206  0.00  0.00    +0.000 OA
ATOM      2  O   UNL     1     110.500 131.648 140.044  0.00  0.00    +0.000 OA
ATOM      3  O   UNL     1     110.224 132.813 138.908  0.00  0.00    +0.000 OA
ATOM      4  O   UNL     1     110.281 132.430 137.304  0.00  0.00    +0.000 OA
ATOM      5  C   UNL     1     110.695 130.684 139.008  0.00  0.00    +0.000 C 
ATOM      6  C   UNL     1     110.529 131.457 139.242  0.00  0.00    +0.000 C 
ATOM      7  C   UNL     1     110.390 132.040 138.674  0.00  0.00    +0.000 C 
ATOM      8  C   UNL     1     110.419 131.849 137.872  0.00  0.00    +0.000 C 
ATOM      9  C   UNL     1     110.586 131.075 137.638  0.00  0.00    +0.000 C 
ENDROOT
BRANCH   9  10
ATOM     10  O   UNL     1     110.614 130.884 136.836  0.00  0.00    +0.000 OA
BRANCH  10  15
ATOM     11  O   UNL     1     111.731 129.293 135.842  0.00  0.00    +0.000 OA
ATOM     12  O   UNL     1     112.163 131.412 137.045  0.00  0.00    +0.000 OA
ATOM     13  O   UNL     1     113.586 131.257 136.866  0.00  0.00    +0.000 OA
ATOM     14  O   UNL     1     114.590 128.913 135.442  0.00  0.00    +0.000 OA
ATOM     15  C   UNL     1     111.244 130.442 136.540  0.00  0.00    +0.000 A 
ATOM     16  C   UNL     1     111.100 129.735 136.139  0.00  0.00    +0.000 A 
ATOM     17  C   UNL     1     112.019 130.706 136.644  0.00  0.00    +0.000 A 
ATOM     18  C   UNL     1     112.649 130.264 136.348  0.00  0.00    +0.000 A 
ATOM     19  C   UNL     1     112.505 129.557 135.947  0.00  0.00    +0.000 A 
ATOM     20  C   UNL     1     113.452 130.550 136.464  0.00  0.00    +0.000 A 
ATOM     21  C   UNL     1     113.154 129.088 135.634  0.00  0.00    +0.000 A 
ATOM     22  C   UNL     1     114.112 130.093 136.157  0.00  0.00    +0.000 A 
ATOM     23  C   UNL     1     113.962 129.358 135.740  0.00  0.00    +0.000 A 
BRANCH  16  25
ATOM     24  O   UNL     1     108.003 128.678 135.716  0.00  0.00    +0.000 OA
ATOM     25  C   UNL     1     110.326 129.471 136.034  0.00  0.00    +0.000 A 
ATOM     26  C   UNL     1     110.035 128.852 136.495  0.00  0.00    +0.000 A 
ATOM     27  C   UNL     1     109.843 129.825 135.466  0.00  0.00    +0.000 A 
ATOM     28  C   UNL     1     109.260 128.588 136.389  0.00  0.00    +0.000 A 
ATOM     29  C   UNL     1     109.069 129.561 135.361  0.00  0.00    +0.000 A 
ATOM     30  C   UNL     1     108.777 128.942 135.822  0.00  0.00    +0.000 A 
BRANCH  28  31
ATOM     31  O   UNL     1     108.969 127.970 136.851  0.00  0.00    +0.000 OA
ATOM     32  C   UNL     1     109.298 127.216 136.787  0.00  0.00    +0.000 C 
ENDBRANCH  28  31
ENDBRANCH  16  25
BRANCH  22  33
ATOM     33  O   UNL     1     114.886 130.360 136.264  0.00  0.00    +0.000 OA
ATOM     34  C   UNL     1     115.291 130.711 135.637  0.00  0.00    +0.000 C 
ENDBRANCH  22  33
ENDBRANCH  10  15
ENDBRANCH   9  10
BRANCH   5  35
ATOM     35  C   UNL     1     110.833 130.102 139.576  0.00  0.00    +0.000 C 
BRANCH  35  36
ATOM     36  O   UNL     1     111.502 129.622 139.519  0.00  0.00    +0.000 OA
BRANCH  36  42
ATOM     37  O   UNL     1     111.832 129.565 140.909  0.00  0.00    +0.000 OA
ATOM     38  O   UNL     1     112.384 127.163 140.679  0.00  0.00    +0.000 OA
ATOM     39  O   UNL     1     112.529 127.906 142.144  0.00  0.00    +0.000 OA
ATOM     40  C   UNL     1     111.943 128.392 140.099  0.00  0.00    +0.000 C 
ATOM     41  C   UNL     1     112.200 127.964 140.755  0.00  0.00    +0.000 C 
ATOM     42  C   UNL     1     111.759 129.193 140.175  0.00  0.00    +0.000 C 
ATOM     43  C   UNL     1     112.273 128.335 141.488  0.00  0.00    +0.000 C 
ATOM     44  C   UNL     1     112.088 129.135 141.565  0.00  0.00    +0.000 C 
BRANCH  44  46
ATOM     45  O   UNL     1     112.542 130.237 142.354  0.00  0.00    +0.000 OA
ATOM     46  C   UNL     1     112.161 129.507 142.297  0.00  0.00    +0.000 C 
ENDBRANCH  44  46
BRANCH  40  47
ATOM     47  O   UNL     1     111.870 128.021 139.366  0.00  0.00    +0.000 OA
BRANCH  47  49
ATOM     48  O   UNL     1     113.239 128.138 138.973  0.00  0.00    +0.000 OA
ATOM     49  C   UNL     1     112.537 127.706 138.994  0.00  0.00    +0.000 C 
BRANCH  49  50
ATOM     50  C   UNL     1     112.500 126.960 138.645  0.00  0.00    +0.000 C 
ATOM     51  C   UNL     1     112.912 126.813 137.945  0.00  0.00    +0.000 C 
BRANCH  51  53
ATOM     52  O   UNL     1     112.767 123.828 136.544  0.00  0.00    +0.000 OA
ATOM     53  C   UNL     1     112.876 126.066 137.595  0.00  0.00    +0.000 A 
ATOM     54  C   UNL     1     113.537 125.573 137.605  0.00  0.00    +0.000 A 
ATOM     55  C   UNL     1     112.178 125.813 137.235  0.00  0.00    +0.000 A 
ATOM     56  C   UNL     1     113.501 124.827 137.255  0.00  0.00    +0.000 A 
ATOM     57  C   UNL     1     112.142 125.066 136.884  0.00  0.00    +0.000 A 
ATOM     58  C   UNL     1     112.804 124.574 136.894  0.00  0.00    +0.000 A 
BRANCH  56  59
ATOM     59  O   UNL     1     114.163 124.335 137.264  0.00  0.00    +0.000 OA
ATOM     60  C   UNL     1     114.920 124.660 137.296  0.00  0.00    +0.000 C 
ENDBRANCH  56  59
ENDBRANCH  51  53
ENDBRANCH  49  50
ENDBRANCH  47  49
ENDBRANCH  40  47
ENDBRANCH  36  42
ENDBRANCH  35  36
ENDBRANCH   5  35
TORSDOF 14
ENDMDL
MODEL 3
REMARK VINA RESULT:     -10.1      1.641      5.607
REMARK  Name = 131751170
REMARK  14 active torsions:
REMARK  status: ('A' for Active; 'I' for Inactive)
REMARK    1  A    between atoms: O_3  and  C_26
REMARK    2  A    between atoms: O_3  and  C_31
REMARK    3  A    between atoms: O_4  and  C_24
REMARK    4  A    between atoms: O_4  and  C_35
REMARK    5  A    between atoms: O_9  and  C_32
REMARK    6  A    between atoms: O_9  and  C_34
REMARK    7  A    between atoms: O_16  and  C_47
REMARK    8  A    between atoms: O_18  and  C_50
REMARK    9  A    between atoms: O_20  and  C_55
REMARK   10  A    between atoms: C_22  and  C_31
REMARK   11  A    between atoms: C_29  and  C_33
REMARK   12  A    between atoms: C_35  and  C_38
REMARK   13  A    between atoms: C_36  and  C_40
REMARK   14  A    between atoms: C_43  and  C_49
REMARK                            x       y       z     vdW  Elec       q    Type
REMARK                         _______ _______ _______ _____ _____    ______ ____
ROOT
ATOM      1  O   UNL     1     113.338 128.751 137.116  0.00  0.00    +0.000 OA
ATOM      2  O   UNL     1     114.348 130.672 136.898  0.00  0.00    +0.000 OA
ATOM      3  O   UNL     1     114.610 130.012 135.409  0.00  0.00    +0.000 OA
ATOM      4  O   UNL     1     114.024 128.511 135.058  0.00  0.00    +0.000 OA
ATOM      5  C   UNL     1     113.631 129.501 137.291  0.00  0.00    +0.000 C 
ATOM      6  C   UNL     1     114.055 129.922 136.723  0.00  0.00    +0.000 C 
ATOM      7  C   UNL     1     114.186 129.592 135.978  0.00  0.00    +0.000 C 
ATOM      8  C   UNL     1     113.893 128.841 135.802  0.00  0.00    +0.000 C 
ATOM      9  C   UNL     1     113.469 128.420 136.371  0.00  0.00    +0.000 C 
ENDROOT
BRANCH   9  10
ATOM     10  O   UNL     1     113.176 127.669 136.196  0.00  0.00    +0.000 OA
BRANCH  10  15
ATOM     11  O   UNL     1     111.597 126.571 137.229  0.00  0.00    +0.000 OA
ATOM     12  O   UNL     1     111.844 128.524 135.729  0.00  0.00    +0.000 OA
ATOM     13  O   UNL     1     110.420 128.753 135.745  0.00  0.00    +0.000 OA
ATOM     14  O   UNL     1     108.714 126.971 137.309  0.00  0.00    +0.000 OA
ATOM     15  C   UNL     1     112.428 127.446 136.462  0.00  0.00    +0.000 A 
ATOM     16  C   UNL     1     112.346 126.795 136.962  0.00  0.00    +0.000 A 
ATOM     17  C   UNL     1     111.762 127.873 136.229  0.00  0.00    +0.000 A 
ATOM     18  C   UNL     1     111.014 127.650 136.495  0.00  0.00    +0.000 A 
ATOM     19  C   UNL     1     110.932 126.999 136.995  0.00  0.00    +0.000 A 
ATOM     20  C   UNL     1     110.328 128.103 136.245  0.00  0.00    +0.000 A 
ATOM     21  C   UNL     1     110.158 126.757 137.280  0.00  0.00    +0.000 A 
ATOM     22  C   UNL     1     109.546 127.876 136.519  0.00  0.00    +0.000 A 
ATOM     23  C   UNL     1     109.461 127.198 137.040  0.00  0.00    +0.000 A 
BRANCH  16  25
ATOM     24  O   UNL     1     115.008 125.082 137.895  0.00  0.00    +0.000 OA
ATOM     25  C   UNL     1     113.011 126.367 137.196  0.00  0.00    +0.000 A 
ATOM     26  C   UNL     1     113.289 126.426 137.971  0.00  0.00    +0.000 A 
ATOM     27  C   UNL     1     113.399 125.880 136.654  0.00  0.00    +0.000 A 
ATOM     28  C   UNL     1     113.955 125.997 138.203  0.00  0.00    +0.000 A 
ATOM     29  C   UNL     1     114.064 125.452 136.888  0.00  0.00    +0.000 A 
ATOM     30  C   UNL     1     114.342 125.511 137.662  0.00  0.00    +0.000 A 
BRANCH  28  31
ATOM     31  O   UNL     1     114.232 126.056 138.978  0.00  0.00    +0.000 OA
ATOM     32  C   UNL     1     113.788 126.458 139.546  0.00  0.00    +0.000 C 
ENDBRANCH  28  31
ENDBRANCH  16  25
BRANCH  22  33
ATOM     33  O   UNL     1     108.882 128.305 136.284  0.00  0.00    +0.000 OA
ATOM     34  C   UNL     1     108.436 128.054 135.637  0.00  0.00    +0.000 C 
ENDBRANCH  22  33
ENDBRANCH  10  15
ENDBRANCH   9  10
BRANCH   5  35
ATOM     35  C   UNL     1     113.500 129.831 138.036  0.00  0.00    +0.000 C 
BRANCH  35  36
ATOM     36  O   UNL     1     112.731 130.004 138.281  0.00  0.00    +0.000 OA
BRANCH  36  42
ATOM     37  O   UNL     1     113.189 130.136 139.628  0.00  0.00    +0.000 OA
ATOM     38  O   UNL     1     110.876 130.613 140.367  0.00  0.00    +0.000 OA
ATOM     39  O   UNL     1     112.104 130.586 141.467  0.00  0.00    +0.000 OA
ATOM     40  C   UNL     1     111.803 130.309 139.323  0.00  0.00    +0.000 C 
ATOM     41  C   UNL     1     111.647 130.454 140.121  0.00  0.00    +0.000 C 
ATOM     42  C   UNL     1     112.574 130.150 139.077  0.00  0.00    +0.000 C 
ATOM     43  C   UNL     1     112.261 130.441 140.671  0.00  0.00    +0.000 C 
ATOM     44  C   UNL     1     113.032 130.282 140.424  0.00  0.00    +0.000 C 
BRANCH  44  46
ATOM     45  O   UNL     1     114.229 130.853 140.957  0.00  0.00    +0.000 OA
ATOM     46  C   UNL     1     113.646 130.269 140.974  0.00  0.00    +0.000 C 
ENDBRANCH  44  46
BRANCH  40  47
ATOM     47  O   UNL     1     111.189 130.322 138.773  0.00  0.00    +0.000 OA
BRANCH  47  49
ATOM     48  O   UNL     1     111.289 131.744 138.677  0.00  0.00    +0.000 OA
ATOM     49  C   UNL     1     110.891 131.042 138.504  0.00  0.00    +0.000 C 
BRANCH  49  50
ATOM     50  C   UNL     1     110.196 131.062 138.061  0.00  0.00    +0.000 C 
ATOM     51  C   UNL     1     110.005 131.734 137.623  0.00  0.00    +0.000 C 
BRANCH  51  53
ATOM     52  O   UNL     1     107.221 131.815 135.852  0.00  0.00    +0.000 OA
ATOM     53  C   UNL     1     109.309 131.754 137.179  0.00  0.00    +0.000 A 
ATOM     54  C   UNL     1     109.340 131.904 136.369  0.00  0.00    +0.000 A 
ATOM     55  C   UNL     1     108.582 131.625 137.548  0.00  0.00    +0.000 A 
ATOM     56  C   UNL     1     108.644 131.925 135.927  0.00  0.00    +0.000 A 
ATOM     57  C   UNL     1     107.886 131.645 137.105  0.00  0.00    +0.000 A 
ATOM     58  C   UNL     1     107.917 131.795 136.294  0.00  0.00    +0.000 A 
BRANCH  56  59
ATOM     59  O   UNL     1     108.675 132.074 135.116  0.00  0.00    +0.000 OA
ATOM     60  C   UNL     1     109.145 131.605 134.627  0.00  0.00    +0.000 C 
ENDBRANCH  56  59
ENDBRANCH  51  53
ENDBRANCH  49  50
ENDBRANCH  47  49
ENDBRANCH  40  47
ENDBRANCH  36  42
ENDBRANCH  35  36
ENDBRANCH   5  35
TORSDOF 14
ENDMDL
MODEL 4
REMARK VINA RESULT:     -10.1      1.540      4.416
REMARK  Name = 131751170
REMARK  14 active torsions:
REMARK  status: ('A' for Active; 'I' for Inactive)
REMARK    1  A    between atoms: O_3  and  C_26
REMARK    2  A    between atoms: O_3  and  C_31
REMARK    3  A    between atoms: O_4  and  C_24
REMARK    4  A    between atoms: O_4  and  C_35
REMARK    5  A    between atoms: O_9  and  C_32
REMARK    6  A    between atoms: O_9  and  C_34
REMARK    7  A    between atoms: O_16  and  C_47
REMARK    8  A    between atoms: O_18  and  C_50
REMARK    9  A    between atoms: O_20  and  C_55
REMARK   10  A    between atoms: C_22  and  C_31
REMARK   11  A    between atoms: C_29  and  C_33
REMARK   12  A    between atoms: C_35  and  C_38
REMARK   13  A    between atoms: C_36  and  C_40
REMARK   14  A    between atoms: C_43  and  C_49
REMARK                            x       y       z     vdW  Elec       q    Type
REMARK                         _______ _______ _______ _____ _____    ______ ____
ROOT
ATOM      1  O   UNL     1     112.627 130.290 138.081  0.00  0.00    +0.000 OA
ATOM      2  O   UNL     1     114.729 130.266 138.668  0.00  0.00    +0.000 OA
ATOM      3  O   UNL     1     114.831 130.951 137.170  0.00  0.00    +0.000 OA
ATOM      4  O   UNL     1     113.463 131.195 136.279  0.00  0.00    +0.000 OA
ATOM      5  C   UNL     1     113.311 130.168 138.526  0.00  0.00    +0.000 C 
ATOM      6  C   UNL     1     114.045 130.388 138.222  0.00  0.00    +0.000 C 
ATOM      7  C   UNL     1     114.097 130.731 137.473  0.00  0.00    +0.000 C 
ATOM      8  C   UNL     1     113.413 130.853 137.028  0.00  0.00    +0.000 C 
ATOM      9  C   UNL     1     112.677 130.632 137.332  0.00  0.00    +0.000 C 
ENDROOT
BRANCH   9  10
ATOM     10  O   UNL     1     111.994 130.754 136.887  0.00  0.00    +0.000 OA
BRANCH  10  15
ATOM     11  O   UNL     1     110.063 129.768 137.137  0.00  0.00    +0.000 OA
ATOM     12  O   UNL     1     112.325 129.259 136.272  0.00  0.00    +0.000 OA
ATOM     13  O   UNL     1     111.925 127.916 135.932  0.00  0.00    +0.000 OA
ATOM     14  O   UNL     1     109.183 127.071 136.479  0.00  0.00    +0.000 OA
ATOM     15  C   UNL     1     111.406 130.177 136.867  0.00  0.00    +0.000 A 
ATOM     16  C   UNL     1     110.652 130.346 137.156  0.00  0.00    +0.000 A 
ATOM     17  C   UNL     1     111.571 129.429 136.560  0.00  0.00    +0.000 A 
ATOM     18  C   UNL     1     110.983 128.851 136.541  0.00  0.00    +0.000 A 
ATOM     19  C   UNL     1     110.229 129.020 136.829  0.00  0.00    +0.000 A 
ATOM     20  C   UNL     1     111.168 128.076 136.218  0.00  0.00    +0.000 A 
ATOM     21  C   UNL     1     109.608 128.427 136.815  0.00  0.00    +0.000 A 
ATOM     22  C   UNL     1     110.560 127.470 136.196  0.00  0.00    +0.000 A 
ATOM     23  C   UNL     1     109.775 127.647 136.496  0.00  0.00    +0.000 A 
BRANCH  16  25
ATOM     24  O   UNL     1     109.986 133.336 138.384  0.00  0.00    +0.000 OA
ATOM     25  C   UNL     1     110.485 131.093 137.463  0.00  0.00    +0.000 A 
ATOM     26  C   UNL     1     110.387 131.193 138.277  0.00  0.00    +0.000 A 
ATOM     27  C   UNL     1     110.417 131.741 136.957  0.00  0.00    +0.000 A 
ATOM     28  C   UNL     1     110.221 131.940 138.583  0.00  0.00    +0.000 A 
ATOM     29  C   UNL     1     110.251 132.488 137.264  0.00  0.00    +0.000 A 
ATOM     30  C   UNL     1     110.153 132.588 138.077  0.00  0.00    +0.000 A 
BRANCH  28  31
ATOM     31  O   UNL     1     110.123 132.040 139.396  0.00  0.00    +0.000 OA
ATOM     32  C   UNL     1     109.806 131.429 139.852  0.00  0.00    +0.000 C 
ENDBRANCH  28  31
ENDBRANCH  16  25
BRANCH  22  33
ATOM     33  O   UNL     1     110.728 126.724 135.888  0.00  0.00    +0.000 OA
ATOM     34  C   UNL     1     110.513 126.539 135.113  0.00  0.00    +0.000 C 
ENDBRANCH  22  33
ENDBRANCH  10  15
ENDBRANCH   9  10
BRANCH   5  35
ATOM     35  C   UNL     1     113.259 129.825 139.275  0.00  0.00    +0.000 C 
BRANCH  35  36
ATOM     36  O   UNL     1     112.972 129.056 139.357  0.00  0.00    +0.000 OA
BRANCH  36  42
ATOM     37  O   UNL     1     112.631 129.329 140.718  0.00  0.00    +0.000 OA
ATOM     38  O   UNL     1     111.748 127.029 140.957  0.00  0.00    +0.000 OA
ATOM     39  O   UNL     1     111.701 128.068 142.237  0.00  0.00    +0.000 OA
ATOM     40  C   UNL     1     112.360 128.042 140.157  0.00  0.00    +0.000 C 
ATOM     41  C   UNL     1     112.042 127.796 140.877  0.00  0.00    +0.000 C 
ATOM     42  C   UNL     1     112.654 128.809 140.077  0.00  0.00    +0.000 C 
ATOM     43  C   UNL     1     112.019 128.315 141.517  0.00  0.00    +0.000 C 
ATOM     44  C   UNL     1     112.313 129.082 141.437  0.00  0.00    +0.000 C 
BRANCH  44  46
ATOM     45  O   UNL     1     112.842 130.212 142.134  0.00  0.00    +0.000 OA
ATOM     46  C   UNL     1     112.290 129.601 142.077  0.00  0.00    +0.000 C 
ENDBRANCH  44  46
BRANCH  40  47
ATOM     47  O   UNL     1     112.383 127.523 139.517  0.00  0.00    +0.000 OA
BRANCH  47  49
ATOM     48  O   UNL     1     113.411 126.742 140.129  0.00  0.00    +0.000 OA
ATOM     49  C   UNL     1     112.992 126.969 139.456  0.00  0.00    +0.000 C 
BRANCH  49  50
ATOM     50  C   UNL     1     113.182 126.643 138.723  0.00  0.00    +0.000 C 
ATOM     51  C   UNL     1     113.364 125.841 138.663  0.00  0.00    +0.000 C 
BRANCH  51  53
ATOM     52  O   UNL     1     114.124 124.534 135.730  0.00  0.00    +0.000 OA
ATOM     53  C   UNL     1     113.554 125.514 137.929  0.00  0.00    +0.000 A 
ATOM     54  C   UNL     1     113.077 124.924 137.604  0.00  0.00    +0.000 A 
ATOM     55  C   UNL     1     114.221 125.777 137.522  0.00  0.00    +0.000 A 
ATOM     56  C   UNL     1     113.267 124.598 136.871  0.00  0.00    +0.000 A 
ATOM     57  C   UNL     1     114.411 125.450 136.788  0.00  0.00    +0.000 A 
ATOM     58  C   UNL     1     113.934 124.860 136.463  0.00  0.00    +0.000 A 
BRANCH  56  59
ATOM     59  O   UNL     1     112.790 124.009 136.546  0.00  0.00    +0.000 OA
ATOM     60  C   UNL     1     112.177 123.681 136.991  0.00  0.00    +0.000 C 
ENDBRANCH  56  59
ENDBRANCH  51  53
ENDBRANCH  49  50
ENDBRANCH  47  49
ENDBRANCH  40  47
ENDBRANCH  36  42
ENDBRANCH  35  36
ENDBRANCH   5  35
TORSDOF 14
ENDMDL
MODEL 5
REMARK VINA RESULT:     -10.0      1.510      4.939
REMARK  Name = 131751170
REMARK  14 active torsions:
REMARK  status: ('A' for Active; 'I' for Inactive)
REMARK    1  A    between atoms: O_3  and  C_26
REMARK    2  A    between atoms: O_3  and  C_31
REMARK    3  A    between atoms: O_4  and  C_24
REMARK    4  A    between atoms: O_4  and  C_35
REMARK    5  A    between atoms: O_9  and  C_32
REMARK    6  A    between atoms: O_9  and  C_34
REMARK    7  A    between atoms: O_16  and  C_47
REMARK    8  A    between atoms: O_18  and  C_50
REMARK    9  A    between atoms: O_20  and  C_55
REMARK   10  A    between atoms: C_22  and  C_31
REMARK   11  A    between atoms: C_29  and  C_33
REMARK   12  A    between atoms: C_35  and  C_38
REMARK   13  A    between atoms: C_36  and  C_40
REMARK   14  A    between atoms: C_43  and  C_49
REMARK                            x       y       z     vdW  Elec       q    Type
REMARK                         _______ _______ _______ _____ _____    ______ ____
ROOT
ATOM      1  O   UNL     1     112.392 129.149 136.714  0.00  0.00    +0.000 OA
ATOM      2  O   UNL     1     112.976 129.106 134.612  0.00  0.00    +0.000 OA
ATOM      3  O   UNL     1     114.333 129.745 135.301  0.00  0.00    +0.000 OA
ATOM      4  O   UNL     1     114.395 129.987 136.932  0.00  0.00    +0.000 OA
ATOM      5  C   UNL     1     112.361 129.028 135.899  0.00  0.00    +0.000 C 
ATOM      6  C   UNL     1     113.007 129.227 135.428  0.00  0.00    +0.000 C 
ATOM      7  C   UNL     1     113.686 129.546 135.772  0.00  0.00    +0.000 C 
ATOM      8  C   UNL     1     113.717 129.667 136.587  0.00  0.00    +0.000 C 
ATOM      9  C   UNL     1     113.070 129.469 137.059  0.00  0.00    +0.000 C 
ENDROOT
BRANCH   9  10
ATOM     10  O   UNL     1     113.101 129.589 137.874  0.00  0.00    +0.000 OA
BRANCH  10  15
ATOM     11  O   UNL     1     111.463 129.667 139.316  0.00  0.00    +0.000 OA
ATOM     12  O   UNL     1     112.350 130.986 137.418  0.00  0.00    +0.000 OA
ATOM     13  O   UNL     1     111.304 131.967 137.574  0.00  0.00    +0.000 OA
ATOM     14  O   UNL     1     109.324 131.607 139.691  0.00  0.00    +0.000 OA
ATOM     15  C   UNL     1     112.430 129.848 138.278  0.00  0.00    +0.000 A 
ATOM     16  C   UNL     1     112.135 129.408 138.911  0.00  0.00    +0.000 A 
ATOM     17  C   UNL     1     112.054 130.547 138.051  0.00  0.00    +0.000 A 
ATOM     18  C   UNL     1     111.384 130.805 138.455  0.00  0.00    +0.000 A 
ATOM     19  C   UNL     1     111.088 130.366 139.087  0.00  0.00    +0.000 A 
ATOM     20  C   UNL     1     111.002 131.535 138.208  0.00  0.00    +0.000 A 
ATOM     21  C   UNL     1     110.390 130.625 139.517  0.00  0.00    +0.000 A 
ATOM     22  C   UNL     1     110.303 131.809 138.625  0.00  0.00    +0.000 A 
ATOM     23  C   UNL     1     109.995 131.351 139.284  0.00  0.00    +0.000 A 
BRANCH  16  25
ATOM     24  O   UNL     1     113.637 126.616 139.826  0.00  0.00    +0.000 OA
ATOM     25  C   UNL     1     112.510 128.710 139.139  0.00  0.00    +0.000 A 
ATOM     26  C   UNL     1     112.117 127.988 139.068  0.00  0.00    +0.000 A 
ATOM     27  C   UNL     1     113.278 128.734 139.440  0.00  0.00    +0.000 A 
ATOM     28  C   UNL     1     112.493 127.290 139.297  0.00  0.00    +0.000 A 
ATOM     29  C   UNL     1     113.653 128.036 139.668  0.00  0.00    +0.000 A 
ATOM     30  C   UNL     1     113.261 127.314 139.597  0.00  0.00    +0.000 A 
BRANCH  28  31
ATOM     31  O   UNL     1     112.100 126.568 139.226  0.00  0.00    +0.000 OA
ATOM     32  C   UNL     1     111.315 126.499 139.472  0.00  0.00    +0.000 C 
ENDBRANCH  28  31
ENDBRANCH  16  25
BRANCH  22  33
ATOM     33  O   UNL     1     109.929 132.508 138.395  0.00  0.00    +0.000 OA
ATOM     34  C   UNL     1     109.249 132.478 137.929  0.00  0.00    +0.000 C 
ENDBRANCH  22  33
ENDBRANCH  10  15
ENDBRANCH   9  10
BRANCH   5  35
ATOM     35  C   UNL     1     111.682 128.709 135.555  0.00  0.00    +0.000 C 
BRANCH  35  36
ATOM     36  O   UNL     1     111.376 127.995 135.834  0.00  0.00    +0.000 OA
BRANCH  36  42
ATOM     37  O   UNL     1     110.025 128.432 135.994  0.00  0.00    +0.000 OA
ATOM     38  O   UNL     1     109.219 126.223 135.219  0.00  0.00    +0.000 OA
ATOM     39  O   UNL     1     108.138 127.396 135.637  0.00  0.00    +0.000 OA
ATOM     40  C   UNL     1     110.298 127.108 135.526  0.00  0.00    +0.000 C 
ATOM     41  C   UNL     1     109.488 126.959 135.478  0.00  0.00    +0.000 C 
ATOM     42  C   UNL     1     110.567 127.844 135.784  0.00  0.00    +0.000 C 
ATOM     43  C   UNL     1     108.947 127.545 135.686  0.00  0.00    +0.000 C 
ATOM     44  C   UNL     1     109.216 128.282 135.944  0.00  0.00    +0.000 C 
BRANCH  44  46
ATOM     45  O   UNL     1     108.659 129.159 136.925  0.00  0.00    +0.000 OA
ATOM     46  C   UNL     1     108.675 128.868 136.154  0.00  0.00    +0.000 C 
ENDBRANCH  44  46
BRANCH  40  47
ATOM     47  O   UNL     1     110.839 126.522 135.317  0.00  0.00    +0.000 OA
BRANCH  47  49
ATOM     48  O   UNL     1     110.269 125.332 135.864  0.00  0.00    +0.000 OA
ATOM     49  C   UNL     1     110.911 125.843 135.780  0.00  0.00    +0.000 C 
BRANCH  49  50
ATOM     50  C   UNL     1     111.624 125.674 136.157  0.00  0.00    +0.000 C 
ATOM     51  C   UNL     1     112.005 124.955 136.018  0.00  0.00    +0.000 C 
BRANCH  51  53
ATOM     52  O   UNL     1     114.860 124.279 137.529  0.00  0.00    +0.000 OA
ATOM     53  C   UNL     1     112.719 124.786 136.396  0.00  0.00    +0.000 A 
ATOM     54  C   UNL     1     113.403 125.199 136.189  0.00  0.00    +0.000 A 
ATOM     55  C   UNL     1     112.748 124.205 136.980  0.00  0.00    +0.000 A 
ATOM     56  C   UNL     1     114.116 125.029 136.567  0.00  0.00    +0.000 A 
ATOM     57  C   UNL     1     113.463 124.035 137.358  0.00  0.00    +0.000 A 
ATOM     58  C   UNL     1     114.147 124.448 137.152  0.00  0.00    +0.000 A 
BRANCH  56  59
ATOM     59  O   UNL     1     114.800 125.442 136.360  0.00  0.00    +0.000 OA
ATOM     60  C   UNL     1     114.792 126.266 136.328  0.00  0.00    +0.000 C 
ENDBRANCH  56  59
ENDBRANCH  51  53
ENDBRANCH  49  50
ENDBRANCH  47  49
ENDBRANCH  40  47
ENDBRANCH  36  42
ENDBRANCH  35  36
ENDBRANCH   5  35
TORSDOF 14
ENDMDL
MODEL 6
REMARK VINA RESULT:      -9.9      1.841      5.016
REMARK  Name = 131751170
REMARK  14 active torsions:
REMARK  status: ('A' for Active; 'I' for Inactive)
REMARK    1  A    between atoms: O_3  and  C_26
REMARK    2  A    between atoms: O_3  and  C_31
REMARK    3  A    between atoms: O_4  and  C_24
REMARK    4  A    between atoms: O_4  and  C_35
REMARK    5  A    between atoms: O_9  and  C_32
REMARK    6  A    between atoms: O_9  and  C_34
REMARK    7  A    between atoms: O_16  and  C_47
REMARK    8  A    between atoms: O_18  and  C_50
REMARK    9  A    between atoms: O_20  and  C_55
REMARK   10  A    between atoms: C_22  and  C_31
REMARK   11  A    between atoms: C_29  and  C_33
REMARK   12  A    between atoms: C_35  and  C_38
REMARK   13  A    between atoms: C_36  and  C_40
REMARK   14  A    between atoms: C_43  and  C_49
REMARK                            x       y       z     vdW  Elec       q    Type
REMARK                         _______ _______ _______ _____ _____    ______ ____
ROOT
ATOM      1  O   UNL     1     111.945 128.975 136.591  0.00  0.00    +0.000 OA
ATOM      2  O   UNL     1     113.889 129.765 137.189  0.00  0.00    +0.000 OA
ATOM      3  O   UNL     1     114.089 129.648 135.555  0.00  0.00    +0.000 OA
ATOM      4  O   UNL     1     112.859 129.082 134.612  0.00  0.00    +0.000 OA
ATOM      5  C   UNL     1     112.560 129.258 137.062  0.00  0.00    +0.000 C 
ATOM      6  C   UNL     1     113.274 129.482 136.717  0.00  0.00    +0.000 C 
ATOM      7  C   UNL     1     113.375 129.424 135.900  0.00  0.00    +0.000 C 
ATOM      8  C   UNL     1     112.760 129.141 135.429  0.00  0.00    +0.000 C 
ATOM      9  C   UNL     1     112.044 128.916 135.774  0.00  0.00    +0.000 C 
ENDROOT
BRANCH   9  10
ATOM     10  O   UNL     1     111.429 128.633 135.303  0.00  0.00    +0.000 OA
BRANCH  10  15
ATOM     11  O   UNL     1     109.281 128.587 135.686  0.00  0.00    +0.000 OA
ATOM     12  O   UNL     1     111.085 130.247 135.345  0.00  0.00    +0.000 OA
ATOM     13  O   UNL     1     110.153 131.336 135.499  0.00  0.00    +0.000 OA
ATOM     14  O   UNL     1     107.340 130.735 136.007  0.00  0.00    +0.000 OA
ATOM     15  C   UNL     1     110.657 128.887 135.437  0.00  0.00    +0.000 A 
ATOM     16  C   UNL     1     110.055 128.334 135.551  0.00  0.00    +0.000 A 
ATOM     17  C   UNL     1     110.484 129.694 135.459  0.00  0.00    +0.000 A 
ATOM     18  C   UNL     1     109.711 129.947 135.594  0.00  0.00    +0.000 A 
ATOM     19  C   UNL     1     109.110 129.394 135.707  0.00  0.00    +0.000 A 
ATOM     20  C   UNL     1     109.545 130.790 135.613  0.00  0.00    +0.000 A 
ATOM     21  C   UNL     1     108.300 129.646 135.849  0.00  0.00    +0.000 A 
ATOM     22  C   UNL     1     108.741 131.060 135.753  0.00  0.00    +0.000 A 
ATOM     23  C   UNL     1     108.115 130.484 135.872  0.00  0.00    +0.000 A 
BRANCH  16  25
ATOM     24  O   UNL     1     110.741 125.107 135.464  0.00  0.00    +0.000 OA
ATOM     25  C   UNL     1     110.226 127.527 135.530  0.00  0.00    +0.000 A 
ATOM     26  C   UNL     1     110.184 127.078 136.221  0.00  0.00    +0.000 A 
ATOM     27  C   UNL     1     110.440 127.170 134.817  0.00  0.00    +0.000 A 
ATOM     28  C   UNL     1     110.356 126.271 136.198  0.00  0.00    +0.000 A 
ATOM     29  C   UNL     1     110.611 126.363 134.796  0.00  0.00    +0.000 A 
ATOM     30  C   UNL     1     110.569 125.914 135.487  0.00  0.00    +0.000 A 
BRANCH  28  31
ATOM     31  O   UNL     1     110.314 125.822 136.889  0.00  0.00    +0.000 OA
ATOM     32  C   UNL     1     110.006 126.153 137.579  0.00  0.00    +0.000 C 
ENDBRANCH  28  31
ENDBRANCH  16  25
BRANCH  22  33
ATOM     33  O   UNL     1     108.572 131.867 135.774  0.00  0.00    +0.000 OA
ATOM     34  C   UNL     1     108.237 132.236 135.116  0.00  0.00    +0.000 C 
ENDBRANCH  22  33
ENDBRANCH  10  15
ENDBRANCH   9  10
BRANCH   5  35
ATOM     35  C   UNL     1     112.459 129.317 137.879  0.00  0.00    +0.000 C 
BRANCH  35  36
ATOM     36  O   UNL     1     112.426 128.633 138.340  0.00  0.00    +0.000 OA
BRANCH  36  42
ATOM     37  O   UNL     1     111.462 129.129 139.271  0.00  0.00    +0.000 OA
ATOM     38  O   UNL     1     112.555 127.848 141.085  0.00  0.00    +0.000 OA
ATOM     39  O   UNL     1     111.227 128.770 141.411  0.00  0.00    +0.000 OA
ATOM     40  C   UNL     1     112.491 128.240 139.713  0.00  0.00    +0.000 C 
ATOM     41  C   UNL     1     112.191 128.275 140.481  0.00  0.00    +0.000 C 
ATOM     42  C   UNL     1     112.127 128.667 139.108  0.00  0.00    +0.000 C 
ATOM     43  C   UNL     1     111.527 128.736 140.644  0.00  0.00    +0.000 C 
ATOM     44  C   UNL     1     111.162 129.162 140.039  0.00  0.00    +0.000 C 
BRANCH  44  46
ATOM     45  O   UNL     1     109.852 129.613 139.688  0.00  0.00    +0.000 OA
ATOM     46  C   UNL     1     110.498 129.624 140.202  0.00  0.00    +0.000 C 
ENDBRANCH  44  46
BRANCH  40  47
ATOM     47  O   UNL     1     113.155 127.780 139.550  0.00  0.00    +0.000 OA
BRANCH  47  49
ATOM     48  O   UNL     1     112.919 126.507 140.155  0.00  0.00    +0.000 OA
ATOM     49  C   UNL     1     113.084 126.960 139.485  0.00  0.00    +0.000 C 
BRANCH  49  50
ATOM     50  C   UNL     1     113.179 126.594 138.753  0.00  0.00    +0.000 C 
ATOM     51  C   UNL     1     113.727 125.984 138.664  0.00  0.00    +0.000 C 
BRANCH  51  53
ATOM     52  O   UNL     1     114.106 124.517 135.733  0.00  0.00    +0.000 OA
ATOM     53  C   UNL     1     113.822 125.617 137.931  0.00  0.00    +0.000 A 
ATOM     54  C   UNL     1     113.630 124.820 137.841  0.00  0.00    +0.000 A 
ATOM     55  C   UNL     1     114.109 126.048 137.289  0.00  0.00    +0.000 A 
ATOM     56  C   UNL     1     113.724 124.454 137.108  0.00  0.00    +0.000 A 
ATOM     57  C   UNL     1     114.203 125.681 136.555  0.00  0.00    +0.000 A 
ATOM     58  C   UNL     1     114.011 124.884 136.465  0.00  0.00    +0.000 A 
BRANCH  56  59
ATOM     59  O   UNL     1     113.532 123.656 137.018  0.00  0.00    +0.000 OA
ATOM     60  C   UNL     1     112.742 123.420 137.015  0.00  0.00    +0.000 C 
ENDBRANCH  56  59
ENDBRANCH  51  53
ENDBRANCH  49  50
ENDBRANCH  47  49
ENDBRANCH  40  47
ENDBRANCH  36  42
ENDBRANCH  35  36
ENDBRANCH   5  35
TORSDOF 14
ENDMDL
MODEL 7
REMARK VINA RESULT:      -9.9      2.165      4.774
REMARK  Name = 131751170
REMARK  14 active torsions:
REMARK  status: ('A' for Active; 'I' for Inactive)
REMARK    1  A    between atoms: O_3  and  C_26
REMARK    2  A    between atoms: O_3  and  C_31
REMARK    3  A    between atoms: O_4  and  C_24
REMARK    4  A    between atoms: O_4  and  C_35
REMARK    5  A    between atoms: O_9  and  C_32
REMARK    6  A    between atoms: O_9  and  C_34
REMARK    7  A    between atoms: O_16  and  C_47
REMARK    8  A    between atoms: O_18  and  C_50
REMARK    9  A    between atoms: O_20  and  C_55
REMARK   10  A    between atoms: C_22  and  C_31
REMARK   11  A    between atoms: C_29  and  C_33
REMARK   12  A    between atoms: C_35  and  C_38
REMARK   13  A    between atoms: C_36  and  C_40
REMARK   14  A    between atoms: C_43  and  C_49
REMARK                            x       y       z     vdW  Elec       q    Type
REMARK                         _______ _______ _______ _____ _____    ______ ____
ROOT
ATOM      1  O   UNL     1     113.314 129.256 139.212  0.00  0.00    +0.000 OA
ATOM      2  O   UNL     1     114.399 128.364 140.882  0.00  0.00    +0.000 OA
ATOM      3  O   UNL     1     114.600 129.970 141.201  0.00  0.00    +0.000 OA
ATOM      4  O   UNL     1     113.943 131.100 140.194  0.00  0.00    +0.000 OA
ATOM      5  C   UNL     1     113.642 128.691 139.716  0.00  0.00    +0.000 C 
ATOM      6  C   UNL     1     114.070 128.929 140.378  0.00  0.00    +0.000 C 
ATOM      7  C   UNL     1     114.171 129.732 140.539  0.00  0.00    +0.000 C 
ATOM      8  C   UNL     1     113.843 130.297 140.035  0.00  0.00    +0.000 C 
ATOM      9  C   UNL     1     113.414 130.059 139.371  0.00  0.00    +0.000 C 
ENDROOT
BRANCH   9  10
ATOM     10  O   UNL     1     113.086 130.624 138.867  0.00  0.00    +0.000 OA
BRANCH  10  15
ATOM     11  O   UNL     1     111.500 130.329 137.397  0.00  0.00    +0.000 OA
ATOM     12  O   UNL     1     111.770 130.475 139.852  0.00  0.00    +0.000 OA
ATOM     13  O   UNL     1     110.355 130.278 140.049  0.00  0.00    +0.000 OA
ATOM     14  O   UNL     1     108.634 129.926 137.716  0.00  0.00    +0.000 OA
ATOM     15  C   UNL     1     112.338 130.501 138.542  0.00  0.00    +0.000 A 
ATOM     16  C   UNL     1     112.248 130.452 137.723  0.00  0.00    +0.000 A 
ATOM     17  C   UNL     1     111.680 130.427 139.034  0.00  0.00    +0.000 A 
ATOM     18  C   UNL     1     110.933 130.304 138.708  0.00  0.00    +0.000 A 
ATOM     19  C   UNL     1     110.843 130.255 137.890  0.00  0.00    +0.000 A 
ATOM     20  C   UNL     1     110.255 130.228 139.232  0.00  0.00    +0.000 A 
ATOM     21  C   UNL     1     110.069 130.127 137.538  0.00  0.00    +0.000 A 
ATOM     22  C   UNL     1     109.474 130.100 138.898  0.00  0.00    +0.000 A 
ATOM     23  C   UNL     1     109.380 130.049 138.046  0.00  0.00    +0.000 A 
BRANCH  16  25
ATOM     24  O   UNL     1     114.878 130.751 135.751  0.00  0.00    +0.000 OA
ATOM     25  C   UNL     1     112.906 130.526 137.230  0.00  0.00    +0.000 A 
ATOM     26  C   UNL     1     113.217 129.861 136.854  0.00  0.00    +0.000 A 
ATOM     27  C   UNL     1     113.252 131.266 137.114  0.00  0.00    +0.000 A 
ATOM     28  C   UNL     1     113.874 129.937 136.361  0.00  0.00    +0.000 A 
ATOM     29  C   UNL     1     113.909 131.341 136.621  0.00  0.00    +0.000 A 
ATOM     30  C   UNL     1     114.220 130.676 136.244  0.00  0.00    +0.000 A 
BRANCH  28  31
ATOM     31  O   UNL     1     114.185 129.272 135.984  0.00  0.00    +0.000 OA
ATOM     32  C   UNL     1     113.688 128.649 135.769  0.00  0.00    +0.000 C 
ENDBRANCH  28  31
ENDBRANCH  16  25
BRANCH  22  33
ATOM     33  O   UNL     1     108.818 130.026 139.393  0.00  0.00    +0.000 OA
ATOM     34  C   UNL     1     108.424 130.701 139.659  0.00  0.00    +0.000 C 
ENDBRANCH  22  33
ENDBRANCH  10  15
ENDBRANCH   9  10
BRANCH   5  35
ATOM     35  C   UNL     1     113.541 127.887 139.555  0.00  0.00    +0.000 C 
BRANCH  35  36
ATOM     36  O   UNL     1     112.783 127.563 139.537  0.00  0.00    +0.000 OA
BRANCH  36  42
ATOM     37  O   UNL     1     113.244 126.532 138.662  0.00  0.00    +0.000 OA
ATOM     38  O   UNL     1     110.952 125.606 138.544  0.00  0.00    +0.000 OA
ATOM     39  O   UNL     1     112.177 124.884 137.709  0.00  0.00    +0.000 OA
ATOM     40  C   UNL     1     111.867 126.585 139.041  0.00  0.00    +0.000 C 
ATOM     41  C   UNL     1     111.716 125.915 138.584  0.00  0.00    +0.000 C 
ATOM     42  C   UNL     1     112.631 126.893 139.080  0.00  0.00    +0.000 C 
ATOM     43  C   UNL     1     112.328 125.553 138.166  0.00  0.00    +0.000 C 
ATOM     44  C   UNL     1     113.092 125.862 138.205  0.00  0.00    +0.000 C 
BRANCH  44  46
ATOM     45  O   UNL     1     114.459 125.453 138.120  0.00  0.00    +0.000 OA
ATOM     46  C   UNL     1     113.705 125.501 137.788  0.00  0.00    +0.000 C 
ENDBRANCH  44  46
BRANCH  40  47
ATOM     47  O   UNL     1     111.255 126.946 139.459  0.00  0.00    +0.000 OA
BRANCH  47  49
ATOM     48  O   UNL     1     111.465 126.120 140.606  0.00  0.00    +0.000 OA
ATOM     49  C   UNL     1     110.972 126.605 140.155  0.00  0.00    +0.000 C 
BRANCH  49  50
ATOM     50  C   UNL     1     110.199 126.750 140.401  0.00  0.00    +0.000 C 
ATOM     51  C   UNL     1     110.039 126.889 141.199  0.00  0.00    +0.000 C 
BRANCH  51  53
ATOM     52  O   UNL     1     106.943 127.466 142.185  0.00  0.00    +0.000 OA
ATOM     53  C   UNL     1     109.265 127.034 141.446  0.00  0.00    +0.000 A 
ATOM     54  C   UNL     1     109.089 127.715 141.877  0.00  0.00    +0.000 A 
ATOM     55  C   UNL     1     108.666 126.497 141.260  0.00  0.00    +0.000 A 
ATOM     56  C   UNL     1     108.316 127.859 142.123  0.00  0.00    +0.000 A 
ATOM     57  C   UNL     1     107.892 126.641 141.507  0.00  0.00    +0.000 A 
ATOM     58  C   UNL     1     107.717 127.322 141.939  0.00  0.00    +0.000 A 
BRANCH  56  59
ATOM     59  O   UNL     1     108.141 128.540 142.555  0.00  0.00    +0.000 OA
ATOM     60  C   UNL     1     108.739 128.937 142.961  0.00  0.00    +0.000 C 
ENDBRANCH  56  59
ENDBRANCH  51  53
ENDBRANCH  49  50
ENDBRANCH  47  49
ENDBRANCH  40  47
ENDBRANCH  36  42
ENDBRANCH  35  36
ENDBRANCH   5  35
TORSDOF 14
ENDMDL
MODEL 8
REMARK VINA RESULT:      -9.8      1.915      4.822
REMARK  Name = 131751170
REMARK  14 active torsions:
REMARK  status: ('A' for Active; 'I' for Inactive)
REMARK    1  A    between atoms: O_3  and  C_26
REMARK    2  A    between atoms: O_3  and  C_31
REMARK    3  A    between atoms: O_4  and  C_24
REMARK    4  A    between atoms: O_4  and  C_35
REMARK    5  A    between atoms: O_9  and  C_32
REMARK    6  A    between atoms: O_9  and  C_34
REMARK    7  A    between atoms: O_16  and  C_47
REMARK    8  A    between atoms: O_18  and  C_50
REMARK    9  A    between atoms: O_20  and  C_55
REMARK   10  A    between atoms: C_22  and  C_31
REMARK   11  A    between atoms: C_29  and  C_33
REMARK   12  A    between atoms: C_35  and  C_38
REMARK   13  A    between atoms: C_36  and  C_40
REMARK   14  A    between atoms: C_43  and  C_49
REMARK                            x       y       z     vdW  Elec       q    Type
REMARK                         _______ _______ _______ _____ _____    ______ ____
ROOT
ATOM      1  O   UNL     1     111.082 128.987 136.489  0.00  0.00    +0.000 OA
ATOM      2  O   UNL     1     109.102 129.142 135.585  0.00  0.00    +0.000 OA
ATOM      3  O   UNL     1     109.566 127.646 135.066  0.00  0.00    +0.000 OA
ATOM      4  O   UNL     1     111.041 127.045 135.496  0.00  0.00    +0.000 OA
ATOM      5  C   UNL     1     110.345 129.288 136.274  0.00  0.00    +0.000 C 
ATOM      6  C   UNL     1     109.840 128.841 135.800  0.00  0.00    +0.000 C 
ATOM      7  C   UNL     1     110.071 128.093 135.540  0.00  0.00    +0.000 C 
ATOM      8  C   UNL     1     110.809 127.792 135.755  0.00  0.00    +0.000 C 
ATOM      9  C   UNL     1     111.315 128.240 136.230  0.00  0.00    +0.000 C 
ENDROOT
BRANCH   9  10
ATOM     10  O   UNL     1     112.052 127.939 136.445  0.00  0.00    +0.000 OA
BRANCH  10  15
ATOM     11  O   UNL     1     113.307 128.559 138.119  0.00  0.00    +0.000 OA
ATOM     12  O   UNL     1     111.213 127.304 137.715  0.00  0.00    +0.000 OA
ATOM     13  O   UNL     1     111.045 127.072 139.129  0.00  0.00    +0.000 OA
ATOM     14  O   UNL     1     113.035 128.129 140.987  0.00  0.00    +0.000 OA
ATOM     15  C   UNL     1     112.330 128.040 137.214  0.00  0.00    +0.000 A 
ATOM     16  C   UNL     1     113.029 128.458 137.349  0.00  0.00    +0.000 A 
ATOM     17  C   UNL     1     111.911 127.723 137.850  0.00  0.00    +0.000 A 
ATOM     18  C   UNL     1     112.189 127.824 138.619  0.00  0.00    +0.000 A 
ATOM     19  C   UNL     1     112.887 128.242 138.754  0.00  0.00    +0.000 A 
ATOM     20  C   UNL     1     111.742 127.489 139.273  0.00  0.00    +0.000 A 
ATOM     21  C   UNL     1     113.187 128.354 139.552  0.00  0.00    +0.000 A 
ATOM     22  C   UNL     1     112.027 127.591 140.077  0.00  0.00    +0.000 A 
ATOM     23  C   UNL     1     112.754 128.026 140.217  0.00  0.00    +0.000 A 
BRANCH  16  25
ATOM     24  O   UNL     1     114.711 129.725 134.808  0.00  0.00    +0.000 OA
ATOM     25  C   UNL     1     113.449 128.775 136.714  0.00  0.00    +0.000 A 
ATOM     26  C   UNL     1     113.496 129.593 136.617  0.00  0.00    +0.000 A 
ATOM     27  C   UNL     1     113.823 128.274 136.175  0.00  0.00    +0.000 A 
ATOM     28  C   UNL     1     113.917 129.910 135.982  0.00  0.00    +0.000 A 
ATOM     29  C   UNL     1     114.243 128.591 135.540  0.00  0.00    +0.000 A 
ATOM     30  C   UNL     1     114.290 129.409 135.444  0.00  0.00    +0.000 A 
BRANCH  28  31
ATOM     31  O   UNL     1     113.963 130.728 135.885  0.00  0.00    +0.000 OA
ATOM     32  C   UNL     1     113.767 131.229 136.510  0.00  0.00    +0.000 C 
ENDBRANCH  28  31
ENDBRANCH  16  25
BRANCH  22  33
ATOM     33  O   UNL     1     111.605 127.272 140.711  0.00  0.00    +0.000 OA
ATOM     34  C   UNL     1     111.866 126.579 141.074  0.00  0.00    +0.000 C 
ENDBRANCH  22  33
ENDBRANCH  10  15
ENDBRANCH   9  10
BRANCH   5  35
ATOM     35  C   UNL     1     110.113 130.036 136.534  0.00  0.00    +0.000 C 
BRANCH  35  36
ATOM     36  O   UNL     1     110.061 130.194 137.342  0.00  0.00    +0.000 OA
BRANCH  36  42
ATOM     37  O   UNL     1     110.137 131.595 137.075  0.00  0.00    +0.000 OA
ATOM     38  O   UNL     1     110.099 132.060 139.506  0.00  0.00    +0.000 OA
ATOM     39  O   UNL     1     110.187 133.306 138.429  0.00  0.00    +0.000 OA
ATOM     40  C   UNL     1     110.080 131.126 138.425  0.00  0.00    +0.000 C 
ATOM     41  C   UNL     1     110.112 131.905 138.696  0.00  0.00    +0.000 C 
ATOM     42  C   UNL     1     110.092 130.972 137.615  0.00  0.00    +0.000 C 
ATOM     43  C   UNL     1     110.156 132.528 138.158  0.00  0.00    +0.000 C 
ATOM     44  C   UNL     1     110.168 132.373 137.348  0.00  0.00    +0.000 C 
BRANCH  44  46
ATOM     45  O   UNL     1     109.787 132.962 136.102  0.00  0.00    +0.000 OA
ATOM     46  C   UNL     1     110.212 132.996 136.809  0.00  0.00    +0.000 C 
ENDBRANCH  44  46
BRANCH  40  47
ATOM     47  O   UNL     1     110.036 130.503 138.963  0.00  0.00    +0.000 OA
BRANCH  47  49
ATOM     48  O   UNL     1     108.608 130.482 138.998  0.00  0.00    +0.000 OA
ATOM     49  C   UNL     1     109.334 130.358 139.370  0.00  0.00    +0.000 C 
BRANCH  49  50
ATOM     50  C   UNL     1     109.356 130.089 140.149  0.00  0.00    +0.000 C 
ATOM     51  C   UNL     1     108.806 129.532 140.409  0.00  0.00    +0.000 C 
BRANCH  51  53
ATOM     52  O   UNL     1     108.896 128.454 143.527  0.00  0.00    +0.000 OA
ATOM     53  C   UNL     1     108.829 129.262 141.189  0.00  0.00    +0.000 A 
ATOM     54  C   UNL     1     108.642 128.477 141.360  0.00  0.00    +0.000 A 
ATOM     55  C   UNL     1     109.038 129.778 141.798  0.00  0.00    +0.000 A 
ATOM     56  C   UNL     1     108.665 128.208 142.139  0.00  0.00    +0.000 A 
ATOM     57  C   UNL     1     109.060 129.509 142.578  0.00  0.00    +0.000 A 
ATOM     58  C   UNL     1     108.874 128.723 142.748  0.00  0.00    +0.000 A 
BRANCH  56  59
ATOM     59  O   UNL     1     108.478 127.422 142.309  0.00  0.00    +0.000 OA
ATOM     60  C   UNL     1     108.149 126.940 141.727  0.00  0.00    +0.000 C 
ENDBRANCH  56  59
ENDBRANCH  51  53
ENDBRANCH  49  50
ENDBRANCH  47  49
ENDBRANCH  40  47
ENDBRANCH  36  42
ENDBRANCH  35  36
ENDBRANCH   5  35
TORSDOF 14
ENDMDL
MODEL 9
REMARK VINA RESULT:      -9.8      1.774      5.075
REMARK  Name = 131751170
REMARK  14 active torsions:
REMARK  status: ('A' for Active; 'I' for Inactive)
REMARK    1  A    between atoms: O_3  and  C_26
REMARK    2  A    between atoms: O_3  and  C_31
REMARK    3  A    between atoms: O_4  and  C_24
REMARK    4  A    between atoms: O_4  and  C_35
REMARK    5  A    between atoms: O_9  and  C_32
REMARK    6  A    between atoms: O_9  and  C_34
REMARK    7  A    between atoms: O_16  and  C_47
REMARK    8  A    between atoms: O_18  and  C_50
REMARK    9  A    between atoms: O_20  and  C_55
REMARK   10  A    between atoms: C_22  and  C_31
REMARK   11  A    between atoms: C_29  and  C_33
REMARK   12  A    between atoms: C_35  and  C_38
REMARK   13  A    between atoms: C_36  and  C_40
REMARK   14  A    between atoms: C_43  and  C_49
REMARK                            x       y       z     vdW  Elec       q    Type
REMARK                         _______ _______ _______ _____ _____    ______ ____
ROOT
ATOM      1  O   UNL     1     110.860 127.304 136.854  0.00  0.00    +0.000 OA
ATOM      2  O   UNL     1     110.069 128.743 135.417  0.00  0.00    +0.000 OA
ATOM      3  O   UNL     1     109.006 127.495 135.225  0.00  0.00    +0.000 OA
ATOM      4  O   UNL     1     109.180 126.119 136.120  0.00  0.00    +0.000 OA
ATOM      5  C   UNL     1     110.773 127.991 136.406  0.00  0.00    +0.000 C 
ATOM      6  C   UNL     1     110.155 128.055 135.864  0.00  0.00    +0.000 C 
ATOM      7  C   UNL     1     109.624 127.431 135.768  0.00  0.00    +0.000 C 
ATOM      8  C   UNL     1     109.710 126.743 136.215  0.00  0.00    +0.000 C 
ATOM      9  C   UNL     1     110.329 126.679 136.758  0.00  0.00    +0.000 C 
ENDROOT
BRANCH   9  10
ATOM     10  O   UNL     1     110.416 125.991 137.206  0.00  0.00    +0.000 OA
BRANCH  10  15
ATOM     11  O   UNL     1     111.354 125.728 139.158  0.00  0.00    +0.000 OA
ATOM     12  O   UNL     1     109.366 126.822 138.171  0.00  0.00    +0.000 OA
ATOM     13  O   UNL     1     108.952 127.304 139.465  0.00  0.00    +0.000 OA
ATOM     14  O   UNL     1     110.582 126.668 141.804  0.00  0.00    +0.000 OA
ATOM     15  C   UNL     1     110.553 126.042 138.017  0.00  0.00    +0.000 A 
ATOM     16  C   UNL     1     111.216 125.678 138.346  0.00  0.00    +0.000 A 
ATOM     17  C   UNL     1     110.029 126.457 138.500  0.00  0.00    +0.000 A 
ATOM     18  C   UNL     1     110.167 126.508 139.311  0.00  0.00    +0.000 A 
ATOM     19  C   UNL     1     110.829 126.143 139.640  0.00  0.00    +0.000 A 
ATOM     20  C   UNL     1     109.612 126.943 139.804  0.00  0.00    +0.000 A 
ATOM     21  C   UNL     1     110.984 126.189 140.485  0.00  0.00    +0.000 A 
ATOM     22  C   UNL     1     109.751 126.999 140.650  0.00  0.00    +0.000 A 
ATOM     23  C   UNL     1     110.441 126.619 140.992  0.00  0.00    +0.000 A 
BRANCH  16  25
ATOM     24  O   UNL     1     113.315 124.015 136.417  0.00  0.00    +0.000 OA
ATOM     25  C   UNL     1     111.741 125.262 137.864  0.00  0.00    +0.000 A 
ATOM     26  C   UNL     1     112.493 125.567 137.713  0.00  0.00    +0.000 A 
ATOM     27  C   UNL     1     111.514 124.541 137.532  0.00  0.00    +0.000 A 
ATOM     28  C   UNL     1     113.017 125.151 137.231  0.00  0.00    +0.000 A 
ATOM     29  C   UNL     1     112.039 124.126 137.050  0.00  0.00    +0.000 A 
ATOM     30  C   UNL     1     112.791 124.431 136.900  0.00  0.00    +0.000 A 
BRANCH  28  31
ATOM     31  O   UNL     1     113.769 125.456 137.080  0.00  0.00    +0.000 OA
ATOM     32  C   UNL     1     114.217 125.774 137.697  0.00  0.00    +0.000 C 
ENDBRANCH  28  31
ENDBRANCH  16  25
BRANCH  22  33
ATOM     33  O   UNL     1     109.224 127.415 141.130  0.00  0.00    +0.000 OA
ATOM     34  C   UNL     1     108.689 127.005 141.606  0.00  0.00    +0.000 C 
ENDBRANCH  22  33
ENDBRANCH  10  15
ENDBRANCH   9  10
BRANCH   5  35
ATOM     35  C   UNL     1     111.304 128.615 136.503  0.00  0.00    +0.000 C 
BRANCH  35  36
ATOM     36  O   UNL     1     111.880 128.578 137.092  0.00  0.00    +0.000 OA
BRANCH  36  42
ATOM     37  O   UNL     1     113.086 128.923 136.406  0.00  0.00    +0.000 OA
ATOM     38  O   UNL     1     113.560 130.655 138.109  0.00  0.00    +0.000 OA
ATOM     39  O   UNL     1     114.606 130.422 136.855  0.00  0.00    +0.000 OA
ATOM     40  C   UNL     1     112.720 129.617 137.601  0.00  0.00    +0.000 C 
ATOM     41  C   UNL     1     113.402 130.078 137.541  0.00  0.00    +0.000 C 
ATOM     42  C   UNL     1     112.562 129.040 137.033  0.00  0.00    +0.000 C 
ATOM     43  C   UNL     1     113.925 129.962 136.915  0.00  0.00    +0.000 C 
ATOM     44  C   UNL     1     113.767 129.384 136.347  0.00  0.00    +0.000 C 
BRANCH  44  46
ATOM     45  O   UNL     1     114.451 128.504 135.454  0.00  0.00    +0.000 OA
ATOM     46  C   UNL     1     114.290 129.268 135.720  0.00  0.00    +0.000 C 
ENDBRANCH  44  46
BRANCH  40  47
ATOM     47  O   UNL     1     112.196 129.733 138.227  0.00  0.00    +0.000 OA
BRANCH  47  49
ATOM     48  O   UNL     1     112.864 128.853 139.133  0.00  0.00    +0.000 OA
ATOM     49  C   UNL     1     112.422 129.536 138.996  0.00  0.00    +0.000 C 
BRANCH  49  50
ATOM     50  C   UNL     1     112.206 130.020 139.627  0.00  0.00    +0.000 C 
ATOM     51  C   UNL     1     111.850 129.693 140.296  0.00  0.00    +0.000 C 
BRANCH  51  53
ATOM     52  O   UNL     1     110.985 131.631 142.822  0.00  0.00    +0.000 OA
ATOM     53  C   UNL     1     111.633 130.178 140.928  0.00  0.00    +0.000 A 
ATOM     54  C   UNL     1     110.863 130.469 140.980  0.00  0.00    +0.000 A 
ATOM     55  C   UNL     1     112.188 130.371 141.507  0.00  0.00    +0.000 A 
ATOM     56  C   UNL     1     110.647 130.953 141.611  0.00  0.00    +0.000 A 
ATOM     57  C   UNL     1     111.971 130.856 142.139  0.00  0.00    +0.000 A 
ATOM     58  C   UNL     1     111.201 131.147 142.191  0.00  0.00    +0.000 A 
BRANCH  56  59
ATOM     59  O   UNL     1     109.877 131.244 141.663  0.00  0.00    +0.000 OA
ATOM     60  C   UNL     1     109.246 130.796 141.376  0.00  0.00    +0.000 C 
ENDBRANCH  56  59
ENDBRANCH  51  53
ENDBRANCH  49  50
ENDBRANCH  47  49
ENDBRANCH  40  47
ENDBRANCH  36  42
ENDBRANCH  35  36
ENDBRANCH   5  35
TORSDOF 14
ENDMDL
MODEL 10
REMARK VINA RESULT:      -9.8      1.999      4.758
REMARK  Name = 131751170
REMARK  14 active torsions:
REMARK  status: ('A' for Active; 'I' for Inactive)
REMARK    1  A    between atoms: O_3  and  C_26
REMARK    2  A    between atoms: O_3  and  C_31
REMARK    3  A    between atoms: O_4  and  C_24
REMARK    4  A    between atoms: O_4  and  C_35
REMARK    5  A    between atoms: O_9  and  C_32
REMARK    6  A    between atoms: O_9  and  C_34
REMARK    7  A    between atoms: O_16  and  C_47
REMARK    8  A    between atoms: O_18  and  C_50
REMARK    9  A    between atoms: O_20  and  C_55
REMARK   10  A    between atoms: C_22  and  C_31
REMARK   11  A    between atoms: C_29  and  C_33
REMARK   12  A    between atoms: C_35  and  C_38
REMARK   13  A    between atoms: C_36  and  C_40
REMARK   14  A    between atoms: C_43  and  C_49
REMARK                            x       y       z     vdW  Elec       q    Type
REMARK                         _______ _______ _______ _____ _____    ______ ____
ROOT
ATOM      1  O   UNL     1     110.715 127.550 139.974  0.00  0.00    +0.000 OA
ATOM      2  O   UNL     1     108.689 127.518 140.784  0.00  0.00    +0.000 OA
ATOM      3  O   UNL     1     109.427 126.399 141.746  0.00  0.00    +0.000 OA
ATOM      4  O   UNL     1     111.024 126.047 141.527  0.00  0.00    +0.000 OA
ATOM      5  C   UNL     1     109.917 127.726 140.084  0.00  0.00    +0.000 C 
ATOM      6  C   UNL     1     109.488 127.342 140.674  0.00  0.00    +0.000 C 
ATOM      7  C   UNL     1     109.856 126.782 141.156  0.00  0.00    +0.000 C 
ATOM      8  C   UNL     1     110.655 126.607 141.046  0.00  0.00    +0.000 C 
ATOM      9  C   UNL     1     111.085 126.990 140.455  0.00  0.00    +0.000 C 
ENDROOT
BRANCH   9  10
ATOM     10  O   UNL     1     111.883 126.814 140.345  0.00  0.00    +0.000 OA
BRANCH  10  15
ATOM     11  O   UNL     1     113.085 126.918 138.525  0.00  0.00    +0.000 OA
ATOM     12  O   UNL     1     111.195 125.613 139.448  0.00  0.00    +0.000 OA
ATOM     13  O   UNL     1     111.114 124.824 138.243  0.00  0.00    +0.000 OA
ATOM     14  O   UNL     1     112.981 125.366 136.063  0.00  0.00    +0.000 OA
ATOM     15  C   UNL     1     112.169 126.649 139.590  0.00  0.00    +0.000 A 
ATOM     16  C   UNL     1     112.799 127.084 139.282  0.00  0.00    +0.000 A 
ATOM     17  C   UNL     1     111.825 126.048 139.140  0.00  0.00    +0.000 A 
ATOM     18  C   UNL     1     112.110 125.882 138.385  0.00  0.00    +0.000 A 
ATOM     19  C   UNL     1     112.740 126.317 138.078  0.00  0.00    +0.000 A 
ATOM     20  C   UNL     1     111.743 125.254 137.927  0.00  0.00    +0.000 A 
ATOM     21  C   UNL     1     113.047 126.154 137.291  0.00  0.00    +0.000 A 
ATOM     22  C   UNL     1     112.036 125.076 137.140  0.00  0.00    +0.000 A 
ATOM     23  C   UNL     1     112.692 125.529 136.819  0.00  0.00    +0.000 A 
BRANCH  16  25
ATOM     24  O   UNL     1     114.178 129.485 141.076  0.00  0.00    +0.000 OA
ATOM     25  C   UNL     1     113.143 127.684 139.730  0.00  0.00    +0.000 A 
ATOM     26  C   UNL     1     113.065 128.471 139.496  0.00  0.00    +0.000 A 
ATOM     27  C   UNL     1     113.567 127.497 140.413  0.00  0.00    +0.000 A 
ATOM     28  C   UNL     1     113.410 129.072 139.945  0.00  0.00    +0.000 A 
ATOM     29  C   UNL     1     113.912 128.098 140.861  0.00  0.00    +0.000 A 
ATOM     30  C   UNL     1     113.833 128.885 140.627  0.00  0.00    +0.000 A 
BRANCH  28  31
ATOM     31  O   UNL     1     113.331 129.859 139.710  0.00  0.00    +0.000 OA
ATOM     32  C   UNL     1     113.246 130.045 138.910  0.00  0.00    +0.000 C 
ENDBRANCH  28  31
ENDBRANCH  16  25
BRANCH  22  33
ATOM     33  O   UNL     1     111.690 124.475 136.693  0.00  0.00    +0.000 OA
ATOM     34  C   UNL     1     112.045 123.731 136.658  0.00  0.00    +0.000 C 
ENDBRANCH  22  33
ENDBRANCH  10  15
ENDBRANCH   9  10
BRANCH   5  35
ATOM     35  C   UNL     1     109.548 128.285 139.602  0.00  0.00    +0.000 C 
BRANCH  35  36
ATOM     36  O   UNL     1     109.728 129.086 139.689  0.00  0.00    +0.000 OA
BRANCH  36  42
ATOM     37  O   UNL     1     109.478 129.395 138.317  0.00  0.00    +0.000 OA
ATOM     38  O   UNL     1     108.859 131.706 138.950  0.00  0.00    +0.000 OA
ATOM     39  O   UNL     1     108.815 131.244 137.367  0.00  0.00    +0.000 OA
ATOM     40  C   UNL     1     109.294 130.396 139.320  0.00  0.00    +0.000 C 
ATOM     41  C   UNL     1     109.065 130.936 138.739  0.00  0.00    +0.000 C 
ATOM     42  C   UNL     1     109.500 129.626 139.109  0.00  0.00    +0.000 C 
ATOM     43  C   UNL     1     109.043 130.705 137.948  0.00  0.00    +0.000 C 
ATOM     44  C   UNL     1     109.250 129.935 137.737  0.00  0.00    +0.000 C 
BRANCH  44  46
ATOM     45  O   UNL     1     109.842 129.251 136.630  0.00  0.00    +0.000 OA
ATOM     46  C   UNL     1     109.228 129.704 136.945  0.00  0.00    +0.000 C 
ENDBRANCH  44  46
BRANCH  40  47
ATOM     47  O   UNL     1     109.316 130.627 140.111  0.00  0.00    +0.000 OA
BRANCH  47  49
ATOM     48  O   UNL     1     110.409 131.538 139.984  0.00  0.00    +0.000 OA
ATOM     49  C   UNL     1     109.997 130.973 140.422  0.00  0.00    +0.000 C 
BRANCH  49  50
ATOM     50  C   UNL     1     110.267 130.754 141.170  0.00  0.00    +0.000 C 
ATOM     51  C   UNL     1     110.867 131.187 141.535  0.00  0.00    +0.000 C 
BRANCH  51  53
ATOM     52  O   UNL     1     111.948 130.312 144.528  0.00  0.00    +0.000 OA
ATOM     53  C   UNL     1     111.138 130.968 142.284  0.00  0.00    +0.000 A 
ATOM     54  C   UNL     1     111.485 131.530 142.777  0.00  0.00    +0.000 A 
ATOM     55  C   UNL     1     111.059 130.187 142.538  0.00  0.00    +0.000 A 
ATOM     56  C   UNL     1     111.755 131.312 143.525  0.00  0.00    +0.000 A 
ATOM     57  C   UNL     1     111.330 129.969 143.287  0.00  0.00    +0.000 A 
ATOM     58  C   UNL     1     111.678 130.531 143.780  0.00  0.00    +0.000 A 
BRANCH  56  59
ATOM     59  O   UNL     1     112.103 131.874 144.018  0.00  0.00    +0.000 OA
ATOM     60  C   UNL     1     112.336 132.604 143.713  0.00  0.00    +0.000 C 
ENDBRANCH  56  59
ENDBRANCH  51  53
ENDBRANCH  49  50
ENDBRANCH  47  49
ENDBRANCH  40  47
ENDBRANCH  36  42
ENDBRANCH  35  36
ENDBRANCH   5  35
TORSDOF 14
ENDMDL
