MODEL 1
REMARK VINA RESULT:      -8.6      0.000      0.000
REMARK  Name = 131834170
REMARK  4 active torsions:
REMARK  status: ('A' for Active; 'I' for Inactive)
REMARK    1  A    between atoms: S_1  and  O_5
REMARK    2  A    between atoms: O_5  and  C_20
REMARK    3  A    between atoms: O_6  and  C_21
REMARK    4  A    between atoms: C_10  and  C_14
REMARK                            x       y       z     vdW  Elec       q    Type
REMARK                         _______ _______ _______ _____ _____    ______ ____
ROOT
ATOM      1  O   UNL     1     104.834 124.286 147.170  0.00  0.00    +0.000 OA
ATOM      2  O   UNL     1     104.536 124.501 145.018  0.00  0.00    +0.000 OA
ATOM      3  O   UNL     1     107.130 125.612 146.022  0.00  0.00    +0.000 OA
ATOM      4  C   UNL     1     104.882 124.546 145.765  0.00  0.00    +0.000 C 
ATOM      5  C   UNL     1     104.487 124.241 146.422  0.00  0.00    +0.000 C 
ATOM      6  C   UNL     1     105.624 124.897 145.856  0.00  0.00    +0.000 C 
ATOM      7  C   UNL     1     105.970 124.942 146.603  0.00  0.00    +0.000 A 
ATOM      8  C   UNL     1     105.575 124.636 147.260  0.00  0.00    +0.000 A 
ATOM      9  C   UNL     1     106.743 125.309 146.685  0.00  0.00    +0.000 A 
ATOM     10  C   UNL     1     105.926 124.678 148.044  0.00  0.00    +0.000 A 
ATOM     11  C   UNL     1     107.108 125.359 147.460  0.00  0.00    +0.000 A 
ATOM     12  C   UNL     1     106.698 125.041 148.144  0.00  0.00    +0.000 A 
ENDROOT
BRANCH   5  13
ATOM     13  C   UNL     1     103.746 123.890 146.332  0.00  0.00    +0.000 A 
ATOM     14  C   UNL     1     103.067 124.296 146.567  0.00  0.00    +0.000 A 
ATOM     15  C   UNL     1     103.684 123.134 146.007  0.00  0.00    +0.000 A 
ATOM     16  C   UNL     1     102.325 123.945 146.476  0.00  0.00    +0.000 A 
ATOM     17  C   UNL     1     102.943 122.784 145.916  0.00  0.00    +0.000 A 
ATOM     18  C   UNL     1     102.264 123.189 146.151  0.00  0.00    +0.000 A 
BRANCH  16  19
ATOM     19  O   UNL     1     101.646 124.350 146.711  0.00  0.00    +0.000 OA
ATOM     20  C   UNL     1     101.179 124.052 147.321  0.00  0.00    +0.000 C 
ENDBRANCH  16  19
ENDBRANCH   5  13
BRANCH  12  21
ATOM     21  O   UNL     1     107.042 125.085 148.893  0.00  0.00    +0.000 OA
BRANCH  21  22
ATOM     22  S   UNL     1     107.515 124.467 149.166  0.00  0.00    +0.000 S 
ATOM     23  O   UNL     1     107.181 123.858 149.612  0.00  0.00    +0.000 OA
ATOM     24  O   UNL     1     108.321 124.458 148.993  0.00  0.00    +0.000 OA
ENDBRANCH  21  22
ENDBRANCH  12  21
TORSDOF 4
ENDMDL
MODEL 2
REMARK VINA RESULT:      -8.0      1.822      4.719
REMARK  Name = 131834170
REMARK  4 active torsions:
REMARK  status: ('A' for Active; 'I' for Inactive)
REMARK    1  A    between atoms: S_1  and  O_5
REMARK    2  A    between atoms: O_5  and  C_20
REMARK    3  A    between atoms: O_6  and  C_21
REMARK    4  A    between atoms: C_10  and  C_14
REMARK                            x       y       z     vdW  Elec       q    Type
REMARK                         _______ _______ _______ _____ _____    ______ ____
ROOT
ATOM      1  O   UNL     1     104.846 124.150 147.133  0.00  0.00    +0.000 OA
ATOM      2  O   UNL     1     104.863 125.924 148.403  0.00  0.00    +0.000 OA
ATOM      3  O   UNL     1     102.141 125.110 147.456  0.00  0.00    +0.000 OA
ATOM      4  C   UNL     1     104.589 125.309 147.927  0.00  0.00    +0.000 C 
ATOM      5  C   UNL     1     105.121 124.765 147.609  0.00  0.00    +0.000 C 
ATOM      6  C   UNL     1     103.782 125.239 147.768  0.00  0.00    +0.000 C 
ATOM      7  C   UNL     1     103.508 124.624 147.292  0.00  0.00    +0.000 A 
ATOM      8  C   UNL     1     104.040 124.079 146.974  0.00  0.00    +0.000 A 
ATOM      9  C   UNL     1     102.666 124.561 147.133  0.00  0.00    +0.000 A 
ATOM     10  C   UNL     1     103.767 123.434 146.476  0.00  0.00    +0.000 A 
ATOM     11  C   UNL     1     102.374 123.922 146.638  0.00  0.00    +0.000 A 
ATOM     12  C   UNL     1     102.928 123.355 146.307  0.00  0.00    +0.000 A 
ENDROOT
BRANCH   5  13
ATOM     13  C   UNL     1     105.927 124.835 147.768  0.00  0.00    +0.000 A 
ATOM     14  C   UNL     1     106.255 124.446 148.417  0.00  0.00    +0.000 A 
ATOM     15  C   UNL     1     106.406 125.295 147.278  0.00  0.00    +0.000 A 
ATOM     16  C   UNL     1     107.062 124.517 148.576  0.00  0.00    +0.000 A 
ATOM     17  C   UNL     1     107.212 125.365 147.436  0.00  0.00    +0.000 A 
ATOM     18  C   UNL     1     107.540 124.976 148.086  0.00  0.00    +0.000 A 
BRANCH  16  19
ATOM     19  O   UNL     1     107.391 124.127 149.225  0.00  0.00    +0.000 OA
ATOM     20  C   UNL     1     108.044 124.449 149.612  0.00  0.00    +0.000 C 
ENDBRANCH  16  19
ENDBRANCH   5  13
BRANCH  12  21
ATOM     21  O   UNL     1     102.656 122.739 145.831  0.00  0.00    +0.000 OA
BRANCH  21  22
ATOM     22  S   UNL     1     102.526 122.867 145.026  0.00  0.00    +0.000 S 
ATOM     23  O   UNL     1     101.774 123.077 144.759  0.00  0.00    +0.000 OA
ATOM     24  O   UNL     1     103.147 122.783 144.490  0.00  0.00    +0.000 OA
ENDBRANCH  21  22
ENDBRANCH  12  21
TORSDOF 4
ENDMDL
MODEL 3
REMARK VINA RESULT:      -7.9     12.422     12.944
REMARK  Name = 131834170
REMARK  4 active torsions:
REMARK  status: ('A' for Active; 'I' for Inactive)
REMARK    1  A    between atoms: S_1  and  O_5
REMARK    2  A    between atoms: O_5  and  C_20
REMARK    3  A    between atoms: O_6  and  C_21
REMARK    4  A    between atoms: C_10  and  C_14
REMARK                            x       y       z     vdW  Elec       q    Type
REMARK                         _______ _______ _______ _____ _____    ______ ____
ROOT
ATOM      1  O   UNL     1     111.506 126.444 136.233  0.00  0.00    +0.000 OA
ATOM      2  O   UNL     1     109.844 125.616 135.085  0.00  0.00    +0.000 OA
ATOM      3  O   UNL     1     111.720 123.564 136.198  0.00  0.00    +0.000 OA
ATOM      4  C   UNL     1     110.530 125.663 135.541  0.00  0.00    +0.000 C 
ATOM      5  C   UNL     1     110.820 126.399 135.777  0.00  0.00    +0.000 C 
ATOM      6  C   UNL     1     110.927 124.973 135.761  0.00  0.00    +0.000 C 
ATOM      7  C   UNL     1     111.613 125.020 136.216  0.00  0.00    +0.000 A 
ATOM      8  C   UNL     1     111.902 125.756 136.452  0.00  0.00    +0.000 A 
ATOM      9  C   UNL     1     112.017 124.295 136.439  0.00  0.00    +0.000 A 
ATOM     10  C   UNL     1     112.616 125.817 136.927  0.00  0.00    +0.000 A 
ATOM     11  C   UNL     1     112.732 124.337 136.914  0.00  0.00    +0.000 A 
ATOM     12  C   UNL     1     113.033 125.103 137.159  0.00  0.00    +0.000 A 
ENDROOT
BRANCH   5  13
ATOM     13  C   UNL     1     110.424 127.087 135.557  0.00  0.00    +0.000 A 
ATOM     14  C   UNL     1     109.860 127.417 136.061  0.00  0.00    +0.000 A 
ATOM     15  C   UNL     1     110.590 127.447 134.833  0.00  0.00    +0.000 A 
ATOM     16  C   UNL     1     109.462 128.107 135.841  0.00  0.00    +0.000 A 
ATOM     17  C   UNL     1     110.194 128.136 134.613  0.00  0.00    +0.000 A 
ATOM     18  C   UNL     1     109.630 128.466 135.117  0.00  0.00    +0.000 A 
BRANCH  16  19
ATOM     19  O   UNL     1     108.899 128.437 136.345  0.00  0.00    +0.000 OA
ATOM     20  C   UNL     1     108.808 129.255 136.382  0.00  0.00    +0.000 C 
ENDBRANCH  16  19
ENDBRANCH   5  13
BRANCH  12  21
ATOM     21  O   UNL     1     113.719 125.152 137.615  0.00  0.00    +0.000 OA
BRANCH  21  22
ATOM     22  S   UNL     1     114.459 125.101 137.254  0.00  0.00    +0.000 S 
ATOM     23  O   UNL     1     114.765 125.751 136.847  0.00  0.00    +0.000 OA
ATOM     24  O   UNL     1     114.893 124.402 137.299  0.00  0.00    +0.000 OA
ENDBRANCH  21  22
ENDBRANCH  12  21
TORSDOF 4
ENDMDL
MODEL 4
REMARK VINA RESULT:      -7.8     12.588     14.115
REMARK  Name = 131834170
REMARK  4 active torsions:
REMARK  status: ('A' for Active; 'I' for Inactive)
REMARK    1  A    between atoms: S_1  and  O_5
REMARK    2  A    between atoms: O_5  and  C_20
REMARK    3  A    between atoms: O_6  and  C_21
REMARK    4  A    between atoms: C_10  and  C_14
REMARK                            x       y       z     vdW  Elec       q    Type
REMARK                         _______ _______ _______ _____ _____    ______ ____
ROOT
ATOM      1  O   UNL     1     113.659 127.103 136.410  0.00  0.00    +0.000 OA
ATOM      2  O   UNL     1     112.929 126.541 138.389  0.00  0.00    +0.000 OA
ATOM      3  O   UNL     1     112.811 129.479 137.818  0.00  0.00    +0.000 OA
ATOM      4  C   UNL     1     113.137 127.001 137.736  0.00  0.00    +0.000 C 
ATOM      5  C   UNL     1     113.451 126.643 137.063  0.00  0.00    +0.000 C 
ATOM      6  C   UNL     1     113.032 127.819 137.758  0.00  0.00    +0.000 C 
ATOM      7  C   UNL     1     113.240 128.279 137.105  0.00  0.00    +0.000 A 
ATOM      8  C   UNL     1     113.554 127.921 136.432  0.00  0.00    +0.000 A 
ATOM      9  C   UNL     1     113.125 129.130 137.140  0.00  0.00    +0.000 A 
ATOM     10  C   UNL     1     113.775 128.389 135.745  0.00  0.00    +0.000 A 
ATOM     11  C   UNL     1     113.341 129.614 136.463  0.00  0.00    +0.000 A 
ATOM     12  C   UNL     1     113.667 129.241 135.762  0.00  0.00    +0.000 A 
ENDROOT
BRANCH   5  13
ATOM     13  C   UNL     1     113.556 125.825 137.042  0.00  0.00    +0.000 A 
ATOM     14  C   UNL     1     112.956 125.339 136.752  0.00  0.00    +0.000 A 
ATOM     15  C   UNL     1     114.262 125.492 137.310  0.00  0.00    +0.000 A 
ATOM     16  C   UNL     1     113.061 124.521 136.731  0.00  0.00    +0.000 A 
ATOM     17  C   UNL     1     114.368 124.675 137.289  0.00  0.00    +0.000 A 
ATOM     18  C   UNL     1     113.767 124.189 136.999  0.00  0.00    +0.000 A 
BRANCH  16  19
ATOM     19  O   UNL     1     112.460 124.035 136.441  0.00  0.00    +0.000 OA
ATOM     20  C   UNL     1     112.108 123.476 136.935  0.00  0.00    +0.000 C 
ENDBRANCH  16  19
ENDBRANCH   5  13
BRANCH  12  21
ATOM     21  O   UNL     1     113.877 129.699 135.108  0.00  0.00    +0.000 OA
BRANCH  21  22
ATOM     22  S   UNL     1     114.652 129.969 135.025  0.00  0.00    +0.000 S 
ATOM     23  O   UNL     1     115.204 129.516 134.612  0.00  0.00    +0.000 OA
ATOM     24  O   UNL     1     114.873 130.692 135.353  0.00  0.00    +0.000 OA
ENDBRANCH  21  22
ENDBRANCH  12  21
TORSDOF 4
ENDMDL
MODEL 5
REMARK VINA RESULT:      -7.7      6.160      7.401
REMARK  Name = 131834170
REMARK  4 active torsions:
REMARK  status: ('A' for Active; 'I' for Inactive)
REMARK    1  A    between atoms: S_1  and  O_5
REMARK    2  A    between atoms: O_5  and  C_20
REMARK    3  A    between atoms: O_6  and  C_21
REMARK    4  A    between atoms: C_10  and  C_14
REMARK                            x       y       z     vdW  Elec       q    Type
REMARK                         _______ _______ _______ _____ _____    ______ ____
ROOT
ATOM      1  O   UNL     1     104.775 124.904 139.934  0.00  0.00    +0.000 OA
ATOM      2  O   UNL     1     105.058 122.740 139.969  0.00  0.00    +0.000 OA
ATOM      3  O   UNL     1     106.643 124.225 142.031  0.00  0.00    +0.000 OA
ATOM      4  C   UNL     1     105.129 123.538 140.162  0.00  0.00    +0.000 C 
ATOM      5  C   UNL     1     104.703 124.105 139.740  0.00  0.00    +0.000 C 
ATOM      6  C   UNL     1     105.627 123.771 140.778  0.00  0.00    +0.000 C 
ATOM      7  C   UNL     1     105.698 124.569 140.971  0.00  0.00    +0.000 A 
ATOM      8  C   UNL     1     105.272 125.136 140.549  0.00  0.00    +0.000 A 
ATOM      9  C   UNL     1     106.220 124.799 141.615  0.00  0.00    +0.000 A 
ATOM     10  C   UNL     1     105.338 125.971 140.742  0.00  0.00    +0.000 A 
ATOM     11  C   UNL     1     106.299 125.629 141.821  0.00  0.00    +0.000 A 
ATOM     12  C   UNL     1     105.855 126.219 141.382  0.00  0.00    +0.000 A 
ENDROOT
BRANCH   5  13
ATOM     13  C   UNL     1     104.206 123.873 139.125  0.00  0.00    +0.000 A 
ATOM     14  C   UNL     1     104.514 123.747 138.370  0.00  0.00    +0.000 A 
ATOM     15  C   UNL     1     103.399 123.766 139.263  0.00  0.00    +0.000 A 
ATOM     16  C   UNL     1     104.017 123.514 137.754  0.00  0.00    +0.000 A 
ATOM     17  C   UNL     1     102.902 123.534 138.648  0.00  0.00    +0.000 A 
ATOM     18  C   UNL     1     103.211 123.408 137.893  0.00  0.00    +0.000 A 
BRANCH  16  19
ATOM     19  O   UNL     1     104.325 123.388 136.999  0.00  0.00    +0.000 OA
ATOM     20  C   UNL     1     103.848 123.072 136.406  0.00  0.00    +0.000 C 
ENDBRANCH  16  19
ENDBRANCH   5  13
BRANCH  12  21
ATOM     21  O   UNL     1     105.925 127.018 141.573  0.00  0.00    +0.000 OA
BRANCH  21  22
ATOM     22  S   UNL     1     105.283 127.422 141.899  0.00  0.00    +0.000 S 
ATOM     23  O   UNL     1     104.809 127.898 141.419  0.00  0.00    +0.000 OA
ATOM     24  O   UNL     1     105.115 127.350 142.702  0.00  0.00    +0.000 OA
ENDBRANCH  21  22
ENDBRANCH  12  21
TORSDOF 4
ENDMDL
MODEL 6
REMARK VINA RESULT:      -7.6      1.739      4.576
REMARK  Name = 131834170
REMARK  4 active torsions:
REMARK  status: ('A' for Active; 'I' for Inactive)
REMARK    1  A    between atoms: S_1  and  O_5
REMARK    2  A    between atoms: O_5  and  C_20
REMARK    3  A    between atoms: O_6  and  C_21
REMARK    4  A    between atoms: C_10  and  C_14
REMARK                            x       y       z     vdW  Elec       q    Type
REMARK                         _______ _______ _______ _____ _____    ______ ____
ROOT
ATOM      1  O   UNL     1     104.253 124.233 147.118  0.00  0.00    +0.000 OA
ATOM      2  O   UNL     1     106.000 124.669 145.885  0.00  0.00    +0.000 OA
ATOM      3  O   UNL     1     103.877 123.077 144.497  0.00  0.00    +0.000 OA
ATOM      4  C   UNL     1     105.264 124.380 146.120  0.00  0.00    +0.000 C 
ATOM      5  C   UNL     1     104.989 124.522 146.885  0.00  0.00    +0.000 C 
ATOM      6  C   UNL     1     104.802 123.949 145.588  0.00  0.00    +0.000 C 
ATOM      7  C   UNL     1     104.066 123.661 145.823  0.00  0.00    +0.000 A 
ATOM      8  C   UNL     1     103.791 123.802 146.588  0.00  0.00    +0.000 A 
ATOM      9  C   UNL     1     103.594 123.214 145.260  0.00  0.00    +0.000 A 
ATOM     10  C   UNL     1     103.025 123.507 146.843  0.00  0.00    +0.000 A 
ATOM     11  C   UNL     1     102.826 122.910 145.498  0.00  0.00    +0.000 A 
ATOM     12  C   UNL     1     102.540 123.058 146.294  0.00  0.00    +0.000 A 
ENDROOT
BRANCH   5  13
ATOM     13  C   UNL     1     105.451 124.952 147.415  0.00  0.00    +0.000 A 
ATOM     14  C   UNL     1     105.939 124.558 147.952  0.00  0.00    +0.000 A 
ATOM     15  C   UNL     1     105.426 125.777 147.411  0.00  0.00    +0.000 A 
ATOM     16  C   UNL     1     106.401 124.988 148.483  0.00  0.00    +0.000 A 
ATOM     17  C   UNL     1     105.888 126.207 147.941  0.00  0.00    +0.000 A 
ATOM     18  C   UNL     1     106.375 125.813 148.477  0.00  0.00    +0.000 A 
BRANCH  16  19
ATOM     19  O   UNL     1     106.889 124.594 149.019  0.00  0.00    +0.000 OA
ATOM     20  C   UNL     1     107.706 124.593 148.910  0.00  0.00    +0.000 C 
ENDBRANCH  16  19
ENDBRANCH   5  13
BRANCH  12  21
ATOM     21  O   UNL     1     101.804 122.770 146.531  0.00  0.00    +0.000 OA
BRANCH  21  22
ATOM     22  S   UNL     1     101.125 123.222 146.406  0.00  0.00    +0.000 S 
ATOM     23  O   UNL     1     100.861 123.740 146.992  0.00  0.00    +0.000 OA
ATOM     24  O   UNL     1     100.710 123.155 145.697  0.00  0.00    +0.000 OA
ENDBRANCH  21  22
ENDBRANCH  12  21
TORSDOF 4
ENDMDL
MODEL 7
REMARK VINA RESULT:      -7.6     10.817     12.741
REMARK  Name = 131834170
REMARK  4 active torsions:
REMARK  status: ('A' for Active; 'I' for Inactive)
REMARK    1  A    between atoms: S_1  and  O_5
REMARK    2  A    between atoms: O_5  and  C_20
REMARK    3  A    between atoms: O_6  and  C_21
REMARK    4  A    between atoms: C_10  and  C_14
REMARK                            x       y       z     vdW  Elec       q    Type
REMARK                         _______ _______ _______ _____ _____    ______ ____
ROOT
ATOM      1  O   UNL     1     111.108 125.778 136.568  0.00  0.00    +0.000 OA
ATOM      2  O   UNL     1     111.573 124.983 138.547  0.00  0.00    +0.000 OA
ATOM      3  O   UNL     1     109.023 126.549 138.414  0.00  0.00    +0.000 OA
ATOM      4  C   UNL     1     111.181 125.377 137.938  0.00  0.00    +0.000 C 
ATOM      5  C   UNL     1     111.501 125.384 137.177  0.00  0.00    +0.000 C 
ATOM      6  C   UNL     1     110.468 125.766 138.089  0.00  0.00    +0.000 C 
ATOM      7  C   UNL     1     110.076 126.160 137.480  0.00  0.00    +0.000 A 
ATOM      8  C   UNL     1     110.396 126.166 136.719  0.00  0.00    +0.000 A 
ATOM      9  C   UNL     1     109.335 126.561 137.650  0.00  0.00    +0.000 A 
ATOM     10  C   UNL     1     109.997 126.574 136.076  0.00  0.00    +0.000 A 
ATOM     11  C   UNL     1     108.922 126.973 137.020  0.00  0.00    +0.000 A 
ATOM     12  C   UNL     1     109.255 126.979 136.228  0.00  0.00    +0.000 A 
ENDROOT
BRANCH   5  13
ATOM     13  C   UNL     1     112.212 124.996 137.026  0.00  0.00    +0.000 A 
ATOM     14  C   UNL     1     112.923 125.415 137.047  0.00  0.00    +0.000 A 
ATOM     15  C   UNL     1     112.215 124.189 136.855  0.00  0.00    +0.000 A 
ATOM     16  C   UNL     1     113.636 125.027 136.895  0.00  0.00    +0.000 A 
ATOM     17  C   UNL     1     112.927 123.801 136.704  0.00  0.00    +0.000 A 
ATOM     18  C   UNL     1     113.637 124.220 136.724  0.00  0.00    +0.000 A 
BRANCH  16  19
ATOM     19  O   UNL     1     114.346 125.446 136.916  0.00  0.00    +0.000 OA
ATOM     20  C   UNL     1     114.917 125.318 136.335  0.00  0.00    +0.000 C 
ENDBRANCH  16  19
ENDBRANCH   5  13
BRANCH  12  21
ATOM     21  O   UNL     1     108.865 127.373 135.617  0.00  0.00    +0.000 OA
BRANCH  21  22
ATOM     22  S   UNL     1     108.842 128.198 135.605  0.00  0.00    +0.000 S 
ATOM     23  O   UNL     1     109.494 128.624 135.331  0.00  0.00    +0.000 OA
ATOM     24  O   UNL     1     108.170 128.596 135.868  0.00  0.00    +0.000 OA
ENDBRANCH  21  22
ENDBRANCH  12  21
TORSDOF 4
ENDMDL
MODEL 8
REMARK VINA RESULT:      -7.6      1.466      2.301
REMARK  Name = 131834170
REMARK  4 active torsions:
REMARK  status: ('A' for Active; 'I' for Inactive)
REMARK    1  A    between atoms: S_1  and  O_5
REMARK    2  A    between atoms: O_5  and  C_20
REMARK    3  A    between atoms: O_6  and  C_21
REMARK    4  A    between atoms: C_10  and  C_14
REMARK                            x       y       z     vdW  Elec       q    Type
REMARK                         _______ _______ _______ _____ _____    ______ ____
ROOT
ATOM      1  O   UNL     1     103.775 124.203 147.161  0.00  0.00    +0.000 OA
ATOM      2  O   UNL     1     101.958 125.213 147.829  0.00  0.00    +0.000 OA
ATOM      3  O   UNL     1     104.495 126.639 148.537  0.00  0.00    +0.000 OA
ATOM      4  C   UNL     1     102.756 125.049 147.698  0.00  0.00    +0.000 C 
ATOM      5  C   UNL     1     102.976 124.365 147.292  0.00  0.00    +0.000 C 
ATOM      6  C   UNL     1     103.334 125.571 147.973  0.00  0.00    +0.000 C 
ATOM      7  C   UNL     1     104.132 125.407 147.841  0.00  0.00    +0.000 A 
ATOM      8  C   UNL     1     104.352 124.724 147.436  0.00  0.00    +0.000 A 
ATOM      9  C   UNL     1     104.725 125.958 148.132  0.00  0.00    +0.000 A 
ATOM     10  C   UNL     1     105.181 124.543 147.293  0.00  0.00    +0.000 A 
ATOM     11  C   UNL     1     105.558 125.794 147.999  0.00  0.00    +0.000 A 
ATOM     12  C   UNL     1     105.787 125.082 147.576  0.00  0.00    +0.000 A 
ENDROOT
BRANCH   5  13
ATOM     13  C   UNL     1     102.399 123.845 147.018  0.00  0.00    +0.000 A 
ATOM     14  C   UNL     1     102.120 123.910 146.244  0.00  0.00    +0.000 A 
ATOM     15  C   UNL     1     102.100 123.259 147.516  0.00  0.00    +0.000 A 
ATOM     16  C   UNL     1     101.541 123.388 145.969  0.00  0.00    +0.000 A 
ATOM     17  C   UNL     1     101.522 122.739 147.242  0.00  0.00    +0.000 A 
ATOM     18  C   UNL     1     101.243 122.804 146.469  0.00  0.00    +0.000 A 
BRANCH  16  19
ATOM     19  O   UNL     1     101.262 123.453 145.196  0.00  0.00    +0.000 OA
ATOM     20  C   UNL     1     100.804 122.849 144.871  0.00  0.00    +0.000 C 
ENDBRANCH  16  19
ENDBRANCH   5  13
BRANCH  12  21
ATOM     21  O   UNL     1     106.584 124.916 147.444  0.00  0.00    +0.000 OA
BRANCH  21  22
ATOM     22  S   UNL     1     106.981 125.275 146.816  0.00  0.00    +0.000 S 
ATOM     23  O   UNL     1     107.396 125.978 146.938  0.00  0.00    +0.000 OA
ATOM     24  O   UNL     1     106.963 124.932 146.067  0.00  0.00    +0.000 OA
ENDBRANCH  21  22
ENDBRANCH  12  21
TORSDOF 4
ENDMDL
MODEL 9
REMARK VINA RESULT:      -7.4      9.772     10.756
REMARK  Name = 131834170
REMARK  4 active torsions:
REMARK  status: ('A' for Active; 'I' for Inactive)
REMARK    1  A    between atoms: S_1  and  O_5
REMARK    2  A    between atoms: O_5  and  C_20
REMARK    3  A    between atoms: O_6  and  C_21
REMARK    4  A    between atoms: C_10  and  C_14
REMARK                            x       y       z     vdW  Elec       q    Type
REMARK                         _______ _______ _______ _____ _____    ______ ____
ROOT
ATOM      1  O   UNL     1     103.062 132.535 141.514  0.00  0.00    +0.000 OA
ATOM      2  O   UNL     1     101.091 131.631 141.762  0.00  0.00    +0.000 OA
ATOM      3  O   UNL     1     101.139 134.604 142.116  0.00  0.00    +0.000 OA
ATOM      4  C   UNL     1     101.690 132.197 141.722  0.00  0.00    +0.000 C 
ATOM      5  C   UNL     1     102.464 131.968 141.553  0.00  0.00    +0.000 C 
ATOM      6  C   UNL     1     101.513 132.993 141.851  0.00  0.00    +0.000 C 
ATOM      7  C   UNL     1     102.112 133.559 141.812  0.00  0.00    +0.000 A 
ATOM      8  C   UNL     1     102.886 133.330 141.643  0.00  0.00    +0.000 A 
ATOM      9  C   UNL     1     101.916 134.385 141.948  0.00  0.00    +0.000 A 
ATOM     10  C   UNL     1     103.518 133.911 141.599  0.00  0.00    +0.000 A 
ATOM     11  C   UNL     1     102.535 134.979 141.908  0.00  0.00    +0.000 A 
ATOM     12  C   UNL     1     103.341 134.741 141.732  0.00  0.00    +0.000 A 
ENDROOT
BRANCH   5  13
ATOM     13  C   UNL     1     102.640 131.173 141.425  0.00  0.00    +0.000 A 
ATOM     14  C   UNL     1     102.613 130.863 140.660  0.00  0.00    +0.000 A 
ATOM     15  C   UNL     1     102.843 130.686 142.059  0.00  0.00    +0.000 A 
ATOM     16  C   UNL     1     102.789 130.067 140.531  0.00  0.00    +0.000 A 
ATOM     17  C   UNL     1     103.019 129.891 141.931  0.00  0.00    +0.000 A 
ATOM     18  C   UNL     1     102.992 129.581 141.166  0.00  0.00    +0.000 A 
BRANCH  16  19
ATOM     19  O   UNL     1     102.762 129.757 139.767  0.00  0.00    +0.000 OA
ATOM     20  C   UNL     1     102.305 129.090 139.608  0.00  0.00    +0.000 C 
ENDBRANCH  16  19
ENDBRANCH   5  13
BRANCH  12  21
ATOM     21  O   UNL     1     103.941 135.305 141.692  0.00  0.00    +0.000 OA
BRANCH  21  22
ATOM     22  S   UNL     1     104.151 135.633 140.965  0.00  0.00    +0.000 S 
ATOM     23  O   UNL     1     104.755 135.291 140.517  0.00  0.00    +0.000 OA
ATOM     24  O   UNL     1     103.758 136.302 140.685  0.00  0.00    +0.000 OA
ENDBRANCH  21  22
ENDBRANCH  12  21
TORSDOF 4
ENDMDL
MODEL 10
REMARK VINA RESULT:      -7.4      9.868     11.655
REMARK  Name = 131834170
REMARK  4 active torsions:
REMARK  status: ('A' for Active; 'I' for Inactive)
REMARK    1  A    between atoms: S_1  and  O_5
REMARK    2  A    between atoms: O_5  and  C_20
REMARK    3  A    between atoms: O_6  and  C_21
REMARK    4  A    between atoms: C_10  and  C_14
REMARK                            x       y       z     vdW  Elec       q    Type
REMARK                         _______ _______ _______ _____ _____    ______ ____
ROOT
ATOM      1  O   UNL     1     111.440 125.386 138.183  0.00  0.00    +0.000 OA
ATOM      2  O   UNL     1     111.275 125.519 136.010  0.00  0.00    +0.000 OA
ATOM      3  O   UNL     1     108.939 126.659 137.498  0.00  0.00    +0.000 OA
ATOM      4  C   UNL     1     111.094 125.591 136.812  0.00  0.00    +0.000 C 
ATOM      5  C   UNL     1     111.622 125.313 137.381  0.00  0.00    +0.000 C 
ATOM      6  C   UNL     1     110.384 125.943 137.044  0.00  0.00    +0.000 C 
ATOM      7  C   UNL     1     110.203 126.016 137.845  0.00  0.00    +0.000 A 
ATOM      8  C   UNL     1     110.731 125.737 138.415  0.00  0.00    +0.000 A 
ATOM      9  C   UNL     1     109.461 126.384 138.075  0.00  0.00    +0.000 A 
ATOM     10  C   UNL     1     110.553 125.808 139.253  0.00  0.00    +0.000 A 
ATOM     11  C   UNL     1     109.266 126.463 138.908  0.00  0.00    +0.000 A 
ATOM     12  C   UNL     1     109.816 126.173 139.501  0.00  0.00    +0.000 A 
ENDROOT
BRANCH   5  13
ATOM     13  C   UNL     1     112.331 124.962 137.149  0.00  0.00    +0.000 A 
ATOM     14  C   UNL     1     113.021 125.412 137.111  0.00  0.00    +0.000 A 
ATOM     15  C   UNL     1     112.351 124.160 136.955  0.00  0.00    +0.000 A 
ATOM     16  C   UNL     1     113.731 125.061 136.878  0.00  0.00    +0.000 A 
ATOM     17  C   UNL     1     113.060 123.809 136.723  0.00  0.00    +0.000 A 
ATOM     18  C   UNL     1     113.750 124.259 136.685  0.00  0.00    +0.000 A 
BRANCH  16  19
ATOM     19  O   UNL     1     114.421 125.511 136.840  0.00  0.00    +0.000 OA
ATOM     20  C   UNL     1     114.976 125.366 136.248  0.00  0.00    +0.000 C 
ENDBRANCH  16  19
ENDBRANCH   5  13
BRANCH  12  21
ATOM     21  O   UNL     1     109.637 126.245 140.303  0.00  0.00    +0.000 OA
BRANCH  21  22
ATOM     22  S   UNL     1     109.167 125.677 140.673  0.00  0.00    +0.000 S 
ATOM     23  O   UNL     1     108.348 125.778 140.705  0.00  0.00    +0.000 OA
ATOM     24  O   UNL     1     109.514 125.010 141.010  0.00  0.00    +0.000 OA
ENDBRANCH  21  22
ENDBRANCH  12  21
TORSDOF 4
ENDMDL
