MODEL 1
REMARK VINA RESULT:      -9.3      0.000      0.000
REMARK  Name = 131752322
REMARK  9 active torsions:
REMARK  status: ('A' for Active; 'I' for Inactive)
REMARK    1  A    between atoms: O_1  and  C_18
REMARK    2  A    between atoms: O_1  and  C_21
REMARK    3  A    between atoms: O_5  and  C_23
REMARK    4  A    between atoms: O_5  and  C_30
REMARK    5  A    between atoms: O_15  and  C_41
REMARK    6  A    between atoms: O_16  and  C_42
REMARK    7  A    between atoms: C_24  and  C_28
REMARK    8  A    between atoms: C_27  and  C_29
REMARK    9  A    between atoms: C_31  and  C_34
REMARK                            x       y       z     vdW  Elec       q    Type
REMARK                         _______ _______ _______ _____ _____    ______ ____
ROOT
ATOM      1  O   UNL     1     111.745 127.516 137.663  0.00  0.00    +0.000 OA
ENDROOT
BRANCH   1   5
ATOM      2  O   UNL     1     112.129 129.243 136.384  0.00  0.00    +0.000 OA
ATOM      3  O   UNL     1     113.199 127.099 137.005  0.00  0.00    +0.000 OA
ATOM      4  O   UNL     1     114.320 127.374 136.138  0.00  0.00    +0.000 OA
ATOM      5  C   UNL     1     112.116 128.022 137.127  0.00  0.00    +0.000 A 
ATOM      6  C   UNL     1     111.758 128.737 136.920  0.00  0.00    +0.000 A 
ATOM      7  C   UNL     1     112.842 127.814 136.798  0.00  0.00    +0.000 A 
ATOM      8  C   UNL     1     113.212 128.319 136.262  0.00  0.00    +0.000 A 
ATOM      9  C   UNL     1     112.856 129.034 136.054  0.00  0.00    +0.000 A 
ATOM     10  C   UNL     1     113.970 128.091 135.925  0.00  0.00    +0.000 A 
ATOM     11  C   UNL     1     113.231 129.570 135.497  0.00  0.00    +0.000 A 
ATOM     12  C   UNL     1     114.360 128.614 135.366  0.00  0.00    +0.000 A 
ATOM     13  C   UNL     1     113.989 129.358 135.150  0.00  0.00    +0.000 A 
BRANCH   6  15
ATOM     14  O   UNL     1     108.850 129.573 138.238  0.00  0.00    +0.000 OA
ATOM     15  C   UNL     1     111.032 128.946 137.249  0.00  0.00    +0.000 A 
ATOM     16  C   UNL     1     110.333 128.795 136.837  0.00  0.00    +0.000 A 
ATOM     17  C   UNL     1     111.003 129.306 137.991  0.00  0.00    +0.000 A 
ATOM     18  C   UNL     1     109.606 129.003 137.166  0.00  0.00    +0.000 A 
ATOM     19  C   UNL     1     110.276 129.515 138.321  0.00  0.00    +0.000 A 
ATOM     20  C   UNL     1     109.578 129.364 137.908  0.00  0.00    +0.000 A 
BRANCH  18  21
ATOM     21  O   UNL     1     108.907 128.852 136.754  0.00  0.00    +0.000 OA
ATOM     22  C   UNL     1     108.858 129.026 135.949  0.00  0.00    +0.000 C 
ENDBRANCH  18  21
ENDBRANCH   6  15
BRANCH  13  23
ATOM     23  O   UNL     1     114.357 129.866 134.614  0.00  0.00    +0.000 OA
ATOM     24  C   UNL     1     114.950 130.378 134.872  0.00  0.00    +0.000 C 
ENDBRANCH  13  23
ENDBRANCH   1   5
BRANCH   1  31
ATOM     25  O   UNL     1     111.361 126.538 136.695  0.00  0.00    +0.000 OA
ATOM     26  O   UNL     1     111.679 124.750 138.376  0.00  0.00    +0.000 OA
ATOM     27  O   UNL     1     111.189 124.368 136.849  0.00  0.00    +0.000 OA
ATOM     28  C   UNL     1     111.712 126.133 138.020  0.00  0.00    +0.000 C 
ATOM     29  C   UNL     1     111.573 125.346 137.816  0.00  0.00    +0.000 C 
ATOM     30  C   UNL     1     111.328 125.155 137.052  0.00  0.00    +0.000 C 
ATOM     31  C   UNL     1     111.606 126.729 137.460  0.00  0.00    +0.000 C 
ATOM     32  C   UNL     1     111.222 125.751 136.492  0.00  0.00    +0.000 C 
BRANCH  32  34
ATOM     33  O   UNL     1     110.232 125.799 135.462  0.00  0.00    +0.000 OA
ATOM     34  C   UNL     1     110.977 125.560 135.728  0.00  0.00    +0.000 C 
ENDBRANCH  32  34
BRANCH  28  35
ATOM     35  O   UNL     1     111.957 126.324 138.784  0.00  0.00    +0.000 OA
BRANCH  35  40
ATOM     36  O   UNL     1     110.620 126.152 139.257  0.00  0.00    +0.000 OA
ATOM     37  O   UNL     1     112.436 126.764 140.301  0.00  0.00    +0.000 OA
ATOM     38  O   UNL     1     111.338 126.811 141.531  0.00  0.00    +0.000 OA
ATOM     39  O   UNL     1     109.761 126.418 141.246  0.00  0.00    +0.000 OA
ATOM     40  C   UNL     1     111.408 126.348 139.399  0.00  0.00    +0.000 C 
ATOM     41  C   UNL     1     111.648 126.568 140.158  0.00  0.00    +0.000 C 
ATOM     42  C   UNL     1     111.099 126.591 140.774  0.00  0.00    +0.000 C 
ATOM     43  C   UNL     1     110.310 126.394 140.630  0.00  0.00    +0.000 C 
ATOM     44  C   UNL     1     110.071 126.175 139.873  0.00  0.00    +0.000 C 
BRANCH  44  46
ATOM     45  O   UNL     1     108.814 126.468 139.260  0.00  0.00    +0.000 OA
ATOM     46  C   UNL     1     109.282 125.978 139.729  0.00  0.00    +0.000 C 
ENDBRANCH  44  46
ENDBRANCH  35  40
ENDBRANCH  28  35
ENDBRANCH   1  31
TORSDOF 9
ENDMDL
MODEL 2
REMARK VINA RESULT:      -9.2      1.970      3.639
REMARK  Name = 131752322
REMARK  9 active torsions:
REMARK  status: ('A' for Active; 'I' for Inactive)
REMARK    1  A    between atoms: O_1  and  C_18
REMARK    2  A    between atoms: O_1  and  C_21
REMARK    3  A    between atoms: O_5  and  C_23
REMARK    4  A    between atoms: O_5  and  C_30
REMARK    5  A    between atoms: O_15  and  C_41
REMARK    6  A    between atoms: O_16  and  C_42
REMARK    7  A    between atoms: C_24  and  C_28
REMARK    8  A    between atoms: C_27  and  C_29
REMARK    9  A    between atoms: C_31  and  C_34
REMARK                            x       y       z     vdW  Elec       q    Type
REMARK                         _______ _______ _______ _____ _____    ______ ____
ROOT
ATOM      1  O   UNL     1     112.406 127.550 138.232  0.00  0.00    +0.000 OA
ENDROOT
BRANCH   1   5
ATOM      2  O   UNL     1     113.309 129.533 138.344  0.00  0.00    +0.000 OA
ATOM      3  O   UNL     1     112.790 127.626 139.835  0.00  0.00    +0.000 OA
ATOM      4  O   UNL     1     113.347 128.324 140.969  0.00  0.00    +0.000 OA
ATOM      5  C   UNL     1     112.771 128.224 138.537  0.00  0.00    +0.000 A 
ATOM      6  C   UNL     1     112.944 128.859 138.040  0.00  0.00    +0.000 A 
ATOM      7  C   UNL     1     112.963 128.262 139.338  0.00  0.00    +0.000 A 
ATOM      8  C   UNL     1     113.328 128.936 139.642  0.00  0.00    +0.000 A 
ATOM      9  C   UNL     1     113.502 129.572 139.146  0.00  0.00    +0.000 A 
ATOM     10  C   UNL     1     113.524 128.964 140.479  0.00  0.00    +0.000 A 
ATOM     11  C   UNL     1     113.882 130.279 139.451  0.00  0.00    +0.000 A 
ATOM     12  C   UNL     1     113.904 129.664 140.802  0.00  0.00    +0.000 A 
ATOM     13  C   UNL     1     114.085 130.326 140.285  0.00  0.00    +0.000 A 
BRANCH   6  15
ATOM     14  O   UNL     1     112.176 128.706 134.834  0.00  0.00    +0.000 OA
ATOM     15  C   UNL     1     112.752 128.821 137.239  0.00  0.00    +0.000 A 
ATOM     16  C   UNL     1     112.060 129.175 136.962  0.00  0.00    +0.000 A 
ATOM     17  C   UNL     1     113.253 128.428 136.713  0.00  0.00    +0.000 A 
ATOM     18  C   UNL     1     111.868 129.136 136.161  0.00  0.00    +0.000 A 
ATOM     19  C   UNL     1     113.061 128.390 135.911  0.00  0.00    +0.000 A 
ATOM     20  C   UNL     1     112.368 128.744 135.636  0.00  0.00    +0.000 A 
BRANCH  18  21
ATOM     21  O   UNL     1     111.176 129.490 135.885  0.00  0.00    +0.000 OA
ATOM     22  C   UNL     1     110.941 130.224 136.182  0.00  0.00    +0.000 C 
ENDBRANCH  18  21
ENDBRANCH   6  15
BRANCH  13  23
ATOM     23  O   UNL     1     114.450 131.001 140.587  0.00  0.00    +0.000 OA
ATOM     24  C   UNL     1     115.267 131.014 140.696  0.00  0.00    +0.000 C 
ENDBRANCH  13  23
ENDBRANCH   1   5
BRANCH   1  31
ATOM     25  O   UNL     1     111.128 127.797 138.821  0.00  0.00    +0.000 OA
ATOM     26  O   UNL     1     110.785 125.362 139.101  0.00  0.00    +0.000 OA
ATOM     27  O   UNL     1     109.622 126.422 139.596  0.00  0.00    +0.000 OA
ATOM     28  C   UNL     1     111.596 126.455 138.666  0.00  0.00    +0.000 C 
ATOM     29  C   UNL     1     110.899 126.174 139.008  0.00  0.00    +0.000 C 
ATOM     30  C   UNL     1     110.318 126.703 139.255  0.00  0.00    +0.000 C 
ATOM     31  C   UNL     1     111.710 127.267 138.573  0.00  0.00    +0.000 C 
ATOM     32  C   UNL     1     110.432 127.515 139.162  0.00  0.00    +0.000 C 
BRANCH  32  34
ATOM     33  O   UNL     1     109.447 128.503 138.853  0.00  0.00    +0.000 OA
ATOM     34  C   UNL     1     109.850 128.045 139.409  0.00  0.00    +0.000 C 
ENDBRANCH  32  34
BRANCH  28  35
ATOM     35  O   UNL     1     112.177 125.926 138.419  0.00  0.00    +0.000 OA
BRANCH  35  40
ATOM     36  O   UNL     1     111.405 125.620 137.256  0.00  0.00    +0.000 OA
ATOM     37  O   UNL     1     113.319 124.831 137.948  0.00  0.00    +0.000 OA
ATOM     38  O   UNL     1     113.117 123.978 136.551  0.00  0.00    +0.000 OA
ATOM     39  O   UNL     1     111.773 124.219 135.624  0.00  0.00    +0.000 OA
ATOM     40  C   UNL     1     112.076 125.499 137.720  0.00  0.00    +0.000 C 
ATOM     41  C   UNL     1     112.647 124.952 137.484  0.00  0.00    +0.000 C 
ATOM     42  C   UNL     1     112.546 124.525 136.786  0.00  0.00    +0.000 C 
ATOM     43  C   UNL     1     111.874 124.646 136.323  0.00  0.00    +0.000 C 
ATOM     44  C   UNL     1     111.304 125.193 136.558  0.00  0.00    +0.000 C 
BRANCH  44  46
ATOM     45  O   UNL     1     110.557 126.002 135.647  0.00  0.00    +0.000 OA
ATOM     46  C   UNL     1     110.632 125.314 136.094  0.00  0.00    +0.000 C 
ENDBRANCH  44  46
ENDBRANCH  35  40
ENDBRANCH  28  35
ENDBRANCH   1  31
TORSDOF 9
ENDMDL
MODEL 3
REMARK VINA RESULT:      -9.1      1.856      4.448
REMARK  Name = 131752322
REMARK  9 active torsions:
REMARK  status: ('A' for Active; 'I' for Inactive)
REMARK    1  A    between atoms: O_1  and  C_18
REMARK    2  A    between atoms: O_1  and  C_21
REMARK    3  A    between atoms: O_5  and  C_23
REMARK    4  A    between atoms: O_5  and  C_30
REMARK    5  A    between atoms: O_15  and  C_41
REMARK    6  A    between atoms: O_16  and  C_42
REMARK    7  A    between atoms: C_24  and  C_28
REMARK    8  A    between atoms: C_27  and  C_29
REMARK    9  A    between atoms: C_31  and  C_34
REMARK                            x       y       z     vdW  Elec       q    Type
REMARK                         _______ _______ _______ _____ _____    ______ ____
ROOT
ATOM      1  O   UNL     1     111.304 129.060 137.601  0.00  0.00    +0.000 OA
ENDROOT
BRANCH   1   5
ATOM      2  O   UNL     1     113.059 127.793 137.323  0.00  0.00    +0.000 OA
ATOM      3  O   UNL     1     110.662 127.570 137.900  0.00  0.00    +0.000 OA
ATOM      4  O   UNL     1     110.793 126.138 138.014  0.00  0.00    +0.000 OA
ATOM      5  C   UNL     1     111.782 128.389 137.559  0.00  0.00    +0.000 A 
ATOM      6  C   UNL     1     112.581 128.464 137.366  0.00  0.00    +0.000 A 
ATOM      7  C   UNL     1     111.461 127.645 137.708  0.00  0.00    +0.000 A 
ATOM      8  C   UNL     1     111.939 126.974 137.665  0.00  0.00    +0.000 A 
ATOM      9  C   UNL     1     112.738 127.047 137.473  0.00  0.00    +0.000 A 
ATOM     10  C   UNL     1     111.593 126.202 137.823  0.00  0.00    +0.000 A 
ATOM     11  C   UNL     1     113.246 126.357 137.425  0.00  0.00    +0.000 A 
ATOM     12  C   UNL     1     112.086 125.500 137.780  0.00  0.00    +0.000 A 
ATOM     13  C   UNL     1     112.918 125.577 137.580  0.00  0.00    +0.000 A 
BRANCH   6  15
ATOM     14  O   UNL     1     113.865 131.445 136.768  0.00  0.00    +0.000 OA
ATOM     15  C   UNL     1     112.901 129.209 137.217  0.00  0.00    +0.000 A 
ATOM     16  C   UNL     1     113.135 129.692 137.844  0.00  0.00    +0.000 A 
ATOM     17  C   UNL     1     112.989 129.472 136.440  0.00  0.00    +0.000 A 
ATOM     18  C   UNL     1     113.456 130.436 137.695  0.00  0.00    +0.000 A 
ATOM     19  C   UNL     1     113.310 130.218 136.290  0.00  0.00    +0.000 A 
ATOM     20  C   UNL     1     113.543 130.699 136.918  0.00  0.00    +0.000 A 
BRANCH  18  21
ATOM     21  O   UNL     1     113.690 130.919 138.322  0.00  0.00    +0.000 OA
ATOM     22  C   UNL     1     113.999 130.582 139.008  0.00  0.00    +0.000 C 
ENDBRANCH  18  21
ENDBRANCH   6  15
BRANCH  13  23
ATOM     23  O   UNL     1     113.399 124.908 137.536  0.00  0.00    +0.000 OA
ATOM     24  C   UNL     1     113.499 124.518 136.816  0.00  0.00    +0.000 C 
ENDBRANCH  13  23
ENDBRANCH   1   5
BRANCH   1  31
ATOM     25  O   UNL     1     110.587 128.798 136.393  0.00  0.00    +0.000 OA
ATOM     26  O   UNL     1     108.558 129.820 137.376  0.00  0.00    +0.000 OA
ATOM     27  O   UNL     1     108.517 129.217 135.841  0.00  0.00    +0.000 OA
ATOM     28  C   UNL     1     109.931 129.441 137.489  0.00  0.00    +0.000 C 
ATOM     29  C   UNL     1     109.234 129.479 137.048  0.00  0.00    +0.000 C 
ATOM     30  C   UNL     1     109.213 129.178 136.281  0.00  0.00    +0.000 C 
ATOM     31  C   UNL     1     110.607 129.100 137.162  0.00  0.00    +0.000 C 
ATOM     32  C   UNL     1     109.890 128.837 135.954  0.00  0.00    +0.000 C 
BRANCH  32  34
ATOM     33  O   UNL     1     110.384 128.833 134.613  0.00  0.00    +0.000 OA
ATOM     34  C   UNL     1     109.870 128.535 135.187  0.00  0.00    +0.000 C 
ENDBRANCH  32  34
BRANCH  28  35
ATOM     35  O   UNL     1     109.951 129.742 138.256  0.00  0.00    +0.000 OA
BRANCH  35  40
ATOM     36  O   UNL     1     110.029 131.070 137.733  0.00  0.00    +0.000 OA
ATOM     37  O   UNL     1     110.063 130.340 139.790  0.00  0.00    +0.000 OA
ATOM     38  O   UNL     1     110.196 131.967 140.033  0.00  0.00    +0.000 OA
ATOM     39  O   UNL     1     110.218 132.995 138.743  0.00  0.00    +0.000 OA
ATOM     40  C   UNL     1     110.018 130.555 138.378  0.00  0.00    +0.000 C 
ATOM     41  C   UNL     1     110.074 130.855 139.145  0.00  0.00    +0.000 C 
ATOM     42  C   UNL     1     110.141 131.668 139.267  0.00  0.00    +0.000 C 
ATOM     43  C   UNL     1     110.151 132.182 138.621  0.00  0.00    +0.000 C 
ATOM     44  C   UNL     1     110.096 131.883 137.855  0.00  0.00    +0.000 C 
BRANCH  44  46
ATOM     45  O   UNL     1     110.766 132.425 136.715  0.00  0.00    +0.000 OA
ATOM     46  C   UNL     1     110.106 132.397 137.209  0.00  0.00    +0.000 C 
ENDBRANCH  44  46
ENDBRANCH  35  40
ENDBRANCH  28  35
ENDBRANCH   1  31
TORSDOF 9
ENDMDL
MODEL 4
REMARK VINA RESULT:      -9.1      2.097      4.186
REMARK  Name = 131752322
REMARK  9 active torsions:
REMARK  status: ('A' for Active; 'I' for Inactive)
REMARK    1  A    between atoms: O_1  and  C_18
REMARK    2  A    between atoms: O_1  and  C_21
REMARK    3  A    between atoms: O_5  and  C_23
REMARK    4  A    between atoms: O_5  and  C_30
REMARK    5  A    between atoms: O_15  and  C_41
REMARK    6  A    between atoms: O_16  and  C_42
REMARK    7  A    between atoms: C_24  and  C_28
REMARK    8  A    between atoms: C_27  and  C_29
REMARK    9  A    between atoms: C_31  and  C_34
REMARK                            x       y       z     vdW  Elec       q    Type
REMARK                         _______ _______ _______ _____ _____    ______ ____
ROOT
ATOM      1  O   UNL     1     111.531 128.856 137.612  0.00  0.00    +0.000 OA
ENDROOT
BRANCH   1   5
ATOM      2  O   UNL     1     111.942 127.233 136.213  0.00  0.00    +0.000 OA
ATOM      3  O   UNL     1     112.414 127.840 138.566  0.00  0.00    +0.000 OA
ATOM      4  O   UNL     1     113.153 126.617 138.764  0.00  0.00    +0.000 OA
ATOM      5  C   UNL     1     111.815 128.146 137.305  0.00  0.00    +0.000 A 
ATOM      6  C   UNL     1     111.657 127.943 136.521  0.00  0.00    +0.000 A 
ATOM      7  C   UNL     1     112.257 127.638 137.781  0.00  0.00    +0.000 A 
ATOM      8  C   UNL     1     112.541 126.927 137.474  0.00  0.00    +0.000 A 
ATOM      9  C   UNL     1     112.384 126.724 136.690  0.00  0.00    +0.000 A 
ATOM     10  C   UNL     1     113.001 126.406 137.980  0.00  0.00    +0.000 A 
ATOM     11  C   UNL     1     112.675 125.987 136.358  0.00  0.00    +0.000 A 
ATOM     12  C   UNL     1     113.300 125.665 137.666  0.00  0.00    +0.000 A 
ATOM     13  C   UNL     1     113.136 125.453 136.849  0.00  0.00    +0.000 A 
BRANCH   6  15
ATOM     14  O   UNL     1     109.890 129.975 134.613  0.00  0.00    +0.000 OA
ATOM     15  C   UNL     1     111.216 128.451 136.044  0.00  0.00    +0.000 A 
ATOM     16  C   UNL     1     110.392 128.455 136.097  0.00  0.00    +0.000 A 
ATOM     17  C   UNL     1     111.597 128.955 135.514  0.00  0.00    +0.000 A 
ATOM     18  C   UNL     1     109.951 128.963 135.620  0.00  0.00    +0.000 A 
ATOM     19  C   UNL     1     111.155 129.463 135.037  0.00  0.00    +0.000 A 
ATOM     20  C   UNL     1     110.332 129.467 135.090  0.00  0.00    +0.000 A 
BRANCH  18  21
ATOM     21  O   UNL     1     109.127 128.967 135.673  0.00  0.00    +0.000 OA
ATOM     22  C   UNL     1     108.719 128.262 135.805  0.00  0.00    +0.000 C 
ENDBRANCH  18  21
ENDBRANCH   6  15
BRANCH  13  23
ATOM     23  O   UNL     1     113.419 124.743 136.539  0.00  0.00    +0.000 OA
ATOM     24  C   UNL     1     112.973 124.053 136.613  0.00  0.00    +0.000 C 
ENDBRANCH  13  23
ENDBRANCH   1   5
BRANCH   1  31
ATOM     25  O   UNL     1     112.792 129.527 137.632  0.00  0.00    +0.000 OA
ATOM     26  O   UNL     1     112.126 130.719 139.696  0.00  0.00    +0.000 OA
ATOM     27  O   UNL     1     113.609 130.992 139.028  0.00  0.00    +0.000 OA
ATOM     28  C   UNL     1     111.828 129.788 138.655  0.00  0.00    +0.000 C 
ATOM     29  C   UNL     1     112.348 130.322 139.008  0.00  0.00    +0.000 C 
ATOM     30  C   UNL     1     113.089 130.459 138.674  0.00  0.00    +0.000 C 
ATOM     31  C   UNL     1     112.050 129.390 137.966  0.00  0.00    +0.000 C 
ATOM     32  C   UNL     1     113.311 130.061 137.986  0.00  0.00    +0.000 C 
BRANCH  32  34
ATOM     33  O   UNL     1     114.110 130.495 136.883  0.00  0.00    +0.000 OA
ATOM     34  C   UNL     1     114.053 130.198 137.651  0.00  0.00    +0.000 C 
ENDBRANCH  32  34
BRANCH  28  35
ATOM     35  O   UNL     1     111.087 129.651 138.989  0.00  0.00    +0.000 OA
BRANCH  35  40
ATOM     36  O   UNL     1     110.614 130.888 138.453  0.00  0.00    +0.000 OA
ATOM     37  O   UNL     1     109.577 129.328 139.572  0.00  0.00    +0.000 OA
ATOM     38  O   UNL     1     108.351 130.405 139.328  0.00  0.00    +0.000 OA
ATOM     39  O   UNL     1     108.634 131.804 138.500  0.00  0.00    +0.000 OA
ATOM     40  C   UNL     1     110.474 130.189 138.866  0.00  0.00    +0.000 C 
ATOM     41  C   UNL     1     109.718 130.028 139.158  0.00  0.00    +0.000 C 
ATOM     42  C   UNL     1     109.105 130.566 139.036  0.00  0.00    +0.000 C 
ATOM     43  C   UNL     1     109.247 131.266 138.622  0.00  0.00    +0.000 C 
ATOM     44  C   UNL     1     110.001 131.427 138.330  0.00  0.00    +0.000 C 
BRANCH  44  46
ATOM     45  O   UNL     1     110.313 132.101 137.110  0.00  0.00    +0.000 OA
ATOM     46  C   UNL     1     110.144 132.126 137.916  0.00  0.00    +0.000 C 
ENDBRANCH  44  46
ENDBRANCH  35  40
ENDBRANCH  28  35
ENDBRANCH   1  31
TORSDOF 9
ENDMDL
MODEL 5
REMARK VINA RESULT:      -9.0      2.106      3.434
REMARK  Name = 131752322
REMARK  9 active torsions:
REMARK  status: ('A' for Active; 'I' for Inactive)
REMARK    1  A    between atoms: O_1  and  C_18
REMARK    2  A    between atoms: O_1  and  C_21
REMARK    3  A    between atoms: O_5  and  C_23
REMARK    4  A    between atoms: O_5  and  C_30
REMARK    5  A    between atoms: O_15  and  C_41
REMARK    6  A    between atoms: O_16  and  C_42
REMARK    7  A    between atoms: C_24  and  C_28
REMARK    8  A    between atoms: C_27  and  C_29
REMARK    9  A    between atoms: C_31  and  C_34
REMARK                            x       y       z     vdW  Elec       q    Type
REMARK                         _______ _______ _______ _____ _____    ______ ____
ROOT
ATOM      1  O   UNL     1     111.485 126.370 138.961  0.00  0.00    +0.000 OA
ENDROOT
BRANCH   1   5
ATOM      2  O   UNL     1     113.633 126.238 138.596  0.00  0.00    +0.000 OA
ATOM      3  O   UNL     1     111.528 125.231 137.768  0.00  0.00    +0.000 OA
ATOM      4  O   UNL     1     112.256 124.408 136.833  0.00  0.00    +0.000 OA
ATOM      5  C   UNL     1     112.208 126.136 138.640  0.00  0.00    +0.000 A 
ATOM      6  C   UNL     1     112.909 126.472 138.916  0.00  0.00    +0.000 A 
ATOM      7  C   UNL     1     112.230 125.567 138.044  0.00  0.00    +0.000 A 
ATOM      8  C   UNL     1     112.953 125.333 137.724  0.00  0.00    +0.000 A 
ATOM      9  C   UNL     1     113.654 125.668 137.999  0.00  0.00    +0.000 A 
ATOM     10  C   UNL     1     112.963 124.738 137.102  0.00  0.00    +0.000 A 
ATOM     11  C   UNL     1     114.414 125.433 137.673  0.00  0.00    +0.000 A 
ATOM     12  C   UNL     1     113.713 124.491 136.765  0.00  0.00    +0.000 A 
ATOM     13  C   UNL     1     114.444 124.840 137.051  0.00  0.00    +0.000 A 
BRANCH   6  15
ATOM     14  O   UNL     1     112.823 128.750 141.303  0.00  0.00    +0.000 OA
ATOM     15  C   UNL     1     112.888 127.042 139.512  0.00  0.00    +0.000 A 
ATOM     16  C   UNL     1     112.906 127.844 139.319  0.00  0.00    +0.000 A 
ATOM     17  C   UNL     1     112.849 126.809 140.303  0.00  0.00    +0.000 A 
ATOM     18  C   UNL     1     112.884 128.413 139.915  0.00  0.00    +0.000 A 
ATOM     19  C   UNL     1     112.827 127.379 140.900  0.00  0.00    +0.000 A 
ATOM     20  C   UNL     1     112.845 128.181 140.705  0.00  0.00    +0.000 A 
BRANCH  18  21
ATOM     21  O   UNL     1     112.902 129.215 139.721  0.00  0.00    +0.000 OA
ATOM     22  C   UNL     1     113.411 129.485 139.131  0.00  0.00    +0.000 C 
ENDBRANCH  18  21
ENDBRANCH   6  15
BRANCH  13  23
ATOM     23  O   UNL     1     115.168 124.608 136.732  0.00  0.00    +0.000 OA
ATOM     24  C   UNL     1     115.456 124.976 136.053  0.00  0.00    +0.000 C 
ENDBRANCH  13  23
ENDBRANCH   1   5
BRANCH   1  31
ATOM     25  O   UNL     1     111.055 127.117 137.821  0.00  0.00    +0.000 OA
ATOM     26  O   UNL     1     108.713 126.457 138.271  0.00  0.00    +0.000 OA
ATOM     27  O   UNL     1     109.064 127.423 136.982  0.00  0.00    +0.000 OA
ATOM     28  C   UNL     1     110.099 126.413 138.617  0.00  0.00    +0.000 C 
ATOM     29  C   UNL     1     109.494 126.677 138.121  0.00  0.00    +0.000 C 
ATOM     30  C   UNL     1     109.669 127.160 137.477  0.00  0.00    +0.000 C 
ATOM     31  C   UNL     1     110.879 126.633 138.467  0.00  0.00    +0.000 C 
ATOM     32  C   UNL     1     110.450 127.380 137.327  0.00  0.00    +0.000 C 
BRANCH  32  34
ATOM     33  O   UNL     1     110.960 128.609 136.804  0.00  0.00    +0.000 OA
ATOM     34  C   UNL     1     110.626 127.863 136.682  0.00  0.00    +0.000 C 
ENDBRANCH  32  34
BRANCH  28  35
ATOM     35  O   UNL     1     109.923 125.930 139.261  0.00  0.00    +0.000 OA
BRANCH  35  40
ATOM     36  O   UNL     1     109.574 127.076 140.041  0.00  0.00    +0.000 OA
ATOM     37  O   UNL     1     109.318 124.945 140.439  0.00  0.00    +0.000 OA
ATOM     38  O   UNL     1     108.667 125.600 141.807  0.00  0.00    +0.000 OA
ATOM     39  O   UNL     1     108.620 127.238 141.996  0.00  0.00    +0.000 OA
ATOM     40  C   UNL     1     109.598 126.257 139.945  0.00  0.00    +0.000 C 
ATOM     41  C   UNL     1     109.295 125.764 140.535  0.00  0.00    +0.000 C 
ATOM     42  C   UNL     1     108.969 126.091 141.218  0.00  0.00    +0.000 C 
ATOM     43  C   UNL     1     108.946 126.911 141.313  0.00  0.00    +0.000 C 
ATOM     44  C   UNL     1     109.249 127.403 140.724  0.00  0.00    +0.000 C 
BRANCH  44  46
ATOM     45  O   UNL     1     108.659 128.668 140.420  0.00  0.00    +0.000 OA
ATOM     46  C   UNL     1     109.226 128.222 140.819  0.00  0.00    +0.000 C 
ENDBRANCH  44  46
ENDBRANCH  35  40
ENDBRANCH  28  35
ENDBRANCH   1  31
TORSDOF 9
ENDMDL
MODEL 6
REMARK VINA RESULT:      -9.0      1.867      3.588
REMARK  Name = 131752322
REMARK  9 active torsions:
REMARK  status: ('A' for Active; 'I' for Inactive)
REMARK    1  A    between atoms: O_1  and  C_18
REMARK    2  A    between atoms: O_1  and  C_21
REMARK    3  A    between atoms: O_5  and  C_23
REMARK    4  A    between atoms: O_5  and  C_30
REMARK    5  A    between atoms: O_15  and  C_41
REMARK    6  A    between atoms: O_16  and  C_42
REMARK    7  A    between atoms: C_24  and  C_28
REMARK    8  A    between atoms: C_27  and  C_29
REMARK    9  A    between atoms: C_31  and  C_34
REMARK                            x       y       z     vdW  Elec       q    Type
REMARK                         _______ _______ _______ _____ _____    ______ ____
ROOT
ATOM      1  O   UNL     1     112.056 127.512 137.748  0.00  0.00    +0.000 OA
ENDROOT
BRANCH   1   5
ATOM      2  O   UNL     1     113.327 129.208 138.266  0.00  0.00    +0.000 OA
ATOM      3  O   UNL     1     112.346 127.207 139.343  0.00  0.00    +0.000 OA
ATOM      4  O   UNL     1     112.959 127.550 140.604  0.00  0.00    +0.000 OA
ATOM      5  C   UNL     1     112.528 128.027 138.186  0.00  0.00    +0.000 A 
ATOM      6  C   UNL     1     112.855 128.694 137.827  0.00  0.00    +0.000 A 
ATOM      7  C   UNL     1     112.673 127.874 138.983  0.00  0.00    +0.000 A 
ATOM      8  C   UNL     1     113.146 128.389 139.422  0.00  0.00    +0.000 A 
ATOM      9  C   UNL     1     113.473 129.056 139.064  0.00  0.00    +0.000 A 
ATOM     10  C   UNL     1     113.290 128.219 140.253  0.00  0.00    +0.000 A 
ATOM     11  C   UNL     1     113.967 129.600 139.510  0.00  0.00    +0.000 A 
ATOM     12  C   UNL     1     113.781 128.752 140.715  0.00  0.00    +0.000 A 
ATOM     13  C   UNL     1     114.122 129.447 140.342  0.00  0.00    +0.000 A 
BRANCH   6  15
ATOM     14  O   UNL     1     112.275 129.304 134.636  0.00  0.00    +0.000 OA
ATOM     15  C   UNL     1     112.710 128.846 137.030  0.00  0.00    +0.000 A 
ATOM     16  C   UNL     1     112.015 129.229 136.802  0.00  0.00    +0.000 A 
ATOM     17  C   UNL     1     113.260 128.616 136.460  0.00  0.00    +0.000 A 
ATOM     18  C   UNL     1     111.870 129.382 136.005  0.00  0.00    +0.000 A 
ATOM     19  C   UNL     1     113.115 128.768 135.661  0.00  0.00    +0.000 A 
ATOM     20  C   UNL     1     112.420 129.151 135.435  0.00  0.00    +0.000 A 
BRANCH  18  21
ATOM     21  O   UNL     1     111.176 129.764 135.777  0.00  0.00    +0.000 OA
ATOM     22  C   UNL     1     110.762 130.225 136.322  0.00  0.00    +0.000 C 
ENDBRANCH  18  21
ENDBRANCH   6  15
BRANCH  13  23
ATOM     23  O   UNL     1     114.595 129.963 140.778  0.00  0.00    +0.000 OA
ATOM     24  C   UNL     1     114.279 130.669 141.064  0.00  0.00    +0.000 C 
ENDBRANCH  13  23
ENDBRANCH   1   5
BRANCH   1  31
ATOM     25  O   UNL     1     113.030 126.472 137.640  0.00  0.00    +0.000 OA
ATOM     26  O   UNL     1     111.230 124.776 137.747  0.00  0.00    +0.000 OA
ATOM     27  O   UNL     1     112.803 124.302 137.605  0.00  0.00    +0.000 OA
ATOM     28  C   UNL     1     111.642 126.144 137.747  0.00  0.00    +0.000 C 
ATOM     29  C   UNL     1     111.830 125.341 137.712  0.00  0.00    +0.000 C 
ATOM     30  C   UNL     1     112.616 125.104 137.640  0.00  0.00    +0.000 C 
ATOM     31  C   UNL     1     112.242 126.709 137.712  0.00  0.00    +0.000 C 
ATOM     32  C   UNL     1     113.216 125.669 137.605  0.00  0.00    +0.000 C 
BRANCH  32  34
ATOM     33  O   UNL     1     114.438 125.645 136.865  0.00  0.00    +0.000 OA
ATOM     34  C   UNL     1     114.003 125.432 137.534  0.00  0.00    +0.000 C 
ENDBRANCH  32  34
BRANCH  28  35
ATOM     35  O   UNL     1     110.856 126.381 137.819  0.00  0.00    +0.000 OA
BRANCH  35  40
ATOM     36  O   UNL     1     110.640 126.104 136.433  0.00  0.00    +0.000 OA
ATOM     37  O   UNL     1     109.351 127.050 137.919  0.00  0.00    +0.000 OA
ATOM     38  O   UNL     1     108.382 127.107 136.585  0.00  0.00    +0.000 OA
ATOM     39  O   UNL     1     108.919 126.495 135.149  0.00  0.00    +0.000 OA
ATOM     40  C   UNL     1     110.372 126.410 137.151  0.00  0.00    +0.000 C 
ATOM     41  C   UNL     1     109.619 126.744 137.202  0.00  0.00    +0.000 C 
ATOM     42  C   UNL     1     109.134 126.773 136.534  0.00  0.00    +0.000 C 
ATOM     43  C   UNL     1     109.404 126.467 135.817  0.00  0.00    +0.000 C 
ATOM     44  C   UNL     1     110.156 126.133 135.766  0.00  0.00    +0.000 C 
BRANCH  44  46
ATOM     45  O   UNL     1     110.992 126.236 134.612  0.00  0.00    +0.000 OA
ATOM     46  C   UNL     1     110.425 125.827 135.048  0.00  0.00    +0.000 C 
ENDBRANCH  44  46
ENDBRANCH  35  40
ENDBRANCH  28  35
ENDBRANCH   1  31
TORSDOF 9
ENDMDL
MODEL 7
REMARK VINA RESULT:      -9.0      1.708      3.727
REMARK  Name = 131752322
REMARK  9 active torsions:
REMARK  status: ('A' for Active; 'I' for Inactive)
REMARK    1  A    between atoms: O_1  and  C_18
REMARK    2  A    between atoms: O_1  and  C_21
REMARK    3  A    between atoms: O_5  and  C_23
REMARK    4  A    between atoms: O_5  and  C_30
REMARK    5  A    between atoms: O_15  and  C_41
REMARK    6  A    between atoms: O_16  and  C_42
REMARK    7  A    between atoms: C_24  and  C_28
REMARK    8  A    between atoms: C_27  and  C_29
REMARK    9  A    between atoms: C_31  and  C_34
REMARK                            x       y       z     vdW  Elec       q    Type
REMARK                         _______ _______ _______ _____ _____    ______ ____
ROOT
ATOM      1  O   UNL     1     111.632 127.572 137.369  0.00  0.00    +0.000 OA
ENDROOT
BRANCH   1   5
ATOM      2  O   UNL     1     111.290 129.259 138.710  0.00  0.00    +0.000 OA
ATOM      3  O   UNL     1     111.547 128.816 136.289  0.00  0.00    +0.000 OA
ATOM      4  O   UNL     1     111.377 130.217 135.985  0.00  0.00    +0.000 OA
ATOM      5  C   UNL     1     111.504 128.342 137.636  0.00  0.00    +0.000 A 
ATOM      6  C   UNL     1     111.418 128.489 138.443  0.00  0.00    +0.000 A 
ATOM      7  C   UNL     1     111.461 128.963 137.096  0.00  0.00    +0.000 A 
ATOM      8  C   UNL     1     111.333 129.733 137.363  0.00  0.00    +0.000 A 
ATOM      9  C   UNL     1     111.247 129.882 138.170  0.00  0.00    +0.000 A 
ATOM     10  C   UNL     1     111.291 130.374 136.791  0.00  0.00    +0.000 A 
ATOM     11  C   UNL     1     111.114 130.679 138.462  0.00  0.00    +0.000 A 
ATOM     12  C   UNL     1     111.157 131.177 137.063  0.00  0.00    +0.000 A 
ATOM     13  C   UNL     1     111.068 131.332 137.904  0.00  0.00    +0.000 A 
BRANCH   6  15
ATOM     14  O   UNL     1     111.588 126.000 140.604  0.00  0.00    +0.000 OA
ATOM     15  C   UNL     1     111.461 127.867 138.983  0.00  0.00    +0.000 A 
ATOM     16  C   UNL     1     112.195 127.574 139.219  0.00  0.00    +0.000 A 
ATOM     17  C   UNL     1     110.769 127.537 139.287  0.00  0.00    +0.000 A 
ATOM     18  C   UNL     1     112.238 126.953 139.759  0.00  0.00    +0.000 A 
ATOM     19  C   UNL     1     110.811 126.914 139.828  0.00  0.00    +0.000 A 
ATOM     20  C   UNL     1     111.545 126.623 140.063  0.00  0.00    +0.000 A 
BRANCH  18  21
ATOM     21  O   UNL     1     112.972 126.660 139.995  0.00  0.00    +0.000 OA
ATOM     22  C   UNL     1     113.605 127.177 140.109  0.00  0.00    +0.000 C 
ENDBRANCH  18  21
ENDBRANCH   6  15
BRANCH  13  23
ATOM     23  O   UNL     1     110.940 132.101 138.174  0.00  0.00    +0.000 OA
ATOM     24  C   UNL     1     110.176 132.413 138.182  0.00  0.00    +0.000 C 
ENDBRANCH  13  23
ENDBRANCH   1   5
BRANCH   1  31
ATOM     25  O   UNL     1     110.319 127.382 136.837  0.00  0.00    +0.000 OA
ATOM     26  O   UNL     1     111.255 125.980 135.025  0.00  0.00    +0.000 OA
ATOM     27  O   UNL     1     109.631 126.258 135.098  0.00  0.00    +0.000 OA
ATOM     28  C   UNL     1     111.444 126.776 136.197  0.00  0.00    +0.000 C 
ATOM     29  C   UNL     1     110.943 126.448 135.629  0.00  0.00    +0.000 C 
ATOM     30  C   UNL     1     110.131 126.586 135.665  0.00  0.00    +0.000 C 
ATOM     31  C   UNL     1     111.132 127.243 136.801  0.00  0.00    +0.000 C 
ATOM     32  C   UNL     1     109.819 127.053 136.270  0.00  0.00    +0.000 C 
BRANCH  32  34
ATOM     33  O   UNL     1     108.574 126.937 136.962  0.00  0.00    +0.000 OA
ATOM     34  C   UNL     1     109.007 127.192 136.307  0.00  0.00    +0.000 C 
ENDBRANCH  32  34
BRANCH  28  35
ATOM     35  O   UNL     1     112.256 126.637 136.160  0.00  0.00    +0.000 OA
BRANCH  35  40
ATOM     36  O   UNL     1     112.058 125.321 136.679  0.00  0.00    +0.000 OA
ATOM     37  O   UNL     1     113.890 126.420 136.232  0.00  0.00    +0.000 OA
ATOM     38  O   UNL     1     114.509 124.995 136.787  0.00  0.00    +0.000 OA
ATOM     39  O   UNL     1     113.494 123.787 137.270  0.00  0.00    +0.000 OA
ATOM     40  C   UNL     1     112.565 125.925 136.438  0.00  0.00    +0.000 C 
ATOM     41  C   UNL     1     113.383 125.816 136.474  0.00  0.00    +0.000 C 
ATOM     42  C   UNL     1     113.692 125.103 136.751  0.00  0.00    +0.000 C 
ATOM     43  C   UNL     1     113.184 124.500 136.993  0.00  0.00    +0.000 C 
ATOM     44  C   UNL     1     112.368 124.608 136.957  0.00  0.00    +0.000 C 
BRANCH  44  46
ATOM     45  O   UNL     1     111.427 124.083 137.896  0.00  0.00    +0.000 OA
ATOM     46  C   UNL     1     111.860 124.004 137.198  0.00  0.00    +0.000 C 
ENDBRANCH  44  46
ENDBRANCH  35  40
ENDBRANCH  28  35
ENDBRANCH   1  31
TORSDOF 9
ENDMDL
MODEL 8
REMARK VINA RESULT:      -9.0      2.144      4.249
REMARK  Name = 131752322
REMARK  9 active torsions:
REMARK  status: ('A' for Active; 'I' for Inactive)
REMARK    1  A    between atoms: O_1  and  C_18
REMARK    2  A    between atoms: O_1  and  C_21
REMARK    3  A    between atoms: O_5  and  C_23
REMARK    4  A    between atoms: O_5  and  C_30
REMARK    5  A    between atoms: O_15  and  C_41
REMARK    6  A    between atoms: O_16  and  C_42
REMARK    7  A    between atoms: C_24  and  C_28
REMARK    8  A    between atoms: C_27  and  C_29
REMARK    9  A    between atoms: C_31  and  C_34
REMARK                            x       y       z     vdW  Elec       q    Type
REMARK                         _______ _______ _______ _____ _____    ______ ____
ROOT
ATOM      1  O   UNL     1     111.462 129.538 137.729  0.00  0.00    +0.000 OA
ENDROOT
BRANCH   1   5
ATOM      2  O   UNL     1     112.410 129.353 139.686  0.00  0.00    +0.000 OA
ATOM      3  O   UNL     1     112.849 130.399 137.486  0.00  0.00    +0.000 OA
ATOM      4  O   UNL     1     114.107 130.927 137.955  0.00  0.00    +0.000 OA
ATOM      5  C   UNL     1     112.010 129.620 138.341  0.00  0.00    +0.000 A 
ATOM      6  C   UNL     1     111.863 129.271 139.074  0.00  0.00    +0.000 A 
ATOM      7  C   UNL     1     112.702 130.050 138.219  0.00  0.00    +0.000 A 
ATOM      8  C   UNL     1     113.250 130.131 138.831  0.00  0.00    +0.000 A 
ATOM      9  C   UNL     1     113.104 129.783 139.564  0.00  0.00    +0.000 A 
ATOM     10  C   UNL     1     113.969 130.582 138.692  0.00  0.00    +0.000 A 
ATOM     11  C   UNL     1     113.666 129.861 140.210  0.00  0.00    +0.000 A 
ATOM     12  C   UNL     1     114.542 130.671 139.326  0.00  0.00    +0.000 A 
ATOM     13  C   UNL     1     114.391 130.308 140.090  0.00  0.00    +0.000 A 
BRANCH   6  15
ATOM     14  O   UNL     1     109.090 127.549 139.561  0.00  0.00    +0.000 OA
ATOM     15  C   UNL     1     111.170 128.841 139.196  0.00  0.00    +0.000 A 
ATOM     16  C   UNL     1     110.464 129.234 139.362  0.00  0.00    +0.000 A 
ATOM     17  C   UNL     1     111.183 128.017 139.151  0.00  0.00    +0.000 A 
ATOM     18  C   UNL     1     109.771 128.804 139.484  0.00  0.00    +0.000 A 
ATOM     19  C   UNL     1     110.489 127.586 139.273  0.00  0.00    +0.000 A 
ATOM     20  C   UNL     1     109.784 127.980 139.439  0.00  0.00    +0.000 A 
BRANCH  18  21
ATOM     21  O   UNL     1     109.065 129.197 139.651  0.00  0.00    +0.000 OA
ATOM     22  C   UNL     1     109.082 129.953 139.979  0.00  0.00    +0.000 C 
ENDBRANCH  18  21
ENDBRANCH   6  15
BRANCH  13  23
ATOM     23  O   UNL     1     114.936 130.388 140.703  0.00  0.00    +0.000 OA
ATOM     24  C   UNL     1     114.965 131.086 141.141  0.00  0.00    +0.000 C 
ENDBRANCH  13  23
ENDBRANCH   1   5
BRANCH   1  31
ATOM     25  O   UNL     1     112.234 128.610 136.964  0.00  0.00    +0.000 OA
ATOM     26  O   UNL     1     111.356 129.602 134.874  0.00  0.00    +0.000 OA
ATOM     27  O   UNL     1     112.419 128.343 134.807  0.00  0.00    +0.000 OA
ATOM     28  C   UNL     1     111.409 129.570 136.301  0.00  0.00    +0.000 C 
ATOM     29  C   UNL     1     111.648 129.271 135.571  0.00  0.00    +0.000 C 
ATOM     30  C   UNL     1     112.180 128.642 135.537  0.00  0.00    +0.000 C 
ATOM     31  C   UNL     1     111.701 129.240 136.998  0.00  0.00    +0.000 C 
ATOM     32  C   UNL     1     112.473 128.311 136.233  0.00  0.00    +0.000 C 
BRANCH  32  34
ATOM     33  O   UNL     1     112.790 126.944 136.503  0.00  0.00    +0.000 OA
ATOM     34  C   UNL     1     113.004 127.682 136.200  0.00  0.00    +0.000 C 
ENDBRANCH  32  34
BRANCH  28  35
ATOM     35  O   UNL     1     110.877 130.200 136.335  0.00  0.00    +0.000 OA
BRANCH  35  40
ATOM     36  O   UNL     1     109.798 129.305 136.055  0.00  0.00    +0.000 OA
ATOM     37  O   UNL     1     109.806 131.447 136.471  0.00  0.00    +0.000 OA
ATOM     38  O   UNL     1     108.192 131.176 136.259  0.00  0.00    +0.000 OA
ATOM     39  O   UNL     1     107.650 129.657 135.912  0.00  0.00    +0.000 OA
ATOM     40  C   UNL     1     110.070 130.064 136.229  0.00  0.00    +0.000 C 
ATOM     41  C   UNL     1     109.534 130.688 136.297  0.00  0.00    +0.000 C 
ATOM     42  C   UNL     1     108.727 130.552 136.191  0.00  0.00    +0.000 C 
ATOM     43  C   UNL     1     108.456 129.793 136.017  0.00  0.00    +0.000 C 
ATOM     44  C   UNL     1     108.992 129.169 135.950  0.00  0.00    +0.000 C 
BRANCH  44  46
ATOM     45  O   UNL     1     108.654 127.848 136.375  0.00  0.00    +0.000 OA
ATOM     46  C   UNL     1     108.721 128.409 135.776  0.00  0.00    +0.000 C 
ENDBRANCH  44  46
ENDBRANCH  35  40
ENDBRANCH  28  35
ENDBRANCH   1  31
TORSDOF 9
ENDMDL
MODEL 9
REMARK VINA RESULT:      -9.0      2.099      4.542
REMARK  Name = 131752322
REMARK  9 active torsions:
REMARK  status: ('A' for Active; 'I' for Inactive)
REMARK    1  A    between atoms: O_1  and  C_18
REMARK    2  A    between atoms: O_1  and  C_21
REMARK    3  A    between atoms: O_5  and  C_23
REMARK    4  A    between atoms: O_5  and  C_30
REMARK    5  A    between atoms: O_15  and  C_41
REMARK    6  A    between atoms: O_16  and  C_42
REMARK    7  A    between atoms: C_24  and  C_28
REMARK    8  A    between atoms: C_27  and  C_29
REMARK    9  A    between atoms: C_31  and  C_34
REMARK                            x       y       z     vdW  Elec       q    Type
REMARK                         _______ _______ _______ _____ _____    ______ ____
ROOT
ATOM      1  O   UNL     1     112.006 128.656 138.949  0.00  0.00    +0.000 OA
ENDROOT
BRANCH   1   5
ATOM      2  O   UNL     1     113.223 126.877 139.290  0.00  0.00    +0.000 OA
ATOM      3  O   UNL     1     112.332 128.199 137.397  0.00  0.00    +0.000 OA
ATOM      4  O   UNL     1     112.950 127.308 136.445  0.00  0.00    +0.000 OA
ATOM      5  C   UNL     1     112.466 127.987 138.804  0.00  0.00    +0.000 A 
ATOM      6  C   UNL     1     112.763 127.546 139.435  0.00  0.00    +0.000 A 
ATOM      7  C   UNL     1     112.629 127.759 138.028  0.00  0.00    +0.000 A 
ATOM      8  C   UNL     1     113.089 127.089 137.883  0.00  0.00    +0.000 A 
ATOM      9  C   UNL     1     113.386 126.648 138.514  0.00  0.00    +0.000 A 
ATOM     10  C   UNL     1     113.252 126.861 137.070  0.00  0.00    +0.000 A 
ATOM     11  C   UNL     1     113.866 125.949 138.376  0.00  0.00    +0.000 A 
ATOM     12  C   UNL     1     113.730 126.165 136.914  0.00  0.00    +0.000 A 
ATOM     13  C   UNL     1     114.040 125.705 137.570  0.00  0.00    +0.000 A 
BRANCH   6  15
ATOM     14  O   UNL     1     112.113 128.460 142.539  0.00  0.00    +0.000 OA
ATOM     15  C   UNL     1     112.601 127.774 140.210  0.00  0.00    +0.000 A 
ATOM     16  C   UNL     1     111.886 127.561 140.563  0.00  0.00    +0.000 A 
ATOM     17  C   UNL     1     113.153 128.217 140.634  0.00  0.00    +0.000 A 
ATOM     18  C   UNL     1     111.723 127.789 141.338  0.00  0.00    +0.000 A 
ATOM     19  C   UNL     1     112.990 128.446 141.411  0.00  0.00    +0.000 A 
ATOM     20  C   UNL     1     112.276 128.231 141.762  0.00  0.00    +0.000 A 
BRANCH  18  21
ATOM     21  O   UNL     1     111.009 127.575 141.691  0.00  0.00    +0.000 OA
ATOM     22  C   UNL     1     110.578 126.936 141.395  0.00  0.00    +0.000 C 
ENDBRANCH  18  21
ENDBRANCH   6  15
BRANCH  13  23
ATOM     23  O   UNL     1     114.500 125.036 137.428  0.00  0.00    +0.000 OA
ATOM     24  C   UNL     1     114.137 124.310 137.277  0.00  0.00    +0.000 C 
ENDBRANCH  13  23
ENDBRANCH   1   5
BRANCH   1  31
ATOM     25  O   UNL     1     113.006 129.600 138.559  0.00  0.00    +0.000 OA
ATOM     26  O   UNL     1     111.245 131.110 137.698  0.00  0.00    +0.000 OA
ATOM     27  O   UNL     1     112.831 131.550 137.596  0.00  0.00    +0.000 OA
ATOM     28  C   UNL     1     111.625 129.883 138.323  0.00  0.00    +0.000 C 
ATOM     29  C   UNL     1     111.832 130.607 137.985  0.00  0.00    +0.000 C 
ATOM     30  C   UNL     1     112.625 130.827 137.934  0.00  0.00    +0.000 C 
ATOM     31  C   UNL     1     112.212 129.380 138.610  0.00  0.00    +0.000 C 
ATOM     32  C   UNL     1     113.212 130.324 138.221  0.00  0.00    +0.000 C 
BRANCH  32  34
ATOM     33  O   UNL     1     114.448 130.651 138.859  0.00  0.00    +0.000 OA
ATOM     34  C   UNL     1     114.005 130.543 138.170  0.00  0.00    +0.000 C 
ENDBRANCH  32  34
BRANCH  28  35
ATOM     35  O   UNL     1     110.832 129.663 138.374  0.00  0.00    +0.000 OA
BRANCH  35  40
ATOM     36  O   UNL     1     110.658 130.546 139.484  0.00  0.00    +0.000 OA
ATOM     37  O   UNL     1     109.259 129.183 138.510  0.00  0.00    +0.000 OA
ATOM     38  O   UNL     1     108.299 129.826 139.687  0.00  0.00    +0.000 OA
ATOM     39  O   UNL     1     108.912 130.949 140.729  0.00  0.00    +0.000 OA
ATOM     40  C   UNL     1     110.352 129.985 138.963  0.00  0.00    +0.000 C 
ATOM     41  C   UNL     1     109.565 129.745 139.031  0.00  0.00    +0.000 C 
ATOM     42  C   UNL     1     109.085 130.066 139.620  0.00  0.00    +0.000 C 
ATOM     43  C   UNL     1     109.392 130.628 140.141  0.00  0.00    +0.000 C 
ATOM     44  C   UNL     1     110.178 130.868 140.073  0.00  0.00    +0.000 C 
BRANCH  44  46
ATOM     45  O   UNL     1     111.082 131.220 141.122  0.00  0.00    +0.000 OA
ATOM     46  C   UNL     1     110.485 131.429 140.594  0.00  0.00    +0.000 C 
ENDBRANCH  44  46
ENDBRANCH  35  40
ENDBRANCH  28  35
ENDBRANCH   1  31
TORSDOF 9
ENDMDL
MODEL 10
REMARK VINA RESULT:      -8.9      0.888      2.749
REMARK  Name = 131752322
REMARK  9 active torsions:
REMARK  status: ('A' for Active; 'I' for Inactive)
REMARK    1  A    between atoms: O_1  and  C_18
REMARK    2  A    between atoms: O_1  and  C_21
REMARK    3  A    between atoms: O_5  and  C_23
REMARK    4  A    between atoms: O_5  and  C_30
REMARK    5  A    between atoms: O_15  and  C_41
REMARK    6  A    between atoms: O_16  and  C_42
REMARK    7  A    between atoms: C_24  and  C_28
REMARK    8  A    between atoms: C_27  and  C_29
REMARK    9  A    between atoms: C_31  and  C_34
REMARK                            x       y       z     vdW  Elec       q    Type
REMARK                         _______ _______ _______ _____ _____    ______ ____
ROOT
ATOM      1  O   UNL     1     111.804 127.801 137.972  0.00  0.00    +0.000 OA
ENDROOT
BRANCH   1   5
ATOM      2  O   UNL     1     113.037 127.564 136.188  0.00  0.00    +0.000 OA
ATOM      3  O   UNL     1     112.357 129.342 137.769  0.00  0.00    +0.000 OA
ATOM      4  O   UNL     1     113.137 130.320 137.050  0.00  0.00    +0.000 OA
ATOM      5  C   UNL     1     112.307 127.979 137.344  0.00  0.00    +0.000 A 
ATOM      6  C   UNL     1     112.534 127.386 136.817  0.00  0.00    +0.000 A 
ATOM      7  C   UNL     1     112.584 128.749 137.242  0.00  0.00    +0.000 A 
ATOM      8  C   UNL     1     113.087 128.927 136.614  0.00  0.00    +0.000 A 
ATOM      9  C   UNL     1     113.314 128.335 136.086  0.00  0.00    +0.000 A 
ATOM     10  C   UNL     1     113.369 129.734 136.518  0.00  0.00    +0.000 A 
ATOM     11  C   UNL     1     113.838 128.507 135.427  0.00  0.00    +0.000 A 
ATOM     12  C   UNL     1     113.894 129.925 135.865  0.00  0.00    +0.000 A 
ATOM     13  C   UNL     1     114.130 129.308 135.316  0.00  0.00    +0.000 A 
BRANCH   6  15
ATOM     14  O   UNL     1     111.427 124.303 137.222  0.00  0.00    +0.000 OA
ATOM     15  C   UNL     1     112.257 126.616 136.918  0.00  0.00    +0.000 A 
ATOM     16  C   UNL     1     111.608 126.349 136.484  0.00  0.00    +0.000 A 
ATOM     17  C   UNL     1     112.630 126.111 137.453  0.00  0.00    +0.000 A 
ATOM     18  C   UNL     1     111.332 125.579 136.585  0.00  0.00    +0.000 A 
ATOM     19  C   UNL     1     112.353 125.340 137.555  0.00  0.00    +0.000 A 
ATOM     20  C   UNL     1     111.704 125.074 137.121  0.00  0.00    +0.000 A 
BRANCH  18  21
ATOM     21  O   UNL     1     110.682 125.313 136.151  0.00  0.00    +0.000 OA
ATOM     22  C   UNL     1     110.596 125.535 135.361  0.00  0.00    +0.000 C 
ENDBRANCH  18  21
ENDBRANCH   6  15
BRANCH  13  23
ATOM     23  O   UNL     1     114.634 129.483 134.686  0.00  0.00    +0.000 OA
ATOM     24  C   UNL     1     115.301 129.952 134.810  0.00  0.00    +0.000 C 
ENDBRANCH  13  23
ENDBRANCH   1   5
BRANCH   1  31
ATOM     25  O   UNL     1     110.658 128.459 137.428  0.00  0.00    +0.000 OA
ATOM     26  O   UNL     1     109.932 129.083 139.710  0.00  0.00    +0.000 OA
ATOM     27  O   UNL     1     109.029 129.532 138.405  0.00  0.00    +0.000 OA
ATOM     28  C   UNL     1     110.868 128.442 138.842  0.00  0.00    +0.000 C 
ATOM     29  C   UNL     1     110.174 128.875 138.949  0.00  0.00    +0.000 C 
ATOM     30  C   UNL     1     109.722 129.100 138.297  0.00  0.00    +0.000 C 
ATOM     31  C   UNL     1     111.110 128.234 138.081  0.00  0.00    +0.000 C 
ATOM     32  C   UNL     1     109.964 128.891 137.537  0.00  0.00    +0.000 C 
BRANCH  32  34
ATOM     33  O   UNL     1     109.128 128.542 136.432  0.00  0.00    +0.000 OA
ATOM     34  C   UNL     1     109.513 129.116 136.884  0.00  0.00    +0.000 C 
ENDBRANCH  32  34
BRANCH  28  35
ATOM     35  O   UNL     1     111.320 128.217 139.494  0.00  0.00    +0.000 OA
BRANCH  35  40
ATOM     36  O   UNL     1     110.378 127.184 139.792  0.00  0.00    +0.000 OA
ATOM     37  O   UNL     1     112.273 127.707 140.740  0.00  0.00    +0.000 OA
ATOM     38  O   UNL     1     111.809 126.420 141.661  0.00  0.00    +0.000 OA
ATOM     39  O   UNL     1     110.390 125.642 141.336  0.00  0.00    +0.000 OA
ATOM     40  C   UNL     1     111.087 127.574 139.954  0.00  0.00    +0.000 C 
ATOM     41  C   UNL     1     111.564 127.318 140.578  0.00  0.00    +0.000 C 
ATOM     42  C   UNL     1     111.332 126.674 141.039  0.00  0.00    +0.000 C 
ATOM     43  C   UNL     1     110.623 126.286 140.875  0.00  0.00    +0.000 C 
ATOM     44  C   UNL     1     110.146 126.541 140.253  0.00  0.00    +0.000 C 
BRANCH  44  46
ATOM     45  O   UNL     1     109.370 125.679 139.418  0.00  0.00    +0.000 OA
ATOM     46  C   UNL     1     109.436 126.152 140.090  0.00  0.00    +0.000 C 
ENDBRANCH  44  46
ENDBRANCH  35  40
ENDBRANCH  28  35
ENDBRANCH   1  31
TORSDOF 9
ENDMDL
