MODEL 1
REMARK VINA RESULT:      -9.4      0.000      0.000
REMARK  Name = 44256830
REMARK  10 active torsions:
REMARK  status: ('A' for Active; 'I' for Inactive)
REMARK    1  A    between atoms: O_2  and  C_22
REMARK    2  A    between atoms: O_2  and  C_24
REMARK    3  A    between atoms: O_6  and  C_23
REMARK    4  A    between atoms: O_6  and  C_30
REMARK    5  A    between atoms: O_10  and  C_37
REMARK    6  A    between atoms: O_10  and  C_41
REMARK    7  A    between atoms: C_20  and  C_23
REMARK    8  A    between atoms: C_25  and  C_29
REMARK    9  A    between atoms: C_30  and  C_37
REMARK   10  A    between atoms: C_41  and  C_42
REMARK                            x       y       z     vdW  Elec       q    Type
REMARK                         _______ _______ _______ _____ _____    ______ ____
ROOT
ATOM      1  O   UNL     1     113.712 127.813 136.040  0.00  0.00    +0.000 OA
ENDROOT
BRANCH   1   5
ATOM      2  O   UNL     1     111.917 126.606 136.340  0.00  0.00    +0.000 OA
ATOM      3  O   UNL     1     111.237 128.950 134.792  0.00  0.00    +0.000 OA
ATOM      4  O   UNL     1     109.167 127.004 135.468  0.00  0.00    +0.000 OA
ATOM      5  C   UNL     1     112.926 127.562 136.007  0.00  0.00    +0.000 A 
ATOM      6  C   UNL     1     112.702 126.857 136.373  0.00  0.00    +0.000 A 
ATOM      7  C   UNL     1     112.365 128.016 135.608  0.00  0.00    +0.000 A 
ATOM      8  C   UNL     1     111.579 127.765 135.575  0.00  0.00    +0.000 A 
ATOM      9  C   UNL     1     111.356 127.061 135.941  0.00  0.00    +0.000 A 
ATOM     10  C   UNL     1     111.004 128.247 135.156  0.00  0.00    +0.000 A 
ATOM     11  C   UNL     1     110.541 126.789 135.913  0.00  0.00    +0.000 A 
ATOM     12  C   UNL     1     110.185 127.992 135.118  0.00  0.00    +0.000 A 
ATOM     13  C   UNL     1     109.951 127.257 135.499  0.00  0.00    +0.000 A 
BRANCH   6  16
ATOM     14  O   UNL     1     113.946 126.040 138.813  0.00  0.00    +0.000 OA
ATOM     15  O   UNL     1     114.950 125.043 137.967  0.00  0.00    +0.000 OA
ATOM     16  C   UNL     1     113.264 126.404 136.772  0.00  0.00    +0.000 A 
ATOM     17  C   UNL     1     113.324 126.449 137.594  0.00  0.00    +0.000 A 
ATOM     18  C   UNL     1     113.767 125.904 136.348  0.00  0.00    +0.000 A 
ATOM     19  C   UNL     1     113.886 125.995 137.992  0.00  0.00    +0.000 A 
ATOM     20  C   UNL     1     114.328 125.451 136.747  0.00  0.00    +0.000 A 
ATOM     21  C   UNL     1     114.388 125.496 137.569  0.00  0.00    +0.000 A 
ENDBRANCH   6  16
ENDBRANCH   1   5
BRANCH   1  30
ATOM     22  O   UNL     1     113.606 129.040 136.764  0.00  0.00    +0.000 OA
ATOM     23  O   UNL     1     114.407 131.025 136.336  0.00  0.00    +0.000 OA
ATOM     24  O   UNL     1     114.966 130.177 135.036  0.00  0.00    +0.000 OA
ATOM     25  O   UNL     1     114.618 128.570 134.888  0.00  0.00    +0.000 OA
ATOM     26  C   UNL     1     114.233 130.221 136.262  0.00  0.00    +0.000 C 
ATOM     27  C   UNL     1     114.513 129.798 135.612  0.00  0.00    +0.000 C 
ATOM     28  C   UNL     1     113.780 129.843 136.838  0.00  0.00    +0.000 C 
ATOM     29  C   UNL     1     114.339 128.994 135.538  0.00  0.00    +0.000 C 
ATOM     30  C   UNL     1     113.885 128.615 136.114  0.00  0.00    +0.000 C 
BRANCH  28  31
ATOM     31  C   UNL     1     113.500 130.268 137.488  0.00  0.00    +0.000 C 
BRANCH  31  32
ATOM     32  O   UNL     1     113.601 129.970 138.250  0.00  0.00    +0.000 OA
BRANCH  32  34
ATOM     33  O   UNL     1     112.628 130.879 138.769  0.00  0.00    +0.000 OA
ATOM     34  C   UNL     1     113.251 130.352 138.893  0.00  0.00    +0.000 C 
BRANCH  34  36
ATOM     35  O   UNL     1     113.354 129.490 140.027  0.00  0.00    +0.000 OA
ATOM     36  C   UNL     1     113.524 130.208 139.657  0.00  0.00    +0.000 C 
BRANCH  36  37
ATOM     37  O   UNL     1     113.967 130.781 140.053  0.00  0.00    +0.000 OA
BRANCH  37  39
ATOM     38  O   UNL     1     114.398 129.799 140.997  0.00  0.00    +0.000 OA
ATOM     39  C   UNL     1     114.384 130.582 140.735  0.00  0.00    +0.000 C 
BRANCH  39  42
ATOM     40  O   UNL     1     114.402 131.583 141.755  0.00  0.00    +0.000 OA
ATOM     41  O   UNL     1     115.576 131.328 140.982  0.00  0.00    +0.000 OA
ATOM     42  C   UNL     1     114.787 131.164 141.157  0.00  0.00    +0.000 C 
ENDBRANCH  39  42
ENDBRANCH  37  39
ENDBRANCH  36  37
ENDBRANCH  34  36
ENDBRANCH  32  34
ENDBRANCH  31  32
ENDBRANCH  28  31
ENDBRANCH   1  30
TORSDOF 10
ENDMDL
MODEL 2
REMARK VINA RESULT:      -9.3      1.931      3.156
REMARK  Name = 44256830
REMARK  10 active torsions:
REMARK  status: ('A' for Active; 'I' for Inactive)
REMARK    1  A    between atoms: O_2  and  C_22
REMARK    2  A    between atoms: O_2  and  C_24
REMARK    3  A    between atoms: O_6  and  C_23
REMARK    4  A    between atoms: O_6  and  C_30
REMARK    5  A    between atoms: O_10  and  C_37
REMARK    6  A    between atoms: O_10  and  C_41
REMARK    7  A    between atoms: C_20  and  C_23
REMARK    8  A    between atoms: C_25  and  C_29
REMARK    9  A    between atoms: C_30  and  C_37
REMARK   10  A    between atoms: C_41  and  C_42
REMARK                            x       y       z     vdW  Elec       q    Type
REMARK                         _______ _______ _______ _____ _____    ______ ____
ROOT
ATOM      1  O   UNL     1     113.187 127.486 136.491  0.00  0.00    +0.000 OA
ENDROOT
BRANCH   1   5
ATOM      2  O   UNL     1     111.951 125.746 136.032  0.00  0.00    +0.000 OA
ATOM      3  O   UNL     1     110.607 128.133 135.112  0.00  0.00    +0.000 OA
ATOM      4  O   UNL     1     109.356 125.522 134.730  0.00  0.00    +0.000 OA
ATOM      5  C   UNL     1     112.559 127.026 136.216  0.00  0.00    +0.000 A 
ATOM      6  C   UNL     1     112.578 126.206 136.307  0.00  0.00    +0.000 A 
ATOM      7  C   UNL     1     111.913 127.386 135.851  0.00  0.00    +0.000 A 
ATOM      8  C   UNL     1     111.285 126.925 135.577  0.00  0.00    +0.000 A 
ATOM      9  C   UNL     1     111.305 126.106 135.667  0.00  0.00    +0.000 A 
ATOM     10  C   UNL     1     110.618 127.312 135.198  0.00  0.00    +0.000 A 
ATOM     11  C   UNL     1     110.658 125.617 135.385  0.00  0.00    +0.000 A 
ATOM     12  C   UNL     1     109.961 126.839 134.910  0.00  0.00    +0.000 A 
ATOM     13  C   UNL     1     109.981 125.984 135.004  0.00  0.00    +0.000 A 
BRANCH   6  16
ATOM     14  O   UNL     1     115.213 125.108 136.155  0.00  0.00    +0.000 OA
ATOM     15  O   UNL     1     115.164 124.769 137.768  0.00  0.00    +0.000 OA
ATOM     16  C   UNL     1     113.225 125.847 136.672  0.00  0.00    +0.000 A 
ATOM     17  C   UNL     1     113.896 125.657 136.230  0.00  0.00    +0.000 A 
ATOM     18  C   UNL     1     113.201 125.677 137.479  0.00  0.00    +0.000 A 
ATOM     19  C   UNL     1     114.542 125.298 136.596  0.00  0.00    +0.000 A 
ATOM     20  C   UNL     1     113.848 125.318 137.844  0.00  0.00    +0.000 A 
ATOM     21  C   UNL     1     114.518 125.128 137.403  0.00  0.00    +0.000 A 
ENDBRANCH   6  16
ENDBRANCH   1   5
BRANCH   1  30
ATOM     22  O   UNL     1     112.488 128.310 137.427  0.00  0.00    +0.000 OA
ATOM     23  O   UNL     1     112.603 130.457 137.804  0.00  0.00    +0.000 OA
ATOM     24  O   UNL     1     113.708 130.295 136.590  0.00  0.00    +0.000 OA
ATOM     25  O   UNL     1     114.000 128.809 135.933  0.00  0.00    +0.000 OA
ATOM     26  C   UNL     1     112.749 129.714 137.476  0.00  0.00    +0.000 C 
ATOM     27  C   UNL     1     113.301 129.633 136.869  0.00  0.00    +0.000 C 
ATOM     28  C   UNL     1     112.342 129.052 137.755  0.00  0.00    +0.000 C 
ATOM     29  C   UNL     1     113.447 128.890 136.540  0.00  0.00    +0.000 C 
ATOM     30  C   UNL     1     113.041 128.228 136.819  0.00  0.00    +0.000 C 
BRANCH  28  31
ATOM     31  C   UNL     1     111.789 129.134 138.362  0.00  0.00    +0.000 C 
BRANCH  31  32
ATOM     32  O   UNL     1     111.439 128.466 138.695  0.00  0.00    +0.000 OA
BRANCH  32  34
ATOM     33  O   UNL     1     110.591 129.201 139.579  0.00  0.00    +0.000 OA
ATOM     34  C   UNL     1     110.731 128.535 139.112  0.00  0.00    +0.000 C 
BRANCH  34  36
ATOM     35  O   UNL     1     109.445 128.085 138.684  0.00  0.00    +0.000 OA
ATOM     36  C   UNL     1     110.163 127.940 139.063  0.00  0.00    +0.000 C 
BRANCH  36  37
ATOM     37  O   UNL     1     110.312 127.198 139.392  0.00  0.00    +0.000 OA
BRANCH  37  39
ATOM     38  O   UNL     1     109.278 126.631 138.587  0.00  0.00    +0.000 OA
ATOM     39  C   UNL     1     109.875 126.543 139.149  0.00  0.00    +0.000 C 
BRANCH  39  42
ATOM     40  O   UNL     1     110.478 125.252 139.040  0.00  0.00    +0.000 OA
ATOM     41  O   UNL     1     109.748 125.603 140.217  0.00  0.00    +0.000 OA
ATOM     42  C   UNL     1     110.034 125.800 139.469  0.00  0.00    +0.000 C 
ENDBRANCH  39  42
ENDBRANCH  37  39
ENDBRANCH  36  37
ENDBRANCH  34  36
ENDBRANCH  32  34
ENDBRANCH  31  32
ENDBRANCH  28  31
ENDBRANCH   1  30
TORSDOF 10
ENDMDL
MODEL 3
REMARK VINA RESULT:      -9.1      2.140      5.154
REMARK  Name = 44256830
REMARK  10 active torsions:
REMARK  status: ('A' for Active; 'I' for Inactive)
REMARK    1  A    between atoms: O_2  and  C_22
REMARK    2  A    between atoms: O_2  and  C_24
REMARK    3  A    between atoms: O_6  and  C_23
REMARK    4  A    between atoms: O_6  and  C_30
REMARK    5  A    between atoms: O_10  and  C_37
REMARK    6  A    between atoms: O_10  and  C_41
REMARK    7  A    between atoms: C_20  and  C_23
REMARK    8  A    between atoms: C_25  and  C_29
REMARK    9  A    between atoms: C_30  and  C_37
REMARK   10  A    between atoms: C_41  and  C_42
REMARK                            x       y       z     vdW  Elec       q    Type
REMARK                         _______ _______ _______ _____ _____    ______ ____
ROOT
ATOM      1  O   UNL     1     113.300 126.490 138.530  0.00  0.00    +0.000 OA
ENDROOT
BRANCH   1   5
ATOM      2  O   UNL     1     112.189 128.369 138.575  0.00  0.00    +0.000 OA
ATOM      3  O   UNL     1     113.727 128.235 136.132  0.00  0.00    +0.000 OA
ATOM      4  O   UNL     1     112.057 130.570 136.673  0.00  0.00    +0.000 OA
ATOM      5  C   UNL     1     113.008 127.229 138.306  0.00  0.00    +0.000 A 
ATOM      6  C   UNL     1     112.481 127.631 138.799  0.00  0.00    +0.000 A 
ATOM      7  C   UNL     1     113.241 127.566 137.590  0.00  0.00    +0.000 A 
ATOM      8  C   UNL     1     112.949 128.304 137.367  0.00  0.00    +0.000 A 
ATOM      9  C   UNL     1     112.423 128.705 137.859  0.00  0.00    +0.000 A 
ATOM     10  C   UNL     1     113.200 128.644 136.619  0.00  0.00    +0.000 A 
ATOM     11  C   UNL     1     112.112 129.475 137.637  0.00  0.00    +0.000 A 
ATOM     12  C   UNL     1     112.899 129.413 136.380  0.00  0.00    +0.000 A 
ATOM     13  C   UNL     1     112.351 129.831 136.894  0.00  0.00    +0.000 A 
BRANCH   6  16
ATOM     14  O   UNL     1     110.595 126.124 140.328  0.00  0.00    +0.000 OA
ATOM     15  O   UNL     1     111.550 126.283 141.663  0.00  0.00    +0.000 OA
ATOM     16  C   UNL     1     112.248 127.294 139.515  0.00  0.00    +0.000 A 
ATOM     17  C   UNL     1     111.538 126.877 139.563  0.00  0.00    +0.000 A 
ATOM     18  C   UNL     1     112.726 127.373 140.183  0.00  0.00    +0.000 A 
ATOM     19  C   UNL     1     111.305 126.540 140.280  0.00  0.00    +0.000 A 
ATOM     20  C   UNL     1     112.493 127.036 140.899  0.00  0.00    +0.000 A 
ATOM     21  C   UNL     1     111.783 126.620 140.947  0.00  0.00    +0.000 A 
ENDBRANCH   6  16
ENDBRANCH   1   5
BRANCH   1  30
ATOM     22  O   UNL     1     112.761 125.702 137.466  0.00  0.00    +0.000 OA
ATOM     23  O   UNL     1     113.656 124.106 136.276  0.00  0.00    +0.000 OA
ATOM     24  O   UNL     1     114.911 124.490 137.276  0.00  0.00    +0.000 OA
ATOM     25  O   UNL     1     114.733 125.682 138.403  0.00  0.00    +0.000 OA
ATOM     26  C   UNL     1     113.566 124.702 136.840  0.00  0.00    +0.000 C 
ATOM     27  C   UNL     1     114.194 124.894 137.339  0.00  0.00    +0.000 C 
ATOM     28  C   UNL     1     112.850 125.106 136.903  0.00  0.00    +0.000 C 
ATOM     29  C   UNL     1     114.105 125.490 137.903  0.00  0.00    +0.000 C 
ATOM     30  C   UNL     1     113.389 125.894 137.967  0.00  0.00    +0.000 C 
BRANCH  28  31
ATOM     31  C   UNL     1     112.223 124.914 136.403  0.00  0.00    +0.000 C 
BRANCH  31  32
ATOM     32  O   UNL     1     111.519 125.342 136.439  0.00  0.00    +0.000 OA
BRANCH  32  34
ATOM     33  O   UNL     1     110.842 124.569 135.446  0.00  0.00    +0.000 OA
ATOM     34  C   UNL     1     110.972 125.292 135.823  0.00  0.00    +0.000 C 
BRANCH  34  36
ATOM     35  O   UNL     1     110.694 126.288 134.839  0.00  0.00    +0.000 OA
ATOM     36  C   UNL     1     110.557 125.962 135.584  0.00  0.00    +0.000 C 
BRANCH  36  37
ATOM     37  O   UNL     1     110.003 126.308 136.089  0.00  0.00    +0.000 OA
BRANCH  37  39
ATOM     38  O   UNL     1     110.057 127.520 135.337  0.00  0.00    +0.000 OA
ATOM     39  C   UNL     1     109.710 127.061 135.928  0.00  0.00    +0.000 C 
BRANCH  39  42
ATOM     40  O   UNL     1     108.343 127.473 135.986  0.00  0.00    +0.000 OA
ATOM     41  O   UNL     1     109.159 127.533 137.158  0.00  0.00    +0.000 OA
ATOM     42  C   UNL     1     109.071 127.356 136.357  0.00  0.00    +0.000 C 
ENDBRANCH  39  42
ENDBRANCH  37  39
ENDBRANCH  36  37
ENDBRANCH  34  36
ENDBRANCH  32  34
ENDBRANCH  31  32
ENDBRANCH  28  31
ENDBRANCH   1  30
TORSDOF 10
ENDMDL
MODEL 4
REMARK VINA RESULT:      -9.1     11.564     12.996
REMARK  Name = 44256830
REMARK  10 active torsions:
REMARK  status: ('A' for Active; 'I' for Inactive)
REMARK    1  A    between atoms: O_2  and  C_22
REMARK    2  A    between atoms: O_2  and  C_24
REMARK    3  A    between atoms: O_6  and  C_23
REMARK    4  A    between atoms: O_6  and  C_30
REMARK    5  A    between atoms: O_10  and  C_37
REMARK    6  A    between atoms: O_10  and  C_41
REMARK    7  A    between atoms: C_20  and  C_23
REMARK    8  A    between atoms: C_25  and  C_29
REMARK    9  A    between atoms: C_30  and  C_37
REMARK   10  A    between atoms: C_41  and  C_42
REMARK                            x       y       z     vdW  Elec       q    Type
REMARK                         _______ _______ _______ _____ _____    ______ ____
ROOT
ATOM      1  O   UNL     1     105.344 125.022 145.503  0.00  0.00    +0.000 OA
ENDROOT
BRANCH   1   5
ATOM      2  O   UNL     1     105.462 124.275 147.551  0.00  0.00    +0.000 OA
ATOM      3  O   UNL     1     107.929 125.627 146.890  0.00  0.00    +0.000 OA
ATOM      4  O   UNL     1     107.585 124.442 149.538  0.00  0.00    +0.000 OA
ATOM      5  C   UNL     1     105.635 124.857 146.257  0.00  0.00    +0.000 A 
ATOM      6  C   UNL     1     105.171 124.440 146.797  0.00  0.00    +0.000 A 
ATOM      7  C   UNL     1     106.391 125.108 146.472  0.00  0.00    +0.000 A 
ATOM      8  C   UNL     1     106.683 124.943 147.226  0.00  0.00    +0.000 A 
ATOM      9  C   UNL     1     106.218 124.527 147.765  0.00  0.00    +0.000 A 
ATOM     10  C   UNL     1     107.472 125.211 147.437  0.00  0.00    +0.000 A 
ATOM     11  C   UNL     1     106.510 124.349 148.553  0.00  0.00    +0.000 A 
ATOM     12  C   UNL     1     107.781 125.042 148.220  0.00  0.00    +0.000 A 
ATOM     13  C   UNL     1     107.296 124.608 148.783  0.00  0.00    +0.000 A 
BRANCH   6  16
ATOM     14  O   UNL     1     102.333 124.771 146.884  0.00  0.00    +0.000 OA
ATOM     15  O   UNL     1     102.149 123.434 145.937  0.00  0.00    +0.000 OA
ATOM     16  C   UNL     1     104.415 124.189 146.583  0.00  0.00    +0.000 A 
ATOM     17  C   UNL     1     103.752 124.606 146.841  0.00  0.00    +0.000 A 
ATOM     18  C   UNL     1     104.322 123.519 146.109  0.00  0.00    +0.000 A 
ATOM     19  C   UNL     1     102.996 124.354 146.625  0.00  0.00    +0.000 A 
ATOM     20  C   UNL     1     103.567 123.268 145.894  0.00  0.00    +0.000 A 
ATOM     21  C   UNL     1     102.904 123.685 146.152  0.00  0.00    +0.000 A 
ENDBRANCH   6  16
ENDBRANCH   1   5
BRANCH   1  30
ATOM     22  O   UNL     1     105.424 126.448 145.487  0.00  0.00    +0.000 OA
ATOM     23  O   UNL     1     106.203 127.819 143.978  0.00  0.00    +0.000 OA
ATOM     24  O   UNL     1     106.473 126.365 143.247  0.00  0.00    +0.000 OA
ATOM     25  O   UNL     1     106.044 124.966 144.010  0.00  0.00    +0.000 OA
ATOM     26  C   UNL     1     105.988 127.119 144.360  0.00  0.00    +0.000 C 
ATOM     27  C   UNL     1     106.123 126.393 143.994  0.00  0.00    +0.000 C 
ATOM     28  C   UNL     1     105.638 127.147 145.106  0.00  0.00    +0.000 C 
ATOM     29  C   UNL     1     105.908 125.693 144.375  0.00  0.00    +0.000 C 
ATOM     30  C   UNL     1     105.559 125.721 145.122  0.00  0.00    +0.000 C 
BRANCH  28  31
ATOM     31  C   UNL     1     105.504 127.875 145.471  0.00  0.00    +0.000 C 
BRANCH  31  32
ATOM     32  O   UNL     1     105.047 127.915 146.157  0.00  0.00    +0.000 OA
BRANCH  32  34
ATOM     33  O   UNL     1     105.477 129.261 146.368  0.00  0.00    +0.000 OA
ATOM     34  C   UNL     1     105.058 128.597 146.621  0.00  0.00    +0.000 C 
BRANCH  34  36
ATOM     35  O   UNL     1     103.945 129.040 147.399  0.00  0.00    +0.000 OA
ATOM     36  C   UNL     1     104.649 128.616 147.337  0.00  0.00    +0.000 C 
BRANCH  36  37
ATOM     37  O   UNL     1     104.945 128.210 147.992  0.00  0.00    +0.000 OA
BRANCH  37  39
ATOM     38  O   UNL     1     103.790 128.538 148.766  0.00  0.00    +0.000 OA
ATOM     39  C   UNL     1     104.462 128.075 148.646  0.00  0.00    +0.000 C 
BRANCH  39  42
ATOM     40  O   UNL     1     105.353 127.513 149.612  0.00  0.00    +0.000 OA
ATOM     41  O   UNL     1     104.136 126.840 149.286  0.00  0.00    +0.000 OA
ATOM     42  C   UNL     1     104.650 127.476 149.181  0.00  0.00    +0.000 C 
ENDBRANCH  39  42
ENDBRANCH  37  39
ENDBRANCH  36  37
ENDBRANCH  34  36
ENDBRANCH  32  34
ENDBRANCH  31  32
ENDBRANCH  28  31
ENDBRANCH   1  30
TORSDOF 10
ENDMDL
MODEL 5
REMARK VINA RESULT:      -9.0      1.853      4.721
REMARK  Name = 44256830
REMARK  10 active torsions:
REMARK  status: ('A' for Active; 'I' for Inactive)
REMARK    1  A    between atoms: O_2  and  C_22
REMARK    2  A    between atoms: O_2  and  C_24
REMARK    3  A    between atoms: O_6  and  C_23
REMARK    4  A    between atoms: O_6  and  C_30
REMARK    5  A    between atoms: O_10  and  C_37
REMARK    6  A    between atoms: O_10  and  C_41
REMARK    7  A    between atoms: C_20  and  C_23
REMARK    8  A    between atoms: C_25  and  C_29
REMARK    9  A    between atoms: C_30  and  C_37
REMARK   10  A    between atoms: C_41  and  C_42
REMARK                            x       y       z     vdW  Elec       q    Type
REMARK                         _______ _______ _______ _____ _____    ______ ____
ROOT
ATOM      1  O   UNL     1     112.942 128.266 137.743  0.00  0.00    +0.000 OA
ENDROOT
BRANCH   1   5
ATOM      2  O   UNL     1     112.501 126.702 136.285  0.00  0.00    +0.000 OA
ATOM      3  O   UNL     1     111.731 125.790 138.917  0.00  0.00    +0.000 OA
ATOM      4  O   UNL     1     111.342 124.049 136.604  0.00  0.00    +0.000 OA
ATOM      5  C   UNL     1     112.689 127.550 137.420  0.00  0.00    +0.000 A 
ATOM      6  C   UNL     1     112.753 127.418 136.608  0.00  0.00    +0.000 A 
ATOM      7  C   UNL     1     112.372 126.966 137.909  0.00  0.00    +0.000 A 
ATOM      8  C   UNL     1     112.120 126.250 137.586  0.00  0.00    +0.000 A 
ATOM      9  C   UNL     1     112.184 126.118 136.775  0.00  0.00    +0.000 A 
ATOM     10  C   UNL     1     111.791 125.649 138.106  0.00  0.00    +0.000 A 
ATOM     11  C   UNL     1     111.924 125.377 136.427  0.00  0.00    +0.000 A 
ATOM     12  C   UNL     1     111.526 124.902 137.776  0.00  0.00    +0.000 A 
ATOM     13  C   UNL     1     111.593 124.764 136.930  0.00  0.00    +0.000 A 
BRANCH   6  16
ATOM     14  O   UNL     1     112.390 129.544 134.733  0.00  0.00    +0.000 OA
ATOM     15  O   UNL     1     114.024 129.754 134.655  0.00  0.00    +0.000 OA
ATOM     16  C   UNL     1     113.070 128.002 136.120  0.00  0.00    +0.000 A 
ATOM     17  C   UNL     1     112.571 128.481 135.670  0.00  0.00    +0.000 A 
ATOM     18  C   UNL     1     113.889 128.107 136.081  0.00  0.00    +0.000 A 
ATOM     19  C   UNL     1     112.889 129.065 135.182  0.00  0.00    +0.000 A 
ATOM     20  C   UNL     1     114.206 128.692 135.592  0.00  0.00    +0.000 A 
ATOM     21  C   UNL     1     113.706 129.170 135.143  0.00  0.00    +0.000 A 
ENDBRANCH   6  16
ENDBRANCH   1   5
BRANCH   1  30
ATOM     22  O   UNL     1     111.718 128.831 138.217  0.00  0.00    +0.000 OA
ATOM     23  O   UNL     1     111.198 129.695 140.153  0.00  0.00    +0.000 OA
ATOM     24  O   UNL     1     112.774 129.281 140.410  0.00  0.00    +0.000 OA
ATOM     25  O   UNL     1     113.646 128.566 139.205  0.00  0.00    +0.000 OA
ATOM     26  C   UNL     1     111.634 129.338 139.550  0.00  0.00    +0.000 C 
ATOM     27  C   UNL     1     112.422 129.131 139.679  0.00  0.00    +0.000 C 
ATOM     28  C   UNL     1     111.282 129.188 138.819  0.00  0.00    +0.000 C 
ATOM     29  C   UNL     1     112.858 128.773 139.076  0.00  0.00    +0.000 C 
ATOM     30  C   UNL     1     112.506 128.623 138.345  0.00  0.00    +0.000 C 
BRANCH  28  31
ATOM     31  C   UNL     1     110.494 129.396 138.691  0.00  0.00    +0.000 C 
BRANCH  31  32
ATOM     32  O   UNL     1     110.224 129.542 137.926  0.00  0.00    +0.000 OA
BRANCH  32  34
ATOM     33  O   UNL     1     108.877 129.739 138.359  0.00  0.00    +0.000 OA
ATOM     34  C   UNL     1     109.415 129.541 137.766  0.00  0.00    +0.000 C 
BRANCH  34  36
ATOM     35  O   UNL     1     109.023 129.931 136.449  0.00  0.00    +0.000 OA
ATOM     36  C   UNL     1     109.143 129.342 137.013  0.00  0.00    +0.000 C 
BRANCH  36  37
ATOM     37  O   UNL     1     108.991 128.553 136.824  0.00  0.00    +0.000 OA
BRANCH  37  39
ATOM     38  O   UNL     1     108.550 128.917 135.515  0.00  0.00    +0.000 OA
ATOM     39  C   UNL     1     108.808 128.343 136.048  0.00  0.00    +0.000 C 
BRANCH  39  42
ATOM     40  O   UNL     1     109.361 127.370 135.159  0.00  0.00    +0.000 OA
ATOM     41  O   UNL     1     108.479 126.962 136.207  0.00  0.00    +0.000 OA
ATOM     42  C   UNL     1     108.883 127.558 135.805  0.00  0.00    +0.000 C 
ENDBRANCH  39  42
ENDBRANCH  37  39
ENDBRANCH  36  37
ENDBRANCH  34  36
ENDBRANCH  32  34
ENDBRANCH  31  32
ENDBRANCH  28  31
ENDBRANCH   1  30
TORSDOF 10
ENDMDL
MODEL 6
REMARK VINA RESULT:      -9.0      1.652      3.451
REMARK  Name = 44256830
REMARK  10 active torsions:
REMARK  status: ('A' for Active; 'I' for Inactive)
REMARK    1  A    between atoms: O_2  and  C_22
REMARK    2  A    between atoms: O_2  and  C_24
REMARK    3  A    between atoms: O_6  and  C_23
REMARK    4  A    between atoms: O_6  and  C_30
REMARK    5  A    between atoms: O_10  and  C_37
REMARK    6  A    between atoms: O_10  and  C_41
REMARK    7  A    between atoms: C_20  and  C_23
REMARK    8  A    between atoms: C_25  and  C_29
REMARK    9  A    between atoms: C_30  and  C_37
REMARK   10  A    between atoms: C_41  and  C_42
REMARK                            x       y       z     vdW  Elec       q    Type
REMARK                         _______ _______ _______ _____ _____    ______ ____
ROOT
ATOM      1  O   UNL     1     110.690 127.358 136.289  0.00  0.00    +0.000 OA
ENDROOT
BRANCH   1   5
ATOM      2  O   UNL     1     112.871 127.296 136.366  0.00  0.00    +0.000 OA
ATOM      3  O   UNL     1     112.040 129.650 134.910  0.00  0.00    +0.000 OA
ATOM      4  O   UNL     1     114.884 129.107 135.294  0.00  0.00    +0.000 OA
ATOM      5  C   UNL     1     111.480 127.566 136.176  0.00  0.00    +0.000 A 
ATOM      6  C   UNL     1     112.081 127.088 136.479  0.00  0.00    +0.000 A 
ATOM      7  C   UNL     1     111.671 128.252 135.759  0.00  0.00    +0.000 A 
ATOM      8  C   UNL     1     112.462 128.460 135.646  0.00  0.00    +0.000 A 
ATOM      9  C   UNL     1     113.061 127.983 135.949  0.00  0.00    +0.000 A 
ATOM     10  C   UNL     1     112.647 129.178 135.210  0.00  0.00    +0.000 A 
ATOM     11  C   UNL     1     113.888 128.189 135.838  0.00  0.00    +0.000 A 
ATOM     12  C   UNL     1     113.468 129.400 135.089  0.00  0.00    +0.000 A 
ATOM     13  C   UNL     1     114.093 128.901 135.405  0.00  0.00    +0.000 A 
BRANCH   6  16
ATOM     14  O   UNL     1     111.676 125.729 138.961  0.00  0.00    +0.000 OA
ATOM     15  O   UNL     1     111.317 124.343 138.143  0.00  0.00    +0.000 OA
ATOM     16  C   UNL     1     111.890 126.402 136.895  0.00  0.00    +0.000 A 
ATOM     17  C   UNL     1     111.879 126.409 137.720  0.00  0.00    +0.000 A 
ATOM     18  C   UNL     1     111.710 125.708 136.486  0.00  0.00    +0.000 A 
ATOM     19  C   UNL     1     111.688 125.722 138.136  0.00  0.00    +0.000 A 
ATOM     20  C   UNL     1     111.519 125.022 136.902  0.00  0.00    +0.000 A 
ATOM     21  C   UNL     1     111.508 125.029 137.727  0.00  0.00    +0.000 A 
ENDBRANCH   6  16
ENDBRANCH   1   5
BRANCH   1  30
ATOM     22  O   UNL     1     110.255 128.501 137.029  0.00  0.00    +0.000 OA
ATOM     23  O   UNL     1     108.436 129.697 136.873  0.00  0.00    +0.000 OA
ATOM     24  O   UNL     1     108.179 128.581 135.685  0.00  0.00    +0.000 OA
ATOM     25  O   UNL     1     109.306 127.412 135.393  0.00  0.00    +0.000 OA
ATOM     26  C   UNL     1     109.000 129.112 136.727  0.00  0.00    +0.000 C 
ATOM     27  C   UNL     1     108.871 128.554 136.133  0.00  0.00    +0.000 C 
ATOM     28  C   UNL     1     109.692 129.085 137.175  0.00  0.00    +0.000 C 
ATOM     29  C   UNL     1     109.435 127.969 135.987  0.00  0.00    +0.000 C 
ATOM     30  C   UNL     1     110.127 127.943 136.435  0.00  0.00    +0.000 C 
BRANCH  28  31
ATOM     31  C   UNL     1     109.821 129.643 137.769  0.00  0.00    +0.000 C 
BRANCH  31  32
ATOM     32  O   UNL     1     110.558 129.697 138.133  0.00  0.00    +0.000 OA
BRANCH  32  34
ATOM     33  O   UNL     1     110.161 130.665 139.106  0.00  0.00    +0.000 OA
ATOM     34  C   UNL     1     110.738 130.346 138.609  0.00  0.00    +0.000 C 
BRANCH  34  36
ATOM     35  O   UNL     1     111.603 131.437 138.288  0.00  0.00    +0.000 OA
ATOM     36  C   UNL     1     111.493 130.677 138.589  0.00  0.00    +0.000 C 
BRANCH  36  37
ATOM     37  O   UNL     1     112.139 130.248 138.870  0.00  0.00    +0.000 OA
BRANCH  37  39
ATOM     38  O   UNL     1     113.041 131.087 138.146  0.00  0.00    +0.000 OA
ATOM     39  C   UNL     1     112.906 130.513 138.723  0.00  0.00    +0.000 C 
BRANCH  39  42
ATOM     40  O   UNL     1     113.987 130.698 139.639  0.00  0.00    +0.000 OA
ATOM     41  O   UNL     1     113.723 129.402 139.097  0.00  0.00    +0.000 OA
ATOM     42  C   UNL     1     113.538 130.205 139.153  0.00  0.00    +0.000 C 
ENDBRANCH  39  42
ENDBRANCH  37  39
ENDBRANCH  36  37
ENDBRANCH  34  36
ENDBRANCH  32  34
ENDBRANCH  31  32
ENDBRANCH  28  31
ENDBRANCH   1  30
TORSDOF 10
ENDMDL
MODEL 7
REMARK VINA RESULT:      -9.0      1.560      3.613
REMARK  Name = 44256830
REMARK  10 active torsions:
REMARK  status: ('A' for Active; 'I' for Inactive)
REMARK    1  A    between atoms: O_2  and  C_22
REMARK    2  A    between atoms: O_2  and  C_24
REMARK    3  A    between atoms: O_6  and  C_23
REMARK    4  A    between atoms: O_6  and  C_30
REMARK    5  A    between atoms: O_10  and  C_37
REMARK    6  A    between atoms: O_10  and  C_41
REMARK    7  A    between atoms: C_20  and  C_23
REMARK    8  A    between atoms: C_25  and  C_29
REMARK    9  A    between atoms: C_30  and  C_37
REMARK   10  A    between atoms: C_41  and  C_42
REMARK                            x       y       z     vdW  Elec       q    Type
REMARK                         _______ _______ _______ _____ _____    ______ ____
ROOT
ATOM      1  O   UNL     1     111.829 127.653 135.888  0.00  0.00    +0.000 OA
ENDROOT
BRANCH   1   5
ATOM      2  O   UNL     1     111.616 125.584 136.552  0.00  0.00    +0.000 OA
ATOM      3  O   UNL     1     114.424 126.261 136.437  0.00  0.00    +0.000 OA
ATOM      4  O   UNL     1     113.607 123.585 137.276  0.00  0.00    +0.000 OA
ATOM      5  C   UNL     1     112.021 126.892 136.142  0.00  0.00    +0.000 A 
ATOM      6  C   UNL     1     111.423 126.345 136.297  0.00  0.00    +0.000 A 
ATOM      7  C   UNL     1     112.812 126.678 136.241  0.00  0.00    +0.000 A 
ATOM      8  C   UNL     1     113.005 125.917 136.496  0.00  0.00    +0.000 A 
ATOM      9  C   UNL     1     112.407 125.371 136.651  0.00  0.00    +0.000 A 
ATOM     10  C   UNL     1     113.832 125.707 136.595  0.00  0.00    +0.000 A 
ATOM     11  C   UNL     1     112.596 124.576 136.916  0.00  0.00    +0.000 A 
ATOM     12  C   UNL     1     114.040 124.917 136.860  0.00  0.00    +0.000 A 
ATOM     13  C   UNL     1     113.417 124.346 137.021  0.00  0.00    +0.000 A 
BRANCH   6  16
ATOM     14  O   UNL     1     108.955 127.282 137.392  0.00  0.00    +0.000 OA
ATOM     15  O   UNL     1     108.262 127.201 135.898  0.00  0.00    +0.000 OA
ATOM     16  C   UNL     1     110.633 126.559 136.198  0.00  0.00    +0.000 A 
ATOM     17  C   UNL     1     110.190 126.813 136.845  0.00  0.00    +0.000 A 
ATOM     18  C   UNL     1     110.286 126.518 135.450  0.00  0.00    +0.000 A 
ATOM     19  C   UNL     1     109.399 127.027 136.745  0.00  0.00    +0.000 A 
ATOM     20  C   UNL     1     109.496 126.733 135.350  0.00  0.00    +0.000 A 
ATOM     21  C   UNL     1     109.052 126.987 135.998  0.00  0.00    +0.000 A 
ENDBRANCH   6  16
ENDBRANCH   1   5
BRANCH   1  30
ATOM     22  O   UNL     1     112.413 128.443 136.925  0.00  0.00    +0.000 OA
ATOM     23  O   UNL     1     113.671 130.224 136.829  0.00  0.00    +0.000 OA
ATOM     24  O   UNL     1     113.423 129.930 135.224  0.00  0.00    +0.000 OA
ATOM     25  O   UNL     1     112.502 128.645 134.754  0.00  0.00    +0.000 OA
ATOM     26  C   UNL     1     113.210 129.581 136.594  0.00  0.00    +0.000 C 
ATOM     27  C   UNL     1     113.086 129.434 135.791  0.00  0.00    +0.000 C 
ATOM     28  C   UNL     1     112.873 129.085 137.161  0.00  0.00    +0.000 C 
ATOM     29  C   UNL     1     112.625 128.791 135.556  0.00  0.00    +0.000 C 
ATOM     30  C   UNL     1     112.289 128.295 136.123  0.00  0.00    +0.000 C 
BRANCH  28  31
ATOM     31  C   UNL     1     112.997 129.233 137.963  0.00  0.00    +0.000 C 
BRANCH  31  32
ATOM     32  O   UNL     1     112.653 128.744 138.531  0.00  0.00    +0.000 OA
BRANCH  32  34
ATOM     33  O   UNL     1     113.110 129.480 139.667  0.00  0.00    +0.000 OA
ATOM     34  C   UNL     1     112.926 128.760 139.310  0.00  0.00    +0.000 C 
BRANCH  34  36
ATOM     35  O   UNL     1     113.765 127.806 139.962  0.00  0.00    +0.000 OA
ATOM     36  C   UNL     1     113.014 128.056 139.730  0.00  0.00    +0.000 C 
BRANCH  36  37
ATOM     37  O   UNL     1     112.351 127.603 139.921  0.00  0.00    +0.000 OA
BRANCH  37  39
ATOM     38  O   UNL     1     113.171 126.438 140.031  0.00  0.00    +0.000 OA
ATOM     39  C   UNL     1     112.439 126.808 140.121  0.00  0.00    +0.000 C 
BRANCH  39  42
ATOM     40  O   UNL     1     111.651 126.351 141.222  0.00  0.00    +0.000 OA
ATOM     41  O   UNL     1     111.294 125.986 139.887  0.00  0.00    +0.000 OA
ATOM     42  C   UNL     1     111.795 126.382 140.410  0.00  0.00    +0.000 C 
ENDBRANCH  39  42
ENDBRANCH  37  39
ENDBRANCH  36  37
ENDBRANCH  34  36
ENDBRANCH  32  34
ENDBRANCH  31  32
ENDBRANCH  28  31
ENDBRANCH   1  30
TORSDOF 10
ENDMDL
MODEL 8
REMARK VINA RESULT:      -9.0      1.390      2.182
REMARK  Name = 44256830
REMARK  10 active torsions:
REMARK  status: ('A' for Active; 'I' for Inactive)
REMARK    1  A    between atoms: O_2  and  C_22
REMARK    2  A    between atoms: O_2  and  C_24
REMARK    3  A    between atoms: O_6  and  C_23
REMARK    4  A    between atoms: O_6  and  C_30
REMARK    5  A    between atoms: O_10  and  C_37
REMARK    6  A    between atoms: O_10  and  C_41
REMARK    7  A    between atoms: C_20  and  C_23
REMARK    8  A    between atoms: C_25  and  C_29
REMARK    9  A    between atoms: C_30  and  C_37
REMARK   10  A    between atoms: C_41  and  C_42
REMARK                            x       y       z     vdW  Elec       q    Type
REMARK                         _______ _______ _______ _____ _____    ______ ____
ROOT
ATOM      1  O   UNL     1     113.630 127.856 136.169  0.00  0.00    +0.000 OA
ENDROOT
BRANCH   1   5
ATOM      2  O   UNL     1     111.918 126.506 136.294  0.00  0.00    +0.000 OA
ATOM      3  O   UNL     1     111.180 128.835 134.750  0.00  0.00    +0.000 OA
ATOM      4  O   UNL     1     109.223 126.716 135.209  0.00  0.00    +0.000 OA
ATOM      5  C   UNL     1     112.872 127.547 136.066  0.00  0.00    +0.000 A 
ATOM      6  C   UNL     1     112.676 126.816 136.397  0.00  0.00    +0.000 A 
ATOM      7  C   UNL     1     112.310 127.967 135.633  0.00  0.00    +0.000 A 
ATOM      8  C   UNL     1     111.552 127.657 135.530  0.00  0.00    +0.000 A 
ATOM      9  C   UNL     1     111.356 126.928 135.860  0.00  0.00    +0.000 A 
ATOM     10  C   UNL     1     110.975 128.106 135.077  0.00  0.00    +0.000 A 
ATOM     11  C   UNL     1     110.571 126.595 135.760  0.00  0.00    +0.000 A 
ATOM     12  C   UNL     1     110.185 127.789 134.966  0.00  0.00    +0.000 A 
ATOM     13  C   UNL     1     109.981 127.028 135.310  0.00  0.00    +0.000 A 
BRANCH   6  16
ATOM     14  O   UNL     1     113.812 126.064 138.909  0.00  0.00    +0.000 OA
ATOM     15  O   UNL     1     114.926 125.134 138.127  0.00  0.00    +0.000 OA
ATOM     16  C   UNL     1     113.238 126.395 136.830  0.00  0.00    +0.000 A 
ATOM     17  C   UNL     1     113.243 126.440 137.653  0.00  0.00    +0.000 A 
ATOM     18  C   UNL     1     113.796 125.930 136.438  0.00  0.00    +0.000 A 
ATOM     19  C   UNL     1     113.807 126.019 138.085  0.00  0.00    +0.000 A 
ATOM     20  C   UNL     1     114.359 125.510 136.871  0.00  0.00    +0.000 A 
ATOM     21  C   UNL     1     114.364 125.554 137.695  0.00  0.00    +0.000 A 
ENDBRANCH   6  16
ENDBRANCH   1   5
BRANCH   1  30
ATOM     22  O   UNL     1     113.327 129.066 136.867  0.00  0.00    +0.000 OA
ATOM     23  O   UNL     1     114.045 131.105 136.568  0.00  0.00    +0.000 OA
ATOM     24  O   UNL     1     114.858 130.310 135.372  0.00  0.00    +0.000 OA
ATOM     25  O   UNL     1     114.650 128.686 135.173  0.00  0.00    +0.000 OA
ATOM     26  C   UNL     1     113.941 130.292 136.468  0.00  0.00    +0.000 C 
ATOM     27  C   UNL     1     114.348 129.896 135.870  0.00  0.00    +0.000 C 
ATOM     28  C   UNL     1     113.431 129.878 136.967  0.00  0.00    +0.000 C 
ATOM     29  C   UNL     1     114.244 129.083 135.771  0.00  0.00    +0.000 C 
ATOM     30  C   UNL     1     113.733 128.668 136.269  0.00  0.00    +0.000 C 
BRANCH  28  31
ATOM     31  C   UNL     1     113.025 130.276 137.564  0.00  0.00    +0.000 C 
BRANCH  31  32
ATOM     32  O   UNL     1     112.712 129.856 138.201  0.00  0.00    +0.000 OA
BRANCH  32  34
ATOM     33  O   UNL     1     112.023 131.005 138.698  0.00  0.00    +0.000 OA
ATOM     34  C   UNL     1     112.107 130.186 138.657  0.00  0.00    +0.000 C 
BRANCH  34  36
ATOM     35  O   UNL     1     111.796 129.414 139.817  0.00  0.00    +0.000 OA
ATOM     36  C   UNL     1     111.589 129.697 139.070  0.00  0.00    +0.000 C 
BRANCH  36  37
ATOM     37  O   UNL     1     110.862 129.490 138.738  0.00  0.00    +0.000 OA
BRANCH  37  39
ATOM     38  O   UNL     1     110.855 128.283 139.501  0.00  0.00    +0.000 OA
ATOM     39  C   UNL     1     110.485 128.794 138.970  0.00  0.00    +0.000 C 
BRANCH  39  42
ATOM     40  O   UNL     1     109.326 129.164 138.221  0.00  0.00    +0.000 OA
ATOM     41  O   UNL     1     109.407 127.870 138.820  0.00  0.00    +0.000 OA
ATOM     42  C   UNL     1     109.740 128.610 138.671  0.00  0.00    +0.000 C 
ENDBRANCH  39  42
ENDBRANCH  37  39
ENDBRANCH  36  37
ENDBRANCH  34  36
ENDBRANCH  32  34
ENDBRANCH  31  32
ENDBRANCH  28  31
ENDBRANCH   1  30
TORSDOF 10
ENDMDL
MODEL 9
REMARK VINA RESULT:      -9.0      1.635      4.456
REMARK  Name = 44256830
REMARK  10 active torsions:
REMARK  status: ('A' for Active; 'I' for Inactive)
REMARK    1  A    between atoms: O_2  and  C_22
REMARK    2  A    between atoms: O_2  and  C_24
REMARK    3  A    between atoms: O_6  and  C_23
REMARK    4  A    between atoms: O_6  and  C_30
REMARK    5  A    between atoms: O_10  and  C_37
REMARK    6  A    between atoms: O_10  and  C_41
REMARK    7  A    between atoms: C_20  and  C_23
REMARK    8  A    between atoms: C_25  and  C_29
REMARK    9  A    between atoms: C_30  and  C_37
REMARK   10  A    between atoms: C_41  and  C_42
REMARK                            x       y       z     vdW  Elec       q    Type
REMARK                         _______ _______ _______ _____ _____    ______ ____
ROOT
ATOM      1  O   UNL     1     111.016 126.983 136.025  0.00  0.00    +0.000 OA
ENDROOT
BRANCH   1   5
ATOM      2  O   UNL     1     111.818 129.012 135.945  0.00  0.00    +0.000 OA
ATOM      3  O   UNL     1     114.008 127.132 136.082  0.00  0.00    +0.000 OA
ATOM      4  O   UNL     1     114.558 129.998 135.956  0.00  0.00    +0.000 OA
ATOM      5  C   UNL     1     111.554 127.608 136.006  0.00  0.00    +0.000 A 
ATOM      6  C   UNL     1     111.280 128.386 135.963  0.00  0.00    +0.000 A 
ATOM      7  C   UNL     1     112.364 127.458 136.031  0.00  0.00    +0.000 A 
ATOM      8  C   UNL     1     112.902 128.084 136.012  0.00  0.00    +0.000 A 
ATOM      9  C   UNL     1     112.628 128.860 135.969  0.00  0.00    +0.000 A 
ATOM     10  C   UNL     1     113.743 127.913 136.039  0.00  0.00    +0.000 A 
ATOM     11  C   UNL     1     113.178 129.520 135.949  0.00  0.00    +0.000 A 
ATOM     12  C   UNL     1     114.308 128.560 136.020  0.00  0.00    +0.000 A 
ATOM     13  C   UNL     1     114.023 129.370 135.975  0.00  0.00    +0.000 A 
BRANCH   6  16
ATOM     14  O   UNL     1     108.857 129.121 137.288  0.00  0.00    +0.000 OA
ATOM     15  O   UNL     1     108.038 128.989 135.862  0.00  0.00    +0.000 OA
ATOM     16  C   UNL     1     110.470 128.537 135.938  0.00  0.00    +0.000 A 
ATOM     17  C   UNL     1     110.069 128.754 136.626  0.00  0.00    +0.000 A 
ATOM     18  C   UNL     1     110.060 128.471 135.225  0.00  0.00    +0.000 A 
ATOM     19  C   UNL     1     109.258 128.904 136.600  0.00  0.00    +0.000 A 
ATOM     20  C   UNL     1     109.249 128.622 135.200  0.00  0.00    +0.000 A 
ATOM     21  C   UNL     1     108.848 128.838 135.888  0.00  0.00    +0.000 A 
ENDBRANCH   6  16
ENDBRANCH   1   5
BRANCH   1  30
ATOM     22  O   UNL     1     111.329 126.380 137.282  0.00  0.00    +0.000 OA
ATOM     23  O   UNL     1     111.678 124.293 137.819  0.00  0.00    +0.000 OA
ATOM     24  O   UNL     1     111.383 124.154 136.202  0.00  0.00    +0.000 OA
ATOM     25  O   UNL     1     111.052 125.499 135.305  0.00  0.00    +0.000 OA
ATOM     26  C   UNL     1     111.512 124.966 137.371  0.00  0.00    +0.000 C 
ATOM     27  C   UNL     1     111.365 124.896 136.562  0.00  0.00    +0.000 C 
ATOM     28  C   UNL     1     111.494 125.708 137.731  0.00  0.00    +0.000 C 
ATOM     29  C   UNL     1     111.200 125.569 136.113  0.00  0.00    +0.000 C 
ATOM     30  C   UNL     1     111.182 126.311 136.473  0.00  0.00    +0.000 C 
BRANCH  28  31
ATOM     31  C   UNL     1     111.642 125.777 138.540  0.00  0.00    +0.000 C 
BRANCH  31  32
ATOM     32  O   UNL     1     112.212 126.307 138.812  0.00  0.00    +0.000 OA
BRANCH  32  34
ATOM     33  O   UNL     1     111.722 126.153 140.145  0.00  0.00    +0.000 OA
ATOM     34  C   UNL     1     112.236 126.514 139.610  0.00  0.00    +0.000 C 
BRANCH  34  36
ATOM     35  O   UNL     1     113.382 126.865 140.387  0.00  0.00    +0.000 OA
ATOM     36  C   UNL     1     112.773 127.081 139.874  0.00  0.00    +0.000 C 
BRANCH  36  37
ATOM     37  O   UNL     1     112.703 127.865 139.625  0.00  0.00    +0.000 OA
BRANCH  37  39
ATOM     38  O   UNL     1     113.635 128.278 140.625  0.00  0.00    +0.000 OA
ATOM     39  C   UNL     1     113.182 128.448 139.956  0.00  0.00    +0.000 C 
BRANCH  39  42
ATOM     40  O   UNL     1     113.936 129.561 139.471  0.00  0.00    +0.000 OA
ATOM     41  O   UNL     1     112.508 129.593 139.433  0.00  0.00    +0.000 OA
ATOM     42  C   UNL     1     113.209 129.200 139.620  0.00  0.00    +0.000 C 
ENDBRANCH  39  42
ENDBRANCH  37  39
ENDBRANCH  36  37
ENDBRANCH  34  36
ENDBRANCH  32  34
ENDBRANCH  31  32
ENDBRANCH  28  31
ENDBRANCH   1  30
TORSDOF 10
ENDMDL
MODEL 10
REMARK VINA RESULT:      -9.0      1.836      4.388
REMARK  Name = 44256830
REMARK  10 active torsions:
REMARK  status: ('A' for Active; 'I' for Inactive)
REMARK    1  A    between atoms: O_2  and  C_22
REMARK    2  A    between atoms: O_2  and  C_24
REMARK    3  A    between atoms: O_6  and  C_23
REMARK    4  A    between atoms: O_6  and  C_30
REMARK    5  A    between atoms: O_10  and  C_37
REMARK    6  A    between atoms: O_10  and  C_41
REMARK    7  A    between atoms: C_20  and  C_23
REMARK    8  A    between atoms: C_25  and  C_29
REMARK    9  A    between atoms: C_30  and  C_37
REMARK   10  A    between atoms: C_41  and  C_42
REMARK                            x       y       z     vdW  Elec       q    Type
REMARK                         _______ _______ _______ _____ _____    ______ ____
ROOT
ATOM      1  O   UNL     1     111.809 127.535 135.918  0.00  0.00    +0.000 OA
ENDROOT
BRANCH   1   5
ATOM      2  O   UNL     1     113.705 126.888 136.786  0.00  0.00    +0.000 OA
ATOM      3  O   UNL     1     112.045 124.573 136.300  0.00  0.00    +0.000 OA
ATOM      4  O   UNL     1     114.704 124.237 137.462  0.00  0.00    +0.000 OA
ATOM      5  C   UNL     1     112.403 127.047 136.217  0.00  0.00    +0.000 A 
ATOM      6  C   UNL     1     113.111 127.376 136.487  0.00  0.00    +0.000 A 
ATOM      7  C   UNL     1     112.291 126.230 136.247  0.00  0.00    +0.000 A 
ATOM      8  C   UNL     1     112.885 125.742 136.546  0.00  0.00    +0.000 A 
ATOM      9  C   UNL     1     113.592 126.071 136.815  0.00  0.00    +0.000 A 
ATOM     10  C   UNL     1     112.755 124.893 136.571  0.00  0.00    +0.000 A 
ATOM     11  C   UNL     1     114.218 125.573 137.129  0.00  0.00    +0.000 A 
ATOM     12  C   UNL     1     113.370 124.379 136.882  0.00  0.00    +0.000 A 
ATOM     13  C   UNL     1     114.107 124.722 137.162  0.00  0.00    +0.000 A 
BRANCH   6  16
ATOM     14  O   UNL     1     113.051 129.932 137.764  0.00  0.00    +0.000 OA
ATOM     15  O   UNL     1     113.560 130.642 136.365  0.00  0.00    +0.000 OA
ATOM     16  C   UNL     1     113.223 128.192 136.457  0.00  0.00    +0.000 A 
ATOM     17  C   UNL     1     113.081 128.654 137.126  0.00  0.00    +0.000 A 
ATOM     18  C   UNL     1     113.478 128.548 135.757  0.00  0.00    +0.000 A 
ATOM     19  C   UNL     1     113.193 129.470 137.095  0.00  0.00    +0.000 A 
ATOM     20  C   UNL     1     113.590 129.365 135.727  0.00  0.00    +0.000 A 
ATOM     21  C   UNL     1     113.448 129.826 136.396  0.00  0.00    +0.000 A 
ENDBRANCH   6  16
ENDBRANCH   1   5
BRANCH   1  30
ATOM     22  O   UNL     1     110.763 127.258 136.853  0.00  0.00    +0.000 OA
ATOM     23  O   UNL     1     108.642 126.849 136.543  0.00  0.00    +0.000 OA
ATOM     24  O   UNL     1     109.149 127.060 134.987  0.00  0.00    +0.000 OA
ATOM     25  O   UNL     1     110.732 127.403 134.675  0.00  0.00    +0.000 OA
ATOM     26  C   UNL     1     109.434 127.021 136.387  0.00  0.00    +0.000 C 
ATOM     27  C   UNL     1     109.687 127.126 135.609  0.00  0.00    +0.000 C 
ATOM     28  C   UNL     1     109.972 127.087 137.009  0.00  0.00    +0.000 C 
ATOM     29  C   UNL     1     110.479 127.298 135.453  0.00  0.00    +0.000 C 
ATOM     30  C   UNL     1     111.018 127.363 136.075  0.00  0.00    +0.000 C 
BRANCH  28  31
ATOM     31  C   UNL     1     109.718 126.981 137.787  0.00  0.00    +0.000 C 
BRANCH  31  32
ATOM     32  O   UNL     1     110.253 127.057 138.410  0.00  0.00    +0.000 OA
BRANCH  32  34
ATOM     33  O   UNL     1     109.258 126.846 139.413  0.00  0.00    +0.000 OA
ATOM     34  C   UNL     1     110.044 126.803 139.167  0.00  0.00    +0.000 C 
BRANCH  34  36
ATOM     35  O   UNL     1     110.480 125.813 140.099  0.00  0.00    +0.000 OA
ATOM     36  C   UNL     1     110.620 126.508 139.677  0.00  0.00    +0.000 C 
BRANCH  36  37
ATOM     37  O   UNL     1     111.337 126.907 139.767  0.00  0.00    +0.000 OA
BRANCH  37  39
ATOM     38  O   UNL     1     111.647 126.114 140.913  0.00  0.00    +0.000 OA
ATOM     39  C   UNL     1     111.873 126.668 140.345  0.00  0.00    +0.000 C 
BRANCH  39  42
ATOM     40  O   UNL     1     113.285 126.495 140.205  0.00  0.00    +0.000 OA
ATOM     41  O   UNL     1     112.749 127.782 140.518  0.00  0.00    +0.000 OA
ATOM     42  C   UNL     1     112.635 126.981 140.356  0.00  0.00    +0.000 C 
ENDBRANCH  39  42
ENDBRANCH  37  39
ENDBRANCH  36  37
ENDBRANCH  34  36
ENDBRANCH  32  34
ENDBRANCH  31  32
ENDBRANCH  28  31
ENDBRANCH   1  30
TORSDOF 10
ENDMDL
