MODEL 1
REMARK VINA RESULT:     -10.6      0.000      0.000
REMARK  Name = 14309754
REMARK  6 active torsions:
REMARK  status: ('A' for Active; 'I' for Inactive)
REMARK    1  A    between atoms: O_1  and  C_16
REMARK    2  A    between atoms: O_1  and  C_18
REMARK    3  A    between atoms: O_5  and  C_23
REMARK    4  A    between atoms: O_5  and  C_28
REMARK    5  A    between atoms: C_25  and  C_27
REMARK    6  A    between atoms: C_35  and  C_37
REMARK                            x       y       z     vdW  Elec       q    Type
REMARK                         _______ _______ _______ _____ _____    ______ ____
ROOT
ATOM      1  O   UNL     1     106.227 128.729 142.187  0.00  0.00    +0.000 OA
ATOM      2  O   UNL     1     107.640 126.744 142.622  0.00  0.00    +0.000 OA
ATOM      3  O   UNL     1     108.316 128.119 142.012  0.00  0.00    +0.000 OA
ATOM      4  C   UNL     1     106.360 127.380 142.637  0.00  0.00    +0.000 C 
ATOM      5  C   UNL     1     107.168 127.405 142.477  0.00  0.00    +0.000 C 
ATOM      6  C   UNL     1     107.507 128.093 142.172  0.00  0.00    +0.000 C 
ATOM      7  C   UNL     1     105.889 128.042 142.492  0.00  0.00    +0.000 C 
ATOM      8  C   UNL     1     107.037 128.755 142.027  0.00  0.00    +0.000 C 
ENDROOT
BRANCH   8  11
ATOM      9  O   UNL     1     107.648 130.030 142.232  0.00  0.00    +0.000 OA
ATOM     10  O   UNL     1     107.440 129.543 140.905  0.00  0.00    +0.000 OA
ATOM     11  C   UNL     1     107.375 129.443 141.721  0.00  0.00    +0.000 C 
ENDBRANCH   8  11
BRANCH   4  12
ATOM     12  O   UNL     1     106.022 126.692 142.942  0.00  0.00    +0.000 OA
BRANCH  12  17
ATOM     13  O   UNL     1     106.279 127.109 144.284  0.00  0.00    +0.000 OA
ATOM     14  O   UNL     1     105.840 125.136 143.460  0.00  0.00    +0.000 OA
ATOM     15  O   UNL     1     106.008 124.775 145.061  0.00  0.00    +0.000 OA
ATOM     16  O   UNL     1     106.356 125.969 146.145  0.00  0.00    +0.000 OA
ATOM     17  C   UNL     1     106.105 126.511 143.743  0.00  0.00    +0.000 C 
ATOM     18  C   UNL     1     106.015 125.733 144.002  0.00  0.00    +0.000 C 
ATOM     19  C   UNL     1     106.098 125.553 144.802  0.00  0.00    +0.000 C 
ATOM     20  C   UNL     1     106.272 126.150 145.345  0.00  0.00    +0.000 C 
ATOM     21  C   UNL     1     106.363 126.928 145.086  0.00  0.00    +0.000 C 
ATOM     22  C   UNL     1     106.537 127.525 145.627  0.00  0.00    +0.000 C 
ENDBRANCH  12  17
ENDBRANCH   4  12
BRANCH   7  23
ATOM     23  O   UNL     1     105.081 128.016 142.652  0.00  0.00    +0.000 OA
BRANCH  23  27
ATOM     24  O   UNL     1     103.215 130.125 141.910  0.00  0.00    +0.000 OA
ATOM     25  O   UNL     1     103.643 127.905 140.112  0.00  0.00    +0.000 OA
ATOM     26  O   UNL     1     102.727 128.967 139.778  0.00  0.00    +0.000 OA
ATOM     27  C   UNL     1     104.543 128.340 142.116  0.00  0.00    +0.000 A 
ATOM     28  C   UNL     1     104.149 129.082 142.296  0.00  0.00    +0.000 A 
ATOM     29  C   UNL     1     104.374 127.938 141.376  0.00  0.00    +0.000 A 
ATOM     30  C   UNL     1     103.590 129.413 141.732  0.00  0.00    +0.000 A 
ATOM     31  C   UNL     1     103.812 128.283 140.824  0.00  0.00    +0.000 A 
ATOM     32  C   UNL     1     103.427 129.027 141.022  0.00  0.00    +0.000 A 
ATOM     33  C   UNL     1     102.889 129.353 140.488  0.00  0.00    +0.000 A 
ATOM     34  C   UNL     1     102.676 130.452 141.377  0.00  0.00    +0.000 A 
ATOM     35  C   UNL     1     102.514 130.066 140.666  0.00  0.00    +0.000 A 
BRANCH  34  37
ATOM     36  O   UNL     1     101.175 133.304 142.087  0.00  0.00    +0.000 OA
ATOM     37  C   UNL     1     102.301 131.165 141.554  0.00  0.00    +0.000 A 
ATOM     38  C   UNL     1     102.674 131.880 141.384  0.00  0.00    +0.000 A 
ATOM     39  C   UNL     1     101.553 131.162 141.902  0.00  0.00    +0.000 A 
ATOM     40  C   UNL     1     102.299 132.594 141.561  0.00  0.00    +0.000 A 
ATOM     41  C   UNL     1     101.178 131.875 142.079  0.00  0.00    +0.000 A 
ATOM     42  C   UNL     1     101.550 132.591 141.909  0.00  0.00    +0.000 A 
ENDBRANCH  34  37
ENDBRANCH  23  27
ENDBRANCH   7  23
TORSDOF 6
ENDMDL
MODEL 2
REMARK VINA RESULT:     -10.5      2.937      5.688
REMARK  Name = 14309754
REMARK  6 active torsions:
REMARK  status: ('A' for Active; 'I' for Inactive)
REMARK    1  A    between atoms: O_1  and  C_16
REMARK    2  A    between atoms: O_1  and  C_18
REMARK    3  A    between atoms: O_5  and  C_23
REMARK    4  A    between atoms: O_5  and  C_28
REMARK    5  A    between atoms: C_25  and  C_27
REMARK    6  A    between atoms: C_35  and  C_37
REMARK                            x       y       z     vdW  Elec       q    Type
REMARK                         _______ _______ _______ _____ _____    ______ ____
ROOT
ATOM      1  O   UNL     1     106.210 125.743 143.109  0.00  0.00    +0.000 OA
ATOM      2  O   UNL     1     105.228 127.924 143.749  0.00  0.00    +0.000 OA
ATOM      3  O   UNL     1     105.302 126.697 144.850  0.00  0.00    +0.000 OA
ATOM      4  C   UNL     1     105.846 127.083 142.772  0.00  0.00    +0.000 C 
ATOM      5  C   UNL     1     105.556 127.197 143.535  0.00  0.00    +0.000 C 
ATOM      6  C   UNL     1     105.593 126.584 144.086  0.00  0.00    +0.000 C 
ATOM      7  C   UNL     1     106.173 126.357 142.558  0.00  0.00    +0.000 C 
ATOM      8  C   UNL     1     105.920 125.857 143.873  0.00  0.00    +0.000 C 
ENDROOT
BRANCH   8  11
ATOM      9  O   UNL     1     105.336 124.704 144.482  0.00  0.00    +0.000 OA
ATOM     10  O   UNL     1     106.615 125.171 144.916  0.00  0.00    +0.000 OA
ATOM     11  C   UNL     1     105.957 125.244 144.424  0.00  0.00    +0.000 C 
ENDBRANCH   8  11
BRANCH   4  12
ATOM     12  O   UNL     1     105.809 127.696 142.221  0.00  0.00    +0.000 OA
BRANCH  12  17
ATOM     13  O   UNL     1     107.095 128.165 142.632  0.00  0.00    +0.000 OA
ATOM     14  O   UNL     1     105.578 129.085 141.360  0.00  0.00    +0.000 OA
ATOM     15  O   UNL     1     106.748 130.248 141.341  0.00  0.00    +0.000 OA
ATOM     16  O   UNL     1     108.149 130.023 142.182  0.00  0.00    +0.000 OA
ATOM     17  C   UNL     1     106.394 128.279 142.211  0.00  0.00    +0.000 C 
ATOM     18  C   UNL     1     106.279 128.973 141.781  0.00  0.00    +0.000 C 
ATOM     19  C   UNL     1     106.863 129.554 141.771  0.00  0.00    +0.000 C 
ATOM     20  C   UNL     1     107.564 129.442 142.192  0.00  0.00    +0.000 C 
ATOM     21  C   UNL     1     107.680 128.748 142.622  0.00  0.00    +0.000 C 
ATOM     22  C   UNL     1     108.380 128.634 143.043  0.00  0.00    +0.000 C 
ENDBRANCH  12  17
ENDBRANCH   4  12
BRANCH   7  23
ATOM     23  O   UNL     1     106.463 126.243 141.795  0.00  0.00    +0.000 OA
BRANCH  23  27
ATOM     24  O   UNL     1     104.775 124.597 140.086  0.00  0.00    +0.000 OA
ATOM     25  O   UNL     1     107.269 123.530 141.077  0.00  0.00    +0.000 OA
ATOM     26  O   UNL     1     106.408 122.743 140.228  0.00  0.00    +0.000 OA
ATOM     27  C   UNL     1     106.321 125.532 141.400  0.00  0.00    +0.000 A 
ATOM     28  C   UNL     1     105.605 125.432 140.937  0.00  0.00    +0.000 A 
ATOM     29  C   UNL     1     106.888 124.889 141.450  0.00  0.00    +0.000 A 
ATOM     30  C   UNL     1     105.464 124.688 140.529  0.00  0.00    +0.000 A 
ATOM     31  C   UNL     1     106.731 124.152 141.035  0.00  0.00    +0.000 A 
ATOM     32  C   UNL     1     106.008 124.070 140.576  0.00  0.00    +0.000 A 
ATOM     33  C   UNL     1     105.863 123.361 140.181  0.00  0.00    +0.000 A 
ATOM     34  C   UNL     1     104.629 123.888 139.689  0.00  0.00    +0.000 A 
ATOM     35  C   UNL     1     105.174 123.270 139.737  0.00  0.00    +0.000 A 
BRANCH  34  37
ATOM     36  O   UNL     1     101.870 123.523 137.916  0.00  0.00    +0.000 OA
ATOM     37  C   UNL     1     103.939 123.797 139.246  0.00  0.00    +0.000 A 
ATOM     38  C   UNL     1     103.253 123.515 139.606  0.00  0.00    +0.000 A 
ATOM     39  C   UNL     1     103.936 123.987 138.444  0.00  0.00    +0.000 A 
ATOM     40  C   UNL     1     102.563 123.423 139.163  0.00  0.00    +0.000 A 
ATOM     41  C   UNL     1     103.247 123.896 138.001  0.00  0.00    +0.000 A 
ATOM     42  C   UNL     1     102.560 123.614 138.360  0.00  0.00    +0.000 A 
ENDBRANCH  34  37
ENDBRANCH  23  27
ENDBRANCH   7  23
TORSDOF 6
ENDMDL
MODEL 3
REMARK VINA RESULT:     -10.4      3.470      5.906
REMARK  Name = 14309754
REMARK  6 active torsions:
REMARK  status: ('A' for Active; 'I' for Inactive)
REMARK    1  A    between atoms: O_1  and  C_16
REMARK    2  A    between atoms: O_1  and  C_18
REMARK    3  A    between atoms: O_5  and  C_23
REMARK    4  A    between atoms: O_5  and  C_28
REMARK    5  A    between atoms: C_25  and  C_27
REMARK    6  A    between atoms: C_35  and  C_37
REMARK                            x       y       z     vdW  Elec       q    Type
REMARK                         _______ _______ _______ _____ _____    ______ ____
ROOT
ATOM      1  O   UNL     1     106.317 126.643 141.365  0.00  0.00    +0.000 OA
ATOM      2  O   UNL     1     108.304 127.366 142.653  0.00  0.00    +0.000 OA
ATOM      3  O   UNL     1     106.863 128.143 142.855  0.00  0.00    +0.000 OA
ATOM      4  C   UNL     1     107.700 126.495 141.694  0.00  0.00    +0.000 C 
ATOM      5  C   UNL     1     107.642 127.124 142.224  0.00  0.00    +0.000 C 
ATOM      6  C   UNL     1     106.921 127.513 142.325  0.00  0.00    +0.000 C 
ATOM      7  C   UNL     1     107.038 126.254 141.265  0.00  0.00    +0.000 C 
ATOM      8  C   UNL     1     106.259 127.273 141.896  0.00  0.00    +0.000 C 
ENDROOT
BRANCH   8  11
ATOM      9  O   UNL     1     105.328 128.278 141.491  0.00  0.00    +0.000 OA
ATOM     10  O   UNL     1     105.028 127.434 142.604  0.00  0.00    +0.000 OA
ATOM     11  C   UNL     1     105.538 127.662 141.997  0.00  0.00    +0.000 C 
ENDBRANCH   8  11
BRANCH   4  12
ATOM     12  O   UNL     1     108.420 126.107 141.593  0.00  0.00    +0.000 OA
BRANCH  12  17
ATOM     13  O   UNL     1     108.820 127.092 140.639  0.00  0.00    +0.000 OA
ATOM     14  O   UNL     1     109.895 125.378 141.459  0.00  0.00    +0.000 OA
ATOM     15  O   UNL     1     111.032 125.999 140.437  0.00  0.00    +0.000 OA
ATOM     16  O   UNL     1     110.694 127.349 139.550  0.00  0.00    +0.000 OA
ATOM     17  C   UNL     1     108.989 126.417 141.082  0.00  0.00    +0.000 C 
ATOM     18  C   UNL     1     109.727 126.053 141.015  0.00  0.00    +0.000 C 
ATOM     19  C   UNL     1     110.295 126.364 140.504  0.00  0.00    +0.000 C 
ATOM     20  C   UNL     1     110.126 127.039 140.060  0.00  0.00    +0.000 C 
ATOM     21  C   UNL     1     109.389 127.403 140.128  0.00  0.00    +0.000 C 
ATOM     22  C   UNL     1     109.220 128.078 139.684  0.00  0.00    +0.000 C 
ENDBRANCH  12  17
ENDBRANCH   4  12
BRANCH   7  23
ATOM     23  O   UNL     1     107.096 125.625 140.735  0.00  0.00    +0.000 OA
BRANCH  23  27
ATOM     24  O   UNL     1     104.909 124.316 139.327  0.00  0.00    +0.000 OA
ATOM     25  O   UNL     1     105.644 123.413 141.970  0.00  0.00    +0.000 OA
ATOM     26  O   UNL     1     104.566 122.788 141.243  0.00  0.00    +0.000 OA
ATOM     27  C   UNL     1     106.504 125.051 140.708  0.00  0.00    +0.000 A 
ATOM     28  C   UNL     1     106.002 124.980 140.015  0.00  0.00    +0.000 A 
ATOM     29  C   UNL     1     106.385 124.521 141.374  0.00  0.00    +0.000 A 
ATOM     30  C   UNL     1     105.387 124.380 139.995  0.00  0.00    +0.000 A 
ATOM     31  C   UNL     1     105.766 123.926 141.337  0.00  0.00    +0.000 A 
ATOM     32  C   UNL     1     105.273 123.870 140.634  0.00  0.00    +0.000 A 
ATOM     33  C   UNL     1     104.680 123.298 140.604  0.00  0.00    +0.000 A 
ATOM     34  C   UNL     1     104.316 123.743 139.296  0.00  0.00    +0.000 A 
ATOM     35  C   UNL     1     104.202 123.234 139.935  0.00  0.00    +0.000 A 
BRANCH  34  37
ATOM     36  O   UNL     1     102.400 123.490 136.621  0.00  0.00    +0.000 OA
ATOM     37  C   UNL     1     103.837 123.680 138.627  0.00  0.00    +0.000 A 
ATOM     38  C   UNL     1     103.039 123.882 138.672  0.00  0.00    +0.000 A 
ATOM     39  C   UNL     1     104.156 123.415 137.915  0.00  0.00    +0.000 A 
ATOM     40  C   UNL     1     102.559 123.819 138.003  0.00  0.00    +0.000 A 
ATOM     41  C   UNL     1     103.677 123.352 137.246  0.00  0.00    +0.000 A 
ATOM     42  C   UNL     1     102.878 123.553 137.290  0.00  0.00    +0.000 A 
ENDBRANCH  34  37
ENDBRANCH  23  27
ENDBRANCH   7  23
TORSDOF 6
ENDMDL
MODEL 4
REMARK VINA RESULT:     -10.4      6.443     10.058
REMARK  Name = 14309754
REMARK  6 active torsions:
REMARK  status: ('A' for Active; 'I' for Inactive)
REMARK    1  A    between atoms: O_1  and  C_16
REMARK    2  A    between atoms: O_1  and  C_18
REMARK    3  A    between atoms: O_5  and  C_23
REMARK    4  A    between atoms: O_5  and  C_28
REMARK    5  A    between atoms: C_25  and  C_27
REMARK    6  A    between atoms: C_35  and  C_37
REMARK                            x       y       z     vdW  Elec       q    Type
REMARK                         _______ _______ _______ _____ _____    ______ ____
ROOT
ATOM      1  O   UNL     1     110.031 128.920 136.649  0.00  0.00    +0.000 OA
ATOM      2  O   UNL     1     108.633 130.956 136.811  0.00  0.00    +0.000 OA
ATOM      3  O   UNL     1     108.095 129.653 135.954  0.00  0.00    +0.000 OA
ATOM      4  C   UNL     1     109.833 130.250 137.131  0.00  0.00    +0.000 C 
ATOM      5  C   UNL     1     109.099 130.277 136.757  0.00  0.00    +0.000 C 
ATOM      6  C   UNL     1     108.830 129.626 136.329  0.00  0.00    +0.000 C 
ATOM      7  C   UNL     1     110.299 129.572 137.078  0.00  0.00    +0.000 C 
ATOM      8  C   UNL     1     109.295 128.947 136.274  0.00  0.00    +0.000 C 
ENDROOT
BRANCH   8  11
ATOM      9  O   UNL     1     108.551 127.729 136.211  0.00  0.00    +0.000 OA
ATOM     10  O   UNL     1     109.234 128.210 135.052  0.00  0.00    +0.000 OA
ATOM     11  C   UNL     1     109.027 128.295 135.846  0.00  0.00    +0.000 C 
ENDBRANCH   8  11
BRANCH   4  12
ATOM     12  O   UNL     1     110.102 130.902 137.560  0.00  0.00    +0.000 OA
BRANCH  12  17
ATOM     13  O   UNL     1     109.460 130.396 138.732  0.00  0.00    +0.000 OA
ATOM     14  O   UNL     1     110.609 132.223 138.408  0.00  0.00    +0.000 OA
ATOM     15  O   UNL     1     110.222 132.378 140.004  0.00  0.00    +0.000 OA
ATOM     16  O   UNL     1     109.327 131.211 140.753  0.00  0.00    +0.000 OA
ATOM     17  C   UNL     1     109.908 130.979 138.359  0.00  0.00    +0.000 C 
ATOM     18  C   UNL     1     110.162 131.640 138.783  0.00  0.00    +0.000 C 
ATOM     19  C   UNL     1     109.968 131.717 139.580  0.00  0.00    +0.000 C 
ATOM     20  C   UNL     1     109.520 131.134 139.955  0.00  0.00    +0.000 C 
ATOM     21  C   UNL     1     109.267 130.473 139.531  0.00  0.00    +0.000 C 
ATOM     22  C   UNL     1     108.819 129.890 139.905  0.00  0.00    +0.000 C 
ENDBRANCH  12  17
ENDBRANCH   4  12
BRANCH   7  23
ATOM     23  O   UNL     1     111.033 129.544 137.452  0.00  0.00    +0.000 OA
BRANCH  23  27
ATOM     24  O   UNL     1     112.781 127.251 137.050  0.00  0.00    +0.000 OA
ATOM     25  O   UNL     1     113.236 129.670 135.539  0.00  0.00    +0.000 OA
ATOM     26  O   UNL     1     114.082 128.514 135.366  0.00  0.00    +0.000 OA
ATOM     27  C   UNL     1     111.677 129.193 137.074  0.00  0.00    +0.000 A 
ATOM     28  C   UNL     1     111.900 128.385 137.263  0.00  0.00    +0.000 A 
ATOM     29  C   UNL     1     112.128 129.632 136.490  0.00  0.00    +0.000 A 
ATOM     30  C   UNL     1     112.572 128.026 136.865  0.00  0.00    +0.000 A 
ATOM     31  C   UNL     1     112.797 129.257 136.101  0.00  0.00    +0.000 A 
ATOM     32  C   UNL     1     113.006 128.447 136.304  0.00  0.00    +0.000 A 
ATOM     33  C   UNL     1     113.649 128.093 135.928  0.00  0.00    +0.000 A 
ATOM     34  C   UNL     1     113.425 126.895 136.675  0.00  0.00    +0.000 A 
ATOM     35  C   UNL     1     113.858 127.316 136.113  0.00  0.00    +0.000 A 
BRANCH  34  37
ATOM     36  O   UNL     1     114.264 123.791 137.418  0.00  0.00    +0.000 OA
ATOM     37  C   UNL     1     113.634 126.119 136.860  0.00  0.00    +0.000 A 
ATOM     38  C   UNL     1     114.222 125.974 137.421  0.00  0.00    +0.000 A 
ATOM     39  C   UNL     1     113.257 125.489 136.486  0.00  0.00    +0.000 A 
ATOM     40  C   UNL     1     114.432 125.198 137.607  0.00  0.00    +0.000 A 
ATOM     41  C   UNL     1     113.467 124.713 136.672  0.00  0.00    +0.000 A 
ATOM     42  C   UNL     1     114.054 124.567 137.232  0.00  0.00    +0.000 A 
ENDBRANCH  34  37
ENDBRANCH  23  27
ENDBRANCH   7  23
TORSDOF 6
ENDMDL
MODEL 5
REMARK VINA RESULT:     -10.4      6.913     10.094
REMARK  Name = 14309754
REMARK  6 active torsions:
REMARK  status: ('A' for Active; 'I' for Inactive)
REMARK    1  A    between atoms: O_1  and  C_16
REMARK    2  A    between atoms: O_1  and  C_18
REMARK    3  A    between atoms: O_5  and  C_23
REMARK    4  A    between atoms: O_5  and  C_28
REMARK    5  A    between atoms: C_25  and  C_27
REMARK    6  A    between atoms: C_35  and  C_37
REMARK                            x       y       z     vdW  Elec       q    Type
REMARK                         _______ _______ _______ _____ _____    ______ ____
ROOT
ATOM      1  O   UNL     1     111.159 129.843 138.059  0.00  0.00    +0.000 OA
ATOM      2  O   UNL     1     108.756 130.243 138.498  0.00  0.00    +0.000 OA
ATOM      3  O   UNL     1     109.853 130.390 139.721  0.00  0.00    +0.000 OA
ATOM      4  C   UNL     1     109.810 129.902 137.594  0.00  0.00    +0.000 C 
ATOM      5  C   UNL     1     109.557 130.109 138.351  0.00  0.00    +0.000 C 
ATOM      6  C   UNL     1     110.106 130.183 138.963  0.00  0.00    +0.000 C 
ATOM      7  C   UNL     1     110.611 129.769 137.447  0.00  0.00    +0.000 C 
ATOM      8  C   UNL     1     110.907 130.050 138.817  0.00  0.00    +0.000 C 
ENDROOT
BRANCH   8  11
ATOM      9  O   UNL     1     111.837 130.843 139.556  0.00  0.00    +0.000 OA
ATOM     10  O   UNL     1     111.621 129.477 139.914  0.00  0.00    +0.000 OA
ATOM     11  C   UNL     1     111.455 130.124 139.429  0.00  0.00    +0.000 C 
ENDBRANCH   8  11
BRANCH   4  12
ATOM     12  O   UNL     1     109.261 129.828 136.982  0.00  0.00    +0.000 OA
BRANCH  12  17
ATOM     13  O   UNL     1     109.451 131.192 136.601  0.00  0.00    +0.000 OA
ATOM     14  O   UNL     1     107.859 129.780 136.113  0.00  0.00    +0.000 OA
ATOM     15  O   UNL     1     107.348 131.120 135.297  0.00  0.00    +0.000 OA
ATOM     16  O   UNL     1     108.239 132.508 135.350  0.00  0.00    +0.000 OA
ATOM     17  C   UNL     1     109.005 130.499 136.574  0.00  0.00    +0.000 C 
ATOM     18  C   UNL     1     108.304 130.475 136.139  0.00  0.00    +0.000 C 
ATOM     19  C   UNL     1     108.049 131.144 135.732  0.00  0.00    +0.000 C 
ATOM     20  C   UNL     1     108.494 131.839 135.758  0.00  0.00    +0.000 C 
ATOM     21  C   UNL     1     109.195 131.863 136.193  0.00  0.00    +0.000 C 
ATOM     22  C   UNL     1     109.640 132.557 136.220  0.00  0.00    +0.000 C 
ENDBRANCH  12  17
ENDBRANCH   4  12
BRANCH   7  23
ATOM     23  O   UNL     1     110.863 129.562 136.690  0.00  0.00    +0.000 OA
BRANCH  23  27
ATOM     24  O   UNL     1     111.887 126.836 136.687  0.00  0.00    +0.000 OA
ATOM     25  O   UNL     1     113.673 129.030 136.101  0.00  0.00    +0.000 OA
ATOM     26  O   UNL     1     114.146 127.667 136.108  0.00  0.00    +0.000 OA
ATOM     27  C   UNL     1     111.489 129.033 136.594  0.00  0.00    +0.000 A 
ATOM     28  C   UNL     1     111.360 128.189 136.693  0.00  0.00    +0.000 A 
ATOM     29  C   UNL     1     112.272 129.321 136.393  0.00  0.00    +0.000 A 
ATOM     30  C   UNL     1     112.017 127.644 136.591  0.00  0.00    +0.000 A 
ATOM     31  C   UNL     1     112.918 128.762 136.294  0.00  0.00    +0.000 A 
ATOM     32  C   UNL     1     112.769 127.921 136.398  0.00  0.00    +0.000 A 
ATOM     33  C   UNL     1     113.393 127.389 136.301  0.00  0.00    +0.000 A 
ATOM     34  C   UNL     1     112.510 126.303 136.591  0.00  0.00    +0.000 A 
ATOM     35  C   UNL     1     113.263 126.580 136.398  0.00  0.00    +0.000 A 
BRANCH  34  37
ATOM     36  O   UNL     1     111.992 123.067 136.978  0.00  0.00    +0.000 OA
ATOM     37  C   UNL     1     112.381 125.494 136.688  0.00  0.00    +0.000 A 
ATOM     38  C   UNL     1     111.838 125.104 136.206  0.00  0.00    +0.000 A 
ATOM     39  C   UNL     1     112.794 125.077 137.266  0.00  0.00    +0.000 A 
ATOM     40  C   UNL     1     111.708 124.295 136.302  0.00  0.00    +0.000 A 
ATOM     41  C   UNL     1     112.665 124.268 137.363  0.00  0.00    +0.000 A 
ATOM     42  C   UNL     1     112.121 123.876 136.881  0.00  0.00    +0.000 A 
ENDBRANCH  34  37
ENDBRANCH  23  27
ENDBRANCH   7  23
TORSDOF 6
ENDMDL
MODEL 6
REMARK VINA RESULT:     -10.3      7.699      9.900
REMARK  Name = 14309754
REMARK  6 active torsions:
REMARK  status: ('A' for Active; 'I' for Inactive)
REMARK    1  A    between atoms: O_1  and  C_16
REMARK    2  A    between atoms: O_1  and  C_18
REMARK    3  A    between atoms: O_5  and  C_23
REMARK    4  A    between atoms: O_5  and  C_28
REMARK    5  A    between atoms: C_25  and  C_27
REMARK    6  A    between atoms: C_35  and  C_37
REMARK                            x       y       z     vdW  Elec       q    Type
REMARK                         _______ _______ _______ _____ _____    ______ ____
ROOT
ATOM      1  O   UNL     1     112.793 126.270 137.576  0.00  0.00    +0.000 OA
ATOM      2  O   UNL     1     111.276 124.888 136.192  0.00  0.00    +0.000 OA
ATOM      3  O   UNL     1     112.903 124.612 136.159  0.00  0.00    +0.000 OA
ATOM      4  C   UNL     1     111.474 125.947 137.131  0.00  0.00    +0.000 C 
ATOM      5  C   UNL     1     111.781 125.349 136.653  0.00  0.00    +0.000 C 
ATOM      6  C   UNL     1     112.595 125.211 136.637  0.00  0.00    +0.000 C 
ATOM      7  C   UNL     1     111.980 126.408 137.592  0.00  0.00    +0.000 C 
ATOM      8  C   UNL     1     113.101 125.671 137.098  0.00  0.00    +0.000 C 
ENDROOT
BRANCH   8  11
ATOM      9  O   UNL     1     114.390 125.936 136.542  0.00  0.00    +0.000 OA
ATOM     10  O   UNL     1     114.251 124.992 137.606  0.00  0.00    +0.000 OA
ATOM     11  C   UNL     1     113.914 125.533 137.082  0.00  0.00    +0.000 C 
ENDBRANCH   8  11
BRANCH   4  12
ATOM     12  O   UNL     1     110.661 126.085 137.147  0.00  0.00    +0.000 OA
BRANCH  12  17
ATOM     13  O   UNL     1     110.781 126.935 136.005  0.00  0.00    +0.000 OA
ATOM     14  O   UNL     1     109.053 126.442 137.245  0.00  0.00    +0.000 OA
ATOM     15  O   UNL     1     108.369 127.471 136.151  0.00  0.00    +0.000 OA
ATOM     16  O   UNL     1     109.292 128.143 134.960  0.00  0.00    +0.000 OA
ATOM     17  C   UNL     1     110.319 126.600 136.600  0.00  0.00    +0.000 C 
ATOM     18  C   UNL     1     109.515 126.778 136.649  0.00  0.00    +0.000 C 
ATOM     19  C   UNL     1     109.173 127.293 136.102  0.00  0.00    +0.000 C 
ATOM     20  C   UNL     1     109.634 127.629 135.507  0.00  0.00    +0.000 C 
ATOM     21  C   UNL     1     110.438 127.450 135.458  0.00  0.00    +0.000 C 
ATOM     22  C   UNL     1     110.900 127.786 134.863  0.00  0.00    +0.000 C 
ENDBRANCH  12  17
ENDBRANCH   4  12
BRANCH   7  23
ATOM     23  O   UNL     1     111.673 127.006 138.069  0.00  0.00    +0.000 OA
BRANCH  23  27
ATOM     24  O   UNL     1     113.240 128.720 139.825  0.00  0.00    +0.000 OA
ATOM     25  O   UNL     1     112.167 126.239 140.843  0.00  0.00    +0.000 OA
ATOM     26  O   UNL     1     112.948 127.113 141.684  0.00  0.00    +0.000 OA
ATOM     27  C   UNL     1     112.008 127.159 138.808  0.00  0.00    +0.000 A 
ATOM     28  C   UNL     1     112.461 127.878 138.936  0.00  0.00    +0.000 A 
ATOM     29  C   UNL     1     111.906 126.601 139.452  0.00  0.00    +0.000 A 
ATOM     30  C   UNL     1     112.807 128.029 139.708  0.00  0.00    +0.000 A 
ATOM     31  C   UNL     1     112.259 126.769 140.218  0.00  0.00    +0.000 A 
ATOM     32  C   UNL     1     112.709 127.493 140.327  0.00  0.00    +0.000 A 
ATOM     33  C   UNL     1     113.046 127.649 141.064  0.00  0.00    +0.000 A 
ATOM     34  C   UNL     1     113.577 128.877 140.562  0.00  0.00    +0.000 A 
ATOM     35  C   UNL     1     113.480 128.341 141.182  0.00  0.00    +0.000 A 
BRANCH  34  37
ATOM     36  O   UNL     1     115.314 131.644 141.031  0.00  0.00    +0.000 OA
ATOM     37  C   UNL     1     114.011 129.569 140.680  0.00  0.00    +0.000 A 
ATOM     38  C   UNL     1     114.783 129.623 140.396  0.00  0.00    +0.000 A 
ATOM     39  C   UNL     1     113.673 130.205 141.080  0.00  0.00    +0.000 A 
ATOM     40  C   UNL     1     115.218 130.315 140.513  0.00  0.00    +0.000 A 
ATOM     41  C   UNL     1     114.107 130.897 141.197  0.00  0.00    +0.000 A 
ATOM     42  C   UNL     1     114.880 130.952 140.914  0.00  0.00    +0.000 A 
ENDBRANCH  34  37
ENDBRANCH  23  27
ENDBRANCH   7  23
TORSDOF 6
ENDMDL
MODEL 7
REMARK VINA RESULT:     -10.3      6.533      9.752
REMARK  Name = 14309754
REMARK  6 active torsions:
REMARK  status: ('A' for Active; 'I' for Inactive)
REMARK    1  A    between atoms: O_1  and  C_16
REMARK    2  A    between atoms: O_1  and  C_18
REMARK    3  A    between atoms: O_5  and  C_23
REMARK    4  A    between atoms: O_5  and  C_28
REMARK    5  A    between atoms: C_25  and  C_27
REMARK    6  A    between atoms: C_35  and  C_37
REMARK                            x       y       z     vdW  Elec       q    Type
REMARK                         _______ _______ _______ _____ _____    ______ ____
ROOT
ATOM      1  O   UNL     1     109.621 128.718 136.830  0.00  0.00    +0.000 OA
ATOM      2  O   UNL     1     108.192 130.739 136.797  0.00  0.00    +0.000 OA
ATOM      3  O   UNL     1     107.992 129.569 135.652  0.00  0.00    +0.000 OA
ATOM      4  C   UNL     1     109.245 129.977 137.392  0.00  0.00    +0.000 C 
ATOM      5  C   UNL     1     108.669 130.065 136.809  0.00  0.00    +0.000 C 
ATOM      6  C   UNL     1     108.569 129.480 136.236  0.00  0.00    +0.000 C 
ATOM      7  C   UNL     1     109.722 129.303 137.403  0.00  0.00    +0.000 C 
ATOM      8  C   UNL     1     109.045 128.807 136.246  0.00  0.00    +0.000 C 
ENDROOT
BRANCH   8  11
ATOM      9  O   UNL     1     109.403 128.233 134.988  0.00  0.00    +0.000 OA
ATOM     10  O   UNL     1     108.386 127.625 135.787  0.00  0.00    +0.000 OA
ATOM     11  C   UNL     1     108.945 128.222 135.673  0.00  0.00    +0.000 C 
ENDBRANCH   8  11
BRANCH   4  12
ATOM     12  O   UNL     1     109.345 130.562 137.965  0.00  0.00    +0.000 OA
BRANCH  12  17
ATOM     13  O   UNL     1     110.305 131.240 137.151  0.00  0.00    +0.000 OA
ATOM     14  O   UNL     1     109.180 131.914 138.896  0.00  0.00    +0.000 OA
ATOM     15  O   UNL     1     110.057 133.268 138.548  0.00  0.00    +0.000 OA
ATOM     16  O   UNL     1     111.099 133.269 137.269  0.00  0.00    +0.000 OA
ATOM     17  C   UNL     1     109.784 131.239 137.791  0.00  0.00    +0.000 C 
ATOM     18  C   UNL     1     109.701 131.915 138.257  0.00  0.00    +0.000 C 
ATOM     19  C   UNL     1     110.140 132.592 138.083  0.00  0.00    +0.000 C 
ATOM     20  C   UNL     1     110.661 132.593 137.443  0.00  0.00    +0.000 C 
ATOM     21  C   UNL     1     110.744 131.917 136.977  0.00  0.00    +0.000 C 
ATOM     22  C   UNL     1     111.265 131.917 136.338  0.00  0.00    +0.000 C 
ENDBRANCH  12  17
ENDBRANCH   4  12
BRANCH   7  23
ATOM     23  O   UNL     1     110.297 129.215 137.986  0.00  0.00    +0.000 OA
BRANCH  23  27
ATOM     24  O   UNL     1     112.092 126.922 137.961  0.00  0.00    +0.000 OA
ATOM     25  O   UNL     1     109.757 126.884 139.661  0.00  0.00    +0.000 OA
ATOM     26  O   UNL     1     110.668 125.766 139.622  0.00  0.00    +0.000 OA
ATOM     27  C   UNL     1     110.500 128.462 138.256  0.00  0.00    +0.000 A 
ATOM     28  C   UNL     1     111.208 128.074 137.961  0.00  0.00    +0.000 A 
ATOM     29  C   UNL     1     110.006 128.061 138.833  0.00  0.00    +0.000 A 
ATOM     30  C   UNL     1     111.412 127.289 138.247  0.00  0.00    +0.000 A 
ATOM     31  C   UNL     1     110.225 127.277 139.108  0.00  0.00    +0.000 A 
ATOM     32  C   UNL     1     110.937 126.904 138.801  0.00  0.00    +0.000 A 
ATOM     33  C   UNL     1     111.143 126.151 139.068  0.00  0.00    +0.000 A 
ATOM     34  C   UNL     1     112.298 126.168 138.228  0.00  0.00    +0.000 A 
ATOM     35  C   UNL     1     111.823 125.783 138.782  0.00  0.00    +0.000 A 
BRANCH  34  37
ATOM     36  O   UNL     1     115.020 124.697 137.081  0.00  0.00    +0.000 OA
ATOM     37  C   UNL     1     112.979 125.801 137.941  0.00  0.00    +0.000 A 
ATOM     38  C   UNL     1     112.936 125.319 137.273  0.00  0.00    +0.000 A 
ATOM     39  C   UNL     1     113.701 125.914 138.322  0.00  0.00    +0.000 A 
ATOM     40  C   UNL     1     113.617 124.951 136.986  0.00  0.00    +0.000 A 
ATOM     41  C   UNL     1     114.381 125.546 138.036  0.00  0.00    +0.000 A 
ATOM     42  C   UNL     1     114.340 125.064 137.367  0.00  0.00    +0.000 A 
ENDBRANCH  34  37
ENDBRANCH  23  27
ENDBRANCH   7  23
TORSDOF 6
ENDMDL
MODEL 8
REMARK VINA RESULT:     -10.2      6.200      8.181
REMARK  Name = 14309754
REMARK  6 active torsions:
REMARK  status: ('A' for Active; 'I' for Inactive)
REMARK    1  A    between atoms: O_1  and  C_16
REMARK    2  A    between atoms: O_1  and  C_18
REMARK    3  A    between atoms: O_5  and  C_23
REMARK    4  A    between atoms: O_5  and  C_28
REMARK    5  A    between atoms: C_25  and  C_27
REMARK    6  A    between atoms: C_35  and  C_37
REMARK                            x       y       z     vdW  Elec       q    Type
REMARK                         _______ _______ _______ _____ _____    ______ ____
ROOT
ATOM      1  O   UNL     1     109.899 126.746 138.227  0.00  0.00    +0.000 OA
ATOM      2  O   UNL     1     111.988 125.984 139.314  0.00  0.00    +0.000 OA
ATOM      3  O   UNL     1     110.550 125.865 140.116  0.00  0.00    +0.000 OA
ATOM      4  C   UNL     1     111.313 126.551 138.189  0.00  0.00    +0.000 C 
ATOM      5  C   UNL     1     111.291 126.238 138.952  0.00  0.00    +0.000 C 
ATOM      6  C   UNL     1     110.573 126.179 139.353  0.00  0.00    +0.000 C 
ATOM      7  C   UNL     1     110.617 126.805 137.827  0.00  0.00    +0.000 C 
ATOM      8  C   UNL     1     109.876 126.432 138.991  0.00  0.00    +0.000 C 
ENDROOT
BRANCH   8  11
ATOM      9  O   UNL     1     108.672 125.718 139.273  0.00  0.00    +0.000 OA
ATOM     10  O   UNL     1     108.925 126.971 139.911  0.00  0.00    +0.000 OA
ATOM     11  C   UNL     1     109.158 126.373 139.392  0.00  0.00    +0.000 C 
ENDBRANCH   8  11
BRANCH   4  12
ATOM     12  O   UNL     1     112.032 126.610 137.788  0.00  0.00    +0.000 OA
BRANCH  12  17
ATOM     13  O   UNL     1     111.878 125.287 137.270  0.00  0.00    +0.000 OA
ATOM     14  O   UNL     1     113.615 126.607 137.323  0.00  0.00    +0.000 OA
ATOM     15  O   UNL     1     114.252 125.283 136.573  0.00  0.00    +0.000 OA
ATOM     16  O   UNL     1     113.307 123.962 136.287  0.00  0.00    +0.000 OA
ATOM     17  C   UNL     1     112.351 125.947 137.413  0.00  0.00    +0.000 C 
ATOM     18  C   UNL     1     113.143 125.946 137.180  0.00  0.00    +0.000 C 
ATOM     19  C   UNL     1     113.461 125.285 136.805  0.00  0.00    +0.000 C 
ATOM     20  C   UNL     1     112.988 124.623 136.662  0.00  0.00    +0.000 C 
ATOM     21  C   UNL     1     112.197 124.625 136.895  0.00  0.00    +0.000 C 
ATOM     22  C   UNL     1     111.724 123.964 136.752  0.00  0.00    +0.000 C 
ENDBRANCH  12  17
ENDBRANCH   4  12
BRANCH   7  23
ATOM     23  O   UNL     1     110.639 127.118 137.064  0.00  0.00    +0.000 OA
BRANCH  23  27
ATOM     24  O   UNL     1     110.048 129.967 137.166  0.00  0.00    +0.000 OA
ATOM     25  O   UNL     1     108.265 128.192 135.746  0.00  0.00    +0.000 OA
ATOM     26  O   UNL     1     108.004 129.609 135.817  0.00  0.00    +0.000 OA
ATOM     27  C   UNL     1     110.155 127.756 136.865  0.00  0.00    +0.000 A 
ATOM     28  C   UNL     1     110.358 128.549 137.125  0.00  0.00    +0.000 A 
ATOM     29  C   UNL     1     109.446 127.631 136.397  0.00  0.00    +0.000 A 
ATOM     30  C   UNL     1     109.849 129.209 136.914  0.00  0.00    +0.000 A 
ATOM     31  C   UNL     1     108.948 128.302 136.195  0.00  0.00    +0.000 A 
ATOM     32  C   UNL     1     109.167 129.089 136.464  0.00  0.00    +0.000 A 
ATOM     33  C   UNL     1     108.686 129.729 136.267  0.00  0.00    +0.000 A 
ATOM     34  C   UNL     1     109.567 130.608 136.969  0.00  0.00    +0.000 A 
ATOM     35  C   UNL     1     108.885 130.489 136.519  0.00  0.00    +0.000 A 
BRANCH  34  37
ATOM     36  O   UNL     1     110.366 133.647 137.978  0.00  0.00    +0.000 OA
ATOM     37  C   UNL     1     109.767 131.368 137.221  0.00  0.00    +0.000 A 
ATOM     38  C   UNL     1     110.247 131.845 136.751  0.00  0.00    +0.000 A 
ATOM     39  C   UNL     1     109.486 131.649 137.943  0.00  0.00    +0.000 A 
ATOM     40  C   UNL     1     110.447 132.605 137.002  0.00  0.00    +0.000 A 
ATOM     41  C   UNL     1     109.686 132.409 138.196  0.00  0.00    +0.000 A 
ATOM     42  C   UNL     1     110.166 132.887 137.725  0.00  0.00    +0.000 A 
ENDBRANCH  34  37
ENDBRANCH  23  27
ENDBRANCH   7  23
TORSDOF 6
ENDMDL
MODEL 9
REMARK VINA RESULT:     -10.2      6.709     10.289
REMARK  Name = 14309754
REMARK  6 active torsions:
REMARK  status: ('A' for Active; 'I' for Inactive)
REMARK    1  A    between atoms: O_1  and  C_16
REMARK    2  A    between atoms: O_1  and  C_18
REMARK    3  A    between atoms: O_5  and  C_23
REMARK    4  A    between atoms: O_5  and  C_28
REMARK    5  A    between atoms: C_25  and  C_27
REMARK    6  A    between atoms: C_35  and  C_37
REMARK                            x       y       z     vdW  Elec       q    Type
REMARK                         _______ _______ _______ _____ _____    ______ ____
ROOT
ATOM      1  O   UNL     1     112.855 130.057 138.768  0.00  0.00    +0.000 OA
ATOM      2  O   UNL     1     110.980 130.285 140.368  0.00  0.00    +0.000 OA
ATOM      3  O   UNL     1     112.535 130.484 140.885  0.00  0.00    +0.000 OA
ATOM      4  C   UNL     1     111.454 130.033 139.043  0.00  0.00    +0.000 C 
ATOM      5  C   UNL     1     111.605 130.209 139.834  0.00  0.00    +0.000 C 
ATOM      6  C   UNL     1     112.382 130.308 140.093  0.00  0.00    +0.000 C 
ATOM      7  C   UNL     1     112.078 129.957 138.510  0.00  0.00    +0.000 C 
ATOM      8  C   UNL     1     113.008 130.233 139.561  0.00  0.00    +0.000 C 
ENDROOT
BRANCH   8  11
ATOM      9  O   UNL     1     114.197 129.696 140.142  0.00  0.00    +0.000 OA
ATOM     10  O   UNL     1     114.149 131.070 139.754  0.00  0.00    +0.000 OA
ATOM     11  C   UNL     1     113.785 130.333 139.819  0.00  0.00    +0.000 C 
ENDBRANCH   8  11
BRANCH   4  12
ATOM     12  O   UNL     1     110.677 129.933 138.785  0.00  0.00    +0.000 OA
BRANCH  12  17
ATOM     13  O   UNL     1     110.578 131.316 138.439  0.00  0.00    +0.000 OA
ATOM     14  O   UNL     1     109.033 129.802 138.726  0.00  0.00    +0.000 OA
ATOM     15  O   UNL     1     108.113 131.119 138.350  0.00  0.00    +0.000 OA
ATOM     16  O   UNL     1     108.836 132.568 138.034  0.00  0.00    +0.000 OA
ATOM     17  C   UNL     1     110.216 130.593 138.597  0.00  0.00    +0.000 C 
ATOM     18  C   UNL     1     109.394 130.527 138.567  0.00  0.00    +0.000 C 
ATOM     19  C   UNL     1     108.935 131.185 138.380  0.00  0.00    +0.000 C 
ATOM     20  C   UNL     1     109.296 131.910 138.221  0.00  0.00    +0.000 C 
ATOM     21  C   UNL     1     110.118 131.975 138.251  0.00  0.00    +0.000 C 
ATOM     22  C   UNL     1     110.480 132.699 138.092  0.00  0.00    +0.000 C 
ENDBRANCH  12  17
ENDBRANCH   4  12
BRANCH   7  23
ATOM     23  O   UNL     1     111.927 129.782 137.719  0.00  0.00    +0.000 OA
BRANCH  23  27
ATOM     24  O   UNL     1     113.033 127.165 137.081  0.00  0.00    +0.000 OA
ATOM     25  O   UNL     1     114.052 129.509 135.735  0.00  0.00    +0.000 OA
ATOM     26  O   UNL     1     114.576 128.196 135.445  0.00  0.00    +0.000 OA
ATOM     27  C   UNL     1     112.454 129.313 137.291  0.00  0.00    +0.000 A 
ATOM     28  C   UNL     1     112.470 128.462 137.411  0.00  0.00    +0.000 A 
ATOM     29  C   UNL     1     112.989 129.671 136.723  0.00  0.00    +0.000 A 
ATOM     30  C   UNL     1     113.022 127.980 136.962  0.00  0.00    +0.000 A 
ATOM     31  C   UNL     1     113.535 129.174 136.282  0.00  0.00    +0.000 A 
ATOM     32  C   UNL     1     113.536 128.324 136.416  0.00  0.00    +0.000 A 
ATOM     33  C   UNL     1     114.062 127.852 135.990  0.00  0.00    +0.000 A 
ATOM     34  C   UNL     1     113.558 126.692 136.656  0.00  0.00    +0.000 A 
ATOM     35  C   UNL     1     114.073 127.036 136.110  0.00  0.00    +0.000 A 
BRANCH  34  37
ATOM     36  O   UNL     1     113.602 123.427 137.134  0.00  0.00    +0.000 OA
ATOM     37  C   UNL     1     113.570 125.875 136.775  0.00  0.00    +0.000 A 
ATOM     38  C   UNL     1     112.958 125.408 136.480  0.00  0.00    +0.000 A 
ATOM     39  C   UNL     1     114.191 125.528 137.190  0.00  0.00    +0.000 A 
ATOM     40  C   UNL     1     112.968 124.591 136.599  0.00  0.00    +0.000 A 
ATOM     41  C   UNL     1     114.202 124.712 137.310  0.00  0.00    +0.000 A 
ATOM     42  C   UNL     1     113.591 124.243 137.014  0.00  0.00    +0.000 A 
ENDBRANCH  34  37
ENDBRANCH  23  27
ENDBRANCH   7  23
TORSDOF 6
ENDMDL
MODEL 10
REMARK VINA RESULT:     -10.2      7.806      9.003
REMARK  Name = 14309754
REMARK  6 active torsions:
REMARK  status: ('A' for Active; 'I' for Inactive)
REMARK    1  A    between atoms: O_1  and  C_16
REMARK    2  A    between atoms: O_1  and  C_18
REMARK    3  A    between atoms: O_5  and  C_23
REMARK    4  A    between atoms: O_5  and  C_28
REMARK    5  A    between atoms: C_25  and  C_27
REMARK    6  A    between atoms: C_35  and  C_37
REMARK                            x       y       z     vdW  Elec       q    Type
REMARK                         _______ _______ _______ _____ _____    ______ ____
ROOT
ATOM      1  O   UNL     1     112.760 129.027 136.360  0.00  0.00    +0.000 OA
ATOM      2  O   UNL     1     114.024 126.913 136.603  0.00  0.00    +0.000 OA
ATOM      3  O   UNL     1     114.552 128.074 135.556  0.00  0.00    +0.000 OA
ATOM      4  C   UNL     1     112.918 127.742 136.965  0.00  0.00    +0.000 C 
ATOM      5  C   UNL     1     113.603 127.618 136.523  0.00  0.00    +0.000 C 
ATOM      6  C   UNL     1     113.866 128.198 135.999  0.00  0.00    +0.000 C 
ATOM      7  C   UNL     1     112.496 128.447 136.884  0.00  0.00    +0.000 C 
ATOM      8  C   UNL     1     113.446 128.903 135.917  0.00  0.00    +0.000 C 
ENDROOT
BRANCH   8  11
ATOM      9  O   UNL     1     113.447 129.483 134.612  0.00  0.00    +0.000 OA
ATOM     10  O   UNL     1     114.236 130.064 135.653  0.00  0.00    +0.000 OA
ATOM     11  C   UNL     1     113.709 129.483 135.394  0.00  0.00    +0.000 C 
ENDBRANCH   8  11
BRANCH   4  12
ATOM     12  O   UNL     1     112.654 127.162 137.488  0.00  0.00    +0.000 OA
BRANCH  12  17
ATOM     13  O   UNL     1     111.898 126.542 136.446  0.00  0.00    +0.000 OA
ATOM     14  O   UNL     1     112.402 125.848 138.453  0.00  0.00    +0.000 OA
ATOM     15  O   UNL     1     111.520 124.571 137.893  0.00  0.00    +0.000 OA
ATOM     16  O   UNL     1     110.890 124.608 136.369  0.00  0.00    +0.000 OA
ATOM     17  C   UNL     1     112.213 126.523 137.208  0.00  0.00    +0.000 C 
ATOM     18  C   UNL     1     112.087 125.866 137.691  0.00  0.00    +0.000 C 
ATOM     19  C   UNL     1     111.646 125.228 137.411  0.00  0.00    +0.000 C 
ATOM     20  C   UNL     1     111.330 125.246 136.649  0.00  0.00    +0.000 C 
ATOM     21  C   UNL     1     111.457 125.903 136.166  0.00  0.00    +0.000 C 
ATOM     22  C   UNL     1     111.142 125.923 135.404  0.00  0.00    +0.000 C 
ENDBRANCH  12  17
ENDBRANCH   4  12
BRANCH   7  23
ATOM     23  O   UNL     1     111.812 128.572 137.326  0.00  0.00    +0.000 OA
BRANCH  23  27
ATOM     24  O   UNL     1     109.890 130.591 136.485  0.00  0.00    +0.000 OA
ATOM     25  O   UNL     1     111.785 131.211 138.575  0.00  0.00    +0.000 OA
ATOM     26  O   UNL     1     110.819 132.187 138.132  0.00  0.00    +0.000 OA
ATOM     27  C   UNL     1     111.496 129.331 137.394  0.00  0.00    +0.000 A 
ATOM     28  C   UNL     1     110.842 129.572 136.892  0.00  0.00    +0.000 A 
ATOM     29  C   UNL     1     111.818 129.884 137.966  0.00  0.00    +0.000 A 
ATOM     30  C   UNL     1     110.518 130.365 136.969  0.00  0.00    +0.000 A 
ATOM     31  C   UNL     1     111.482 130.673 138.029  0.00  0.00    +0.000 A 
ATOM     32  C   UNL     1     110.828 130.897 137.518  0.00  0.00    +0.000 A 
ATOM     33  C   UNL     1     110.509 131.655 137.583  0.00  0.00    +0.000 A 
ATOM     34  C   UNL     1     109.571 131.350 136.549  0.00  0.00    +0.000 A 
ATOM     35  C   UNL     1     109.881 131.881 137.099  0.00  0.00    +0.000 A 
BRANCH  34  37
ATOM     36  O   UNL     1     107.058 132.255 134.612  0.00  0.00    +0.000 OA
ATOM     37  C   UNL     1     108.943 131.576 136.065  0.00  0.00    +0.000 A 
ATOM     38  C   UNL     1     108.167 131.485 136.328  0.00  0.00    +0.000 A 
ATOM     39  C   UNL     1     109.091 131.893 135.318  0.00  0.00    +0.000 A 
ATOM     40  C   UNL     1     107.538 131.711 135.844  0.00  0.00    +0.000 A 
ATOM     41  C   UNL     1     108.463 132.119 134.834  0.00  0.00    +0.000 A 
ATOM     42  C   UNL     1     107.686 132.029 135.096  0.00  0.00    +0.000 A 
ENDBRANCH  34  37
ENDBRANCH  23  27
ENDBRANCH   7  23
TORSDOF 6
ENDMDL
