MODEL 1
REMARK VINA RESULT:      -9.9      0.000      0.000
REMARK  Name = 44257087
REMARK  3 active torsions:
REMARK  status: ('A' for Active; 'I' for Inactive)
REMARK    1  A    between atoms: O_2  and  C_15
REMARK    2  A    between atoms: O_2  and  C_22
REMARK    3  A    between atoms: C_17  and  C_24
REMARK                            x       y       z     vdW  Elec       q    Type
REMARK                         _______ _______ _______ _____ _____    ______ ____
ROOT
ATOM      1  O   UNL     1     111.986 126.384 136.092  0.00  0.00    +0.000 OA
ATOM      2  O   UNL     1     111.730 124.217 136.124  0.00  0.00    +0.000 OA
ATOM      3  O   UNL     1     109.424 125.715 134.936  0.00  0.00    +0.000 OA
ATOM      4  C   UNL     1     111.579 125.018 135.997  0.00  0.00    +0.000 C 
ATOM      5  C   UNL     1     112.138 125.583 136.220  0.00  0.00    +0.000 C 
ATOM      6  C   UNL     1     110.870 125.254 135.647  0.00  0.00    +0.000 C 
ATOM      7  C   UNL     1     110.719 126.055 135.520  0.00  0.00    +0.000 A 
ATOM      8  C   UNL     1     111.278 126.620 135.743  0.00  0.00    +0.000 A 
ATOM      9  C   UNL     1     110.395 127.710 135.251  0.00  0.00    +0.000 A 
ATOM     10  C   UNL     1     111.132 127.457 135.615  0.00  0.00    +0.000 A 
ATOM     11  C   UNL     1     109.977 126.288 135.155  0.00  0.00    +0.000 A 
ATOM     12  C   UNL     1     109.814 127.120 135.020  0.00  0.00    +0.000 A 
ENDROOT
BRANCH   5  15
ATOM     13  O   UNL     1     114.932 125.019 136.012  0.00  0.00    +0.000 OA
ATOM     14  O   UNL     1     114.974 124.640 137.617  0.00  0.00    +0.000 OA
ATOM     15  C   UNL     1     112.847 125.347 136.569  0.00  0.00    +0.000 A 
ATOM     16  C   UNL     1     113.535 125.301 136.115  0.00  0.00    +0.000 A 
ATOM     17  C   UNL     1     112.868 125.158 137.372  0.00  0.00    +0.000 A 
ATOM     18  C   UNL     1     114.244 125.065 136.465  0.00  0.00    +0.000 A 
ATOM     19  C   UNL     1     113.577 124.922 137.721  0.00  0.00    +0.000 A 
ATOM     20  C   UNL     1     114.265 124.876 137.268  0.00  0.00    +0.000 A 
ENDBRANCH   5  15
BRANCH   9  21
ATOM     21  O   UNL     1     110.247 128.511 135.125  0.00  0.00    +0.000 OA
BRANCH  21  30
ATOM     22  O   UNL     1     109.963 128.862 136.481  0.00  0.00    +0.000 OA
ATOM     23  O   UNL     1     108.171 130.385 135.711  0.00  0.00    +0.000 OA
ATOM     24  O   UNL     1     108.484 130.228 137.324  0.00  0.00    +0.000 OA
ATOM     25  O   UNL     1     109.052 129.527 134.612  0.00  0.00    +0.000 OA
ATOM     26  C   UNL     1     108.768 129.878 135.968  0.00  0.00    +0.000 C 
ATOM     27  C   UNL     1     108.925 129.799 136.774  0.00  0.00    +0.000 C 
ATOM     28  C   UNL     1     109.209 129.448 135.419  0.00  0.00    +0.000 C 
ATOM     29  C   UNL     1     109.523 129.291 137.030  0.00  0.00    +0.000 C 
ATOM     30  C   UNL     1     109.807 128.940 135.676  0.00  0.00    +0.000 C 
ATOM     31  C   UNL     1     109.679 129.213 137.837  0.00  0.00    +0.000 C 
ENDBRANCH  21  30
ENDBRANCH   9  21
TORSDOF 3
ENDMDL
MODEL 2
REMARK VINA RESULT:      -9.4      2.333      3.143
REMARK  Name = 44257087
REMARK  3 active torsions:
REMARK  status: ('A' for Active; 'I' for Inactive)
REMARK    1  A    between atoms: O_2  and  C_15
REMARK    2  A    between atoms: O_2  and  C_22
REMARK    3  A    between atoms: C_17  and  C_24
REMARK                            x       y       z     vdW  Elec       q    Type
REMARK                         _______ _______ _______ _____ _____    ______ ____
ROOT
ATOM      1  O   UNL     1     111.875 126.725 136.051  0.00  0.00    +0.000 OA
ATOM      2  O   UNL     1     110.020 125.670 135.596  0.00  0.00    +0.000 OA
ATOM      3  O   UNL     1     110.103 128.499 134.615  0.00  0.00    +0.000 OA
ATOM      4  C   UNL     1     110.587 126.267 135.636  0.00  0.00    +0.000 C 
ATOM      5  C   UNL     1     111.308 126.127 136.012  0.00  0.00    +0.000 C 
ATOM      6  C   UNL     1     110.433 127.005 135.301  0.00  0.00    +0.000 C 
ATOM      7  C   UNL     1     111.001 127.603 135.342  0.00  0.00    +0.000 A 
ATOM      8  C   UNL     1     111.722 127.463 135.717  0.00  0.00    +0.000 A 
ATOM      9  C   UNL     1     112.166 128.848 135.418  0.00  0.00    +0.000 A 
ATOM     10  C   UNL     1     112.320 128.077 135.765  0.00  0.00    +0.000 A 
ATOM     11  C   UNL     1     110.828 128.368 134.988  0.00  0.00    +0.000 A 
ATOM     12  C   UNL     1     111.414 128.994 135.027  0.00  0.00    +0.000 A 
ENDROOT
BRANCH   5  15
ATOM     13  O   UNL     1     111.393 124.417 138.300  0.00  0.00    +0.000 OA
ATOM     14  O   UNL     1     111.923 123.175 137.352  0.00  0.00    +0.000 OA
ATOM     15  C   UNL     1     111.462 125.389 136.347  0.00  0.00    +0.000 A 
ATOM     16  C   UNL     1     111.351 125.272 137.156  0.00  0.00    +0.000 A 
ATOM     17  C   UNL     1     111.727 124.768 135.873  0.00  0.00    +0.000 A 
ATOM     18  C   UNL     1     111.504 124.534 137.491  0.00  0.00    +0.000 A 
ATOM     19  C   UNL     1     111.881 124.030 136.208  0.00  0.00    +0.000 A 
ATOM     20  C   UNL     1     111.769 123.913 137.017  0.00  0.00    +0.000 A 
ENDBRANCH   5  15
BRANCH   9  21
ATOM     21  O   UNL     1     112.735 129.444 135.460  0.00  0.00    +0.000 OA
BRANCH  21  30
ATOM     22  O   UNL     1     112.201 130.104 136.609  0.00  0.00    +0.000 OA
ATOM     23  O   UNL     1     114.496 130.593 137.395  0.00  0.00    +0.000 OA
ATOM     24  O   UNL     1     113.196 131.090 138.283  0.00  0.00    +0.000 OA
ATOM     25  O   UNL     1     114.265 129.771 135.984  0.00  0.00    +0.000 OA
ATOM     26  C   UNL     1     113.731 130.430 137.133  0.00  0.00    +0.000 C 
ATOM     27  C   UNL     1     113.081 130.678 137.576  0.00  0.00    +0.000 C 
ATOM     28  C   UNL     1     113.615 130.019 136.428  0.00  0.00    +0.000 C 
ATOM     29  C   UNL     1     112.316 130.515 137.314  0.00  0.00    +0.000 C 
ATOM     30  C   UNL     1     112.850 129.856 136.166  0.00  0.00    +0.000 C 
ATOM     31  C   UNL     1     111.666 130.763 137.759  0.00  0.00    +0.000 C 
ENDBRANCH  21  30
ENDBRANCH   9  21
TORSDOF 3
ENDMDL
MODEL 3
REMARK VINA RESULT:      -9.4      1.409      2.265
REMARK  Name = 44257087
REMARK  3 active torsions:
REMARK  status: ('A' for Active; 'I' for Inactive)
REMARK    1  A    between atoms: O_2  and  C_15
REMARK    2  A    between atoms: O_2  and  C_22
REMARK    3  A    between atoms: C_17  and  C_24
REMARK                            x       y       z     vdW  Elec       q    Type
REMARK                         _______ _______ _______ _____ _____    ______ ____
ROOT
ATOM      1  O   UNL     1     111.723 126.896 136.159  0.00  0.00    +0.000 OA
ATOM      2  O   UNL     1     113.688 126.280 136.882  0.00  0.00    +0.000 OA
ATOM      3  O   UNL     1     113.554 129.121 135.944  0.00  0.00    +0.000 OA
ATOM      4  C   UNL     1     113.083 126.746 136.571  0.00  0.00    +0.000 C 
ATOM      5  C   UNL     1     112.328 126.429 136.470  0.00  0.00    +0.000 C 
ATOM      6  C   UNL     1     113.232 127.530 136.362  0.00  0.00    +0.000 C 
ATOM      7  C   UNL     1     112.627 127.997 136.052  0.00  0.00    +0.000 A 
ATOM      8  C   UNL     1     111.872 127.680 135.950  0.00  0.00    +0.000 A 
ATOM      9  C   UNL     1     111.383 128.973 135.408  0.00  0.00    +0.000 A 
ATOM     10  C   UNL     1     111.234 128.156 135.628  0.00  0.00    +0.000 A 
ATOM     11  C   UNL     1     112.796 128.813 135.838  0.00  0.00    +0.000 A 
ATOM     12  C   UNL     1     112.170 129.304 135.514  0.00  0.00    +0.000 A 
ENDROOT
BRANCH   5  15
ATOM     13  O   UNL     1     111.262 124.518 138.308  0.00  0.00    +0.000 OA
ATOM     14  O   UNL     1     111.730 123.293 137.306  0.00  0.00    +0.000 OA
ATOM     15  C   UNL     1     112.178 125.645 136.679  0.00  0.00    +0.000 A 
ATOM     16  C   UNL     1     111.795 125.474 137.389  0.00  0.00    +0.000 A 
ATOM     17  C   UNL     1     112.413 125.033 136.178  0.00  0.00    +0.000 A 
ATOM     18  C   UNL     1     111.645 124.690 137.598  0.00  0.00    +0.000 A 
ATOM     19  C   UNL     1     112.263 124.249 136.387  0.00  0.00    +0.000 A 
ATOM     20  C   UNL     1     111.879 124.078 137.097  0.00  0.00    +0.000 A 
ENDBRANCH   5  15
BRANCH   9  21
ATOM     21  O   UNL     1     110.776 129.438 135.098  0.00  0.00    +0.000 OA
BRANCH  21  30
ATOM     22  O   UNL     1     110.404 130.068 136.326  0.00  0.00    +0.000 OA
ATOM     23  O   UNL     1     108.028 130.010 135.636  0.00  0.00    +0.000 OA
ATOM     24  O   UNL     1     108.448 130.659 137.094  0.00  0.00    +0.000 OA
ATOM     25  O   UNL     1     109.192 129.399 134.638  0.00  0.00    +0.000 OA
ATOM     26  C   UNL     1     108.820 130.029 135.866  0.00  0.00    +0.000 C 
ATOM     27  C   UNL     1     109.031 130.353 136.594  0.00  0.00    +0.000 C 
ATOM     28  C   UNL     1     109.402 129.724 135.367  0.00  0.00    +0.000 C 
ATOM     29  C   UNL     1     109.823 130.373 136.824  0.00  0.00    +0.000 C 
ATOM     30  C   UNL     1     110.194 129.743 135.597  0.00  0.00    +0.000 C 
ATOM     31  C   UNL     1     110.033 130.697 137.553  0.00  0.00    +0.000 C 
ENDBRANCH  21  30
ENDBRANCH   9  21
TORSDOF 3
ENDMDL
MODEL 4
REMARK VINA RESULT:      -9.4      9.241     11.799
REMARK  Name = 44257087
REMARK  3 active torsions:
REMARK  status: ('A' for Active; 'I' for Inactive)
REMARK    1  A    between atoms: O_2  and  C_15
REMARK    2  A    between atoms: O_2  and  C_22
REMARK    3  A    between atoms: C_17  and  C_24
REMARK                            x       y       z     vdW  Elec       q    Type
REMARK                         _______ _______ _______ _____ _____    ______ ____
ROOT
ATOM      1  O   UNL     1     103.096 132.893 140.965  0.00  0.00    +0.000 OA
ATOM      2  O   UNL     1     102.035 134.598 141.818  0.00  0.00    +0.000 OA
ATOM      3  O   UNL     1     100.727 131.951 142.325  0.00  0.00    +0.000 OA
ATOM      4  C   UNL     1     102.225 133.823 141.611  0.00  0.00    +0.000 C 
ATOM      5  C   UNL     1     102.906 133.668 141.171  0.00  0.00    +0.000 C 
ATOM      6  C   UNL     1     101.735 133.201 141.843  0.00  0.00    +0.000 C 
ATOM      7  C   UNL     1     101.926 132.426 141.636  0.00  0.00    +0.000 A 
ATOM      8  C   UNL     1     102.606 132.271 141.197  0.00  0.00    +0.000 A 
ATOM      9  C   UNL     1     102.309 130.816 141.215  0.00  0.00    +0.000 A 
ATOM     10  C   UNL     1     102.815 131.468 140.976  0.00  0.00    +0.000 A 
ATOM     11  C   UNL     1     101.406 131.787 141.885  0.00  0.00    +0.000 A 
ATOM     12  C   UNL     1     101.599 130.977 141.673  0.00  0.00    +0.000 A 
ENDROOT
BRANCH   5  15
ATOM     13  O   UNL     1     105.188 135.326 141.632  0.00  0.00    +0.000 OA
ATOM     14  O   UNL     1     104.868 136.154 140.241  0.00  0.00    +0.000 OA
ATOM     15  C   UNL     1     103.397 134.290 140.938  0.00  0.00    +0.000 A 
ATOM     16  C   UNL     1     104.047 134.497 141.402  0.00  0.00    +0.000 A 
ATOM     17  C   UNL     1     103.236 134.704 140.243  0.00  0.00    +0.000 A 
ATOM     18  C   UNL     1     104.538 135.118 141.169  0.00  0.00    +0.000 A 
ATOM     19  C   UNL     1     103.727 135.325 140.011  0.00  0.00    +0.000 A 
ATOM     20  C   UNL     1     104.377 135.532 140.474  0.00  0.00    +0.000 A 
ENDBRANCH   5  15
BRANCH   9  21
ATOM     21  O   UNL     1     102.502 130.042 141.007  0.00  0.00    +0.000 OA
BRANCH  21  30
ATOM     22  O   UNL     1     103.268 129.853 142.198  0.00  0.00    +0.000 OA
ATOM     23  O   UNL     1     104.485 127.987 141.120  0.00  0.00    +0.000 OA
ATOM     24  O   UNL     1     104.846 128.421 142.671  0.00  0.00    +0.000 OA
ATOM     25  O   UNL     1     103.313 128.798 140.288  0.00  0.00    +0.000 OA
ATOM     26  C   UNL     1     104.079 128.609 141.480  0.00  0.00    +0.000 C 
ATOM     27  C   UNL     1     104.259 128.827 142.255  0.00  0.00    +0.000 C 
ATOM     28  C   UNL     1     103.493 129.015 141.064  0.00  0.00    +0.000 C 
ATOM     29  C   UNL     1     103.853 129.449 142.614  0.00  0.00    +0.000 C 
ATOM     30  C   UNL     1     103.088 129.637 141.423  0.00  0.00    +0.000 C 
ATOM     31  C   UNL     1     104.034 129.665 143.390  0.00  0.00    +0.000 C 
ENDBRANCH  21  30
ENDBRANCH   9  21
TORSDOF 3
ENDMDL
MODEL 5
REMARK VINA RESULT:      -9.4      1.942      3.540
REMARK  Name = 44257087
REMARK  3 active torsions:
REMARK  status: ('A' for Active; 'I' for Inactive)
REMARK    1  A    between atoms: O_2  and  C_15
REMARK    2  A    between atoms: O_2  and  C_22
REMARK    3  A    between atoms: C_17  and  C_24
REMARK                            x       y       z     vdW  Elec       q    Type
REMARK                         _______ _______ _______ _____ _____    ______ ____
ROOT
ATOM      1  O   UNL     1     110.153 128.225 136.093  0.00  0.00    +0.000 OA
ATOM      2  O   UNL     1     108.451 126.951 135.598  0.00  0.00    +0.000 OA
ATOM      3  O   UNL     1     107.776 129.855 135.894  0.00  0.00    +0.000 OA
ATOM      4  C   UNL     1     108.897 127.622 135.776  0.00  0.00    +0.000 C 
ATOM      5  C   UNL     1     109.707 127.553 135.915  0.00  0.00    +0.000 C 
ATOM      6  C   UNL     1     108.533 128.361 135.817  0.00  0.00    +0.000 C 
ATOM      7  C   UNL     1     108.979 129.032 135.995  0.00  0.00    +0.000 A 
ATOM      8  C   UNL     1     109.789 128.963 136.133  0.00  0.00    +0.000 A 
ATOM      9  C   UNL     1     109.891 130.427 136.364  0.00  0.00    +0.000 A 
ATOM     10  C   UNL     1     110.264 129.655 136.320  0.00  0.00    +0.000 A 
ATOM     11  C   UNL     1     108.587 129.796 136.034  0.00  0.00    +0.000 A 
ATOM     12  C   UNL     1     109.046 130.498 136.220  0.00  0.00    +0.000 A 
ENDROOT
BRANCH   5  15
ATOM     13  O   UNL     1     110.808 125.262 137.221  0.00  0.00    +0.000 OA
ATOM     14  O   UNL     1     111.164 124.597 135.754  0.00  0.00    +0.000 OA
ATOM     15  C   UNL     1     110.071 126.814 135.874  0.00  0.00    +0.000 A 
ATOM     16  C   UNL     1     110.257 126.408 136.568  0.00  0.00    +0.000 A 
ATOM     17  C   UNL     1     110.250 126.482 135.141  0.00  0.00    +0.000 A 
ATOM     18  C   UNL     1     110.622 125.669 136.528  0.00  0.00    +0.000 A 
ATOM     19  C   UNL     1     110.614 125.743 135.101  0.00  0.00    +0.000 A 
ATOM     20  C   UNL     1     110.800 125.336 135.794  0.00  0.00    +0.000 A 
ENDBRANCH   5  15
BRANCH   9  21
ATOM     21  O   UNL     1     110.339 131.096 136.542  0.00  0.00    +0.000 OA
BRANCH  21  30
ATOM     22  O   UNL     1     110.319 130.942 137.963  0.00  0.00    +0.000 OA
ATOM     23  O   UNL     1     110.156 133.398 138.227  0.00  0.00    +0.000 OA
ATOM     24  O   UNL     1     110.189 132.425 139.559  0.00  0.00    +0.000 OA
ATOM     25  O   UNL     1     110.231 132.733 136.718  0.00  0.00    +0.000 OA
ATOM     26  C   UNL     1     110.210 132.579 138.139  0.00  0.00    +0.000 C 
ATOM     27  C   UNL     1     110.227 132.092 138.804  0.00  0.00    +0.000 C 
ATOM     28  C   UNL     1     110.248 132.246 137.385  0.00  0.00    +0.000 C 
ATOM     29  C   UNL     1     110.281 131.274 138.717  0.00  0.00    +0.000 C 
ATOM     30  C   UNL     1     110.302 131.428 137.297  0.00  0.00    +0.000 C 
ATOM     31  C   UNL     1     110.298 130.788 139.383  0.00  0.00    +0.000 C 
ENDBRANCH  21  30
ENDBRANCH   9  21
TORSDOF 3
ENDMDL
MODEL 6
REMARK VINA RESULT:      -9.3      1.451      1.594
REMARK  Name = 44257087
REMARK  3 active torsions:
REMARK  status: ('A' for Active; 'I' for Inactive)
REMARK    1  A    between atoms: O_2  and  C_15
REMARK    2  A    between atoms: O_2  and  C_22
REMARK    3  A    between atoms: C_17  and  C_24
REMARK                            x       y       z     vdW  Elec       q    Type
REMARK                         _______ _______ _______ _____ _____    ______ ____
ROOT
ATOM      1  O   UNL     1     111.555 126.098 136.881  0.00  0.00    +0.000 OA
ATOM      2  O   UNL     1     111.642 124.851 138.670  0.00  0.00    +0.000 OA
ATOM      3  O   UNL     1     109.027 126.256 138.271  0.00  0.00    +0.000 OA
ATOM      4  C   UNL     1     111.357 125.365 138.092  0.00  0.00    +0.000 C 
ATOM      5  C   UNL     1     111.840 125.583 137.459  0.00  0.00    +0.000 C 
ATOM      6  C   UNL     1     110.589 125.663 138.145  0.00  0.00    +0.000 C 
ATOM      7  C   UNL     1     110.304 126.177 137.567  0.00  0.00    +0.000 A 
ATOM      8  C   UNL     1     110.788 126.395 136.934  0.00  0.00    +0.000 A 
ATOM      9  C   UNL     1     109.703 127.243 136.376  0.00  0.00    +0.000 A 
ATOM     10  C   UNL     1     110.502 126.930 136.326  0.00  0.00    +0.000 A 
ATOM     11  C   UNL     1     109.502 126.480 137.635  0.00  0.00    +0.000 A 
ATOM     12  C   UNL     1     109.200 127.016 137.035  0.00  0.00    +0.000 A 
ENDROOT
BRANCH   5  15
ATOM     13  O   UNL     1     114.611 125.747 138.142  0.00  0.00    +0.000 OA
ATOM     14  O   UNL     1     114.911 124.395 137.245  0.00  0.00    +0.000 OA
ATOM     15  C   UNL     1     112.608 125.286 137.406  0.00  0.00    +0.000 A 
ATOM     16  C   UNL     1     113.225 125.666 137.801  0.00  0.00    +0.000 A 
ATOM     17  C   UNL     1     112.758 124.610 136.957  0.00  0.00    +0.000 A 
ATOM     18  C   UNL     1     113.993 125.368 137.747  0.00  0.00    +0.000 A 
ATOM     19  C   UNL     1     113.526 124.313 136.904  0.00  0.00    +0.000 A 
ATOM     20  C   UNL     1     114.144 124.692 137.299  0.00  0.00    +0.000 A 
ENDBRANCH   5  15
BRANCH   9  21
ATOM     21  O   UNL     1     109.421 127.757 135.796  0.00  0.00    +0.000 OA
BRANCH  21  30
ATOM     22  O   UNL     1     110.126 128.948 136.153  0.00  0.00    +0.000 OA
ATOM     23  O   UNL     1     108.046 130.261 135.879  0.00  0.00    +0.000 OA
ATOM     24  O   UNL     1     109.443 131.014 136.328  0.00  0.00    +0.000 OA
ATOM     25  O   UNL     1     108.035 128.632 135.613  0.00  0.00    +0.000 OA
ATOM     26  C   UNL     1     108.739 129.823 135.970  0.00  0.00    +0.000 C 
ATOM     27  C   UNL     1     109.438 130.199 136.195  0.00  0.00    +0.000 C 
ATOM     28  C   UNL     1     108.734 129.009 135.838  0.00  0.00    +0.000 C 
ATOM     29  C   UNL     1     110.131 129.761 136.286  0.00  0.00    +0.000 C 
ATOM     30  C   UNL     1     109.428 128.571 135.929  0.00  0.00    +0.000 C 
ATOM     31  C   UNL     1     110.830 130.139 136.511  0.00  0.00    +0.000 C 
ENDBRANCH  21  30
ENDBRANCH   9  21
TORSDOF 3
ENDMDL
MODEL 7
REMARK VINA RESULT:      -9.3      3.707      5.871
REMARK  Name = 44257087
REMARK  3 active torsions:
REMARK  status: ('A' for Active; 'I' for Inactive)
REMARK    1  A    between atoms: O_2  and  C_15
REMARK    2  A    between atoms: O_2  and  C_22
REMARK    3  A    between atoms: C_17  and  C_24
REMARK                            x       y       z     vdW  Elec       q    Type
REMARK                         _______ _______ _______ _____ _____    ______ ____
ROOT
ATOM      1  O   UNL     1     113.212 128.819 139.451  0.00  0.00    +0.000 OA
ATOM      2  O   UNL     1     113.094 130.817 138.582  0.00  0.00    +0.000 OA
ATOM      3  O   UNL     1     111.575 128.723 137.072  0.00  0.00    +0.000 OA
ATOM      4  C   UNL     1     112.979 130.008 138.695  0.00  0.00    +0.000 C 
ATOM      5  C   UNL     1     113.327 129.628 139.339  0.00  0.00    +0.000 C 
ATOM      6  C   UNL     1     112.517 129.579 138.163  0.00  0.00    +0.000 C 
ATOM      7  C   UNL     1     112.403 128.769 138.276  0.00  0.00    +0.000 A 
ATOM      8  C   UNL     1     112.750 128.390 138.920  0.00  0.00    +0.000 A 
ATOM      9  C   UNL     1     112.158 127.095 138.497  0.00  0.00    +0.000 A 
ATOM     10  C   UNL     1     112.638 127.547 139.047  0.00  0.00    +0.000 A 
ATOM     11  C   UNL     1     111.919 128.334 137.714  0.00  0.00    +0.000 A 
ATOM     12  C   UNL     1     111.796 127.491 137.826  0.00  0.00    +0.000 A 
ENDROOT
BRANCH   5  15
ATOM     13  O   UNL     1     113.597 131.018 141.822  0.00  0.00    +0.000 OA
ATOM     14  O   UNL     1     115.175 131.345 141.467  0.00  0.00    +0.000 OA
ATOM     15  C   UNL     1     113.789 130.057 139.871  0.00  0.00    +0.000 A 
ATOM     16  C   UNL     1     113.461 130.323 140.581  0.00  0.00    +0.000 A 
ATOM     17  C   UNL     1     114.578 130.221 139.694  0.00  0.00    +0.000 A 
ATOM     18  C   UNL     1     113.924 130.752 141.113  0.00  0.00    +0.000 A 
ATOM     19  C   UNL     1     115.039 130.650 140.226  0.00  0.00    +0.000 A 
ATOM     20  C   UNL     1     114.713 130.916 140.935  0.00  0.00    +0.000 A 
ENDBRANCH   5  15
BRANCH   9  21
ATOM     21  O   UNL     1     112.046 126.285 138.612  0.00  0.00    +0.000 OA
BRANCH  21  30
ATOM     22  O   UNL     1     113.241 125.813 137.987  0.00  0.00    +0.000 OA
ATOM     23  O   UNL     1     111.964 123.971 136.938  0.00  0.00    +0.000 OA
ATOM     24  O   UNL     1     113.585 124.112 136.663  0.00  0.00    +0.000 OA
ATOM     25  O   UNL     1     111.195 125.057 137.913  0.00  0.00    +0.000 OA
ATOM     26  C   UNL     1     112.390 124.585 137.288  0.00  0.00    +0.000 C 
ATOM     27  C   UNL     1     113.200 124.656 137.151  0.00  0.00    +0.000 C 
ATOM     28  C   UNL     1     112.006 125.128 137.775  0.00  0.00    +0.000 C 
ATOM     29  C   UNL     1     113.626 125.270 137.501  0.00  0.00    +0.000 C 
ATOM     30  C   UNL     1     112.431 125.742 138.125  0.00  0.00    +0.000 C 
ATOM     31  C   UNL     1     114.436 125.341 137.363  0.00  0.00    +0.000 C 
ENDBRANCH  21  30
ENDBRANCH   9  21
TORSDOF 3
ENDMDL
MODEL 8
REMARK VINA RESULT:      -9.2      1.460      5.766
REMARK  Name = 44257087
REMARK  3 active torsions:
REMARK  status: ('A' for Active; 'I' for Inactive)
REMARK    1  A    between atoms: O_2  and  C_15
REMARK    2  A    between atoms: O_2  and  C_22
REMARK    3  A    between atoms: C_17  and  C_24
REMARK                            x       y       z     vdW  Elec       q    Type
REMARK                         _______ _______ _______ _____ _____    ______ ____
ROOT
ATOM      1  O   UNL     1     111.138 128.491 136.547  0.00  0.00    +0.000 OA
ATOM      2  O   UNL     1     111.143 129.918 134.896  0.00  0.00    +0.000 OA
ATOM      3  O   UNL     1     113.760 128.529 135.335  0.00  0.00    +0.000 OA
ATOM      4  C   UNL     1     111.400 129.351 135.437  0.00  0.00    +0.000 C 
ATOM      5  C   UNL     1     110.880 129.058 136.006  0.00  0.00    +0.000 C 
ATOM      6  C   UNL     1     112.177 129.076 135.408  0.00  0.00    +0.000 C 
ATOM      7  C   UNL     1     112.435 128.508 135.949  0.00  0.00    +0.000 A 
ATOM      8  C   UNL     1     111.914 128.216 136.518  0.00  0.00    +0.000 A 
ATOM      9  C   UNL     1     112.979 127.334 137.062  0.00  0.00    +0.000 A 
ATOM     10  C   UNL     1     112.171 127.625 137.087  0.00  0.00    +0.000 A 
ATOM     11  C   UNL     1     113.247 128.230 135.908  0.00  0.00    +0.000 A 
ATOM     12  C   UNL     1     113.521 127.639 136.468  0.00  0.00    +0.000 A 
ENDROOT
BRANCH   5  15
ATOM     13  O   UNL     1     108.080 128.605 135.654  0.00  0.00    +0.000 OA
ATOM     14  O   UNL     1     107.770 130.157 136.121  0.00  0.00    +0.000 OA
ATOM     15  C   UNL     1     110.102 129.333 136.035  0.00  0.00    +0.000 A 
ATOM     16  C   UNL     1     109.480 128.831 135.830  0.00  0.00    +0.000 A 
ATOM     17  C   UNL     1     109.947 130.109 136.269  0.00  0.00    +0.000 A 
ATOM     18  C   UNL     1     108.703 129.106 135.859  0.00  0.00    +0.000 A 
ATOM     19  C   UNL     1     109.170 130.383 136.297  0.00  0.00    +0.000 A 
ATOM     20  C   UNL     1     108.548 129.882 136.092  0.00  0.00    +0.000 A 
ENDBRANCH   5  15
BRANCH   9  21
ATOM     21  O   UNL     1     113.234 126.767 137.604  0.00  0.00    +0.000 OA
BRANCH  21  30
ATOM     22  O   UNL     1     112.596 125.634 137.011  0.00  0.00    +0.000 OA
ATOM     23  O   UNL     1     114.585 124.250 137.514  0.00  0.00    +0.000 OA
ATOM     24  O   UNL     1     113.284 123.579 136.753  0.00  0.00    +0.000 OA
ATOM     25  O   UNL     1     114.560 125.844 137.940  0.00  0.00    +0.000 OA
ATOM     26  C   UNL     1     113.922 124.711 137.346  0.00  0.00    +0.000 C 
ATOM     27  C   UNL     1     113.271 124.376 136.966  0.00  0.00    +0.000 C 
ATOM     28  C   UNL     1     113.909 125.508 137.559  0.00  0.00    +0.000 C 
ATOM     29  C   UNL     1     112.608 124.838 136.798  0.00  0.00    +0.000 C 
ATOM     30  C   UNL     1     113.246 125.969 137.391  0.00  0.00    +0.000 C 
ATOM     31  C   UNL     1     111.958 124.501 136.417  0.00  0.00    +0.000 C 
ENDBRANCH  21  30
ENDBRANCH   9  21
TORSDOF 3
ENDMDL
MODEL 9
REMARK VINA RESULT:      -9.2      1.832      5.637
REMARK  Name = 44257087
REMARK  3 active torsions:
REMARK  status: ('A' for Active; 'I' for Inactive)
REMARK    1  A    between atoms: O_2  and  C_15
REMARK    2  A    between atoms: O_2  and  C_22
REMARK    3  A    between atoms: C_17  and  C_24
REMARK                            x       y       z     vdW  Elec       q    Type
REMARK                         _______ _______ _______ _____ _____    ______ ____
ROOT
ATOM      1  O   UNL     1     110.063 130.137 136.616  0.00  0.00    +0.000 OA
ATOM      2  O   UNL     1     108.128 131.120 136.846  0.00  0.00    +0.000 OA
ATOM      3  O   UNL     1     107.986 128.379 135.646  0.00  0.00    +0.000 OA
ATOM      4  C   UNL     1     108.697 130.552 136.658  0.00  0.00    +0.000 C 
ATOM      5  C   UNL     1     109.495 130.704 136.804  0.00  0.00    +0.000 C 
ATOM      6  C   UNL     1     108.469 129.833 136.324  0.00  0.00    +0.000 C 
ATOM      7  C   UNL     1     109.038 129.266 136.136  0.00  0.00    +0.000 A 
ATOM      8  C   UNL     1     109.835 129.418 136.282  0.00  0.00    +0.000 A 
ATOM      9  C   UNL     1     110.205 128.085 135.743  0.00  0.00    +0.000 A 
ATOM     10  C   UNL     1     110.437 128.835 136.091  0.00  0.00    +0.000 A 
ATOM     11  C   UNL     1     108.786 128.521 135.789  0.00  0.00    +0.000 A 
ATOM     12  C   UNL     1     109.374 127.927 135.591  0.00  0.00    +0.000 A 
ENDROOT
BRANCH   5  15
ATOM     13  O   UNL     1     110.142 132.269 139.107  0.00  0.00    +0.000 OA
ATOM     14  O   UNL     1     110.409 133.580 138.141  0.00  0.00    +0.000 OA
ATOM     15  C   UNL     1     109.723 131.423 137.138  0.00  0.00    +0.000 A 
ATOM     16  C   UNL     1     109.819 131.486 137.956  0.00  0.00    +0.000 A 
ATOM     17  C   UNL     1     109.857 132.079 136.655  0.00  0.00    +0.000 A 
ATOM     18  C   UNL     1     110.047 132.205 138.290  0.00  0.00    +0.000 A 
ATOM     19  C   UNL     1     110.085 132.797 136.990  0.00  0.00    +0.000 A 
ATOM     20  C   UNL     1     110.180 132.861 137.807  0.00  0.00    +0.000 A 
ENDBRANCH   5  15
BRANCH   9  21
ATOM     21  O   UNL     1     110.776 127.519 135.556  0.00  0.00    +0.000 OA
BRANCH  21  30
ATOM     22  O   UNL     1     110.898 126.931 136.853  0.00  0.00    +0.000 OA
ATOM     23  O   UNL     1     111.075 124.689 135.819  0.00  0.00    +0.000 OA
ATOM     24  O   UNL     1     111.138 124.848 137.460  0.00  0.00    +0.000 OA
ATOM     25  O   UNL     1     110.895 126.025 134.867  0.00  0.00    +0.000 OA
ATOM     26  C   UNL     1     111.016 125.437 136.163  0.00  0.00    +0.000 C 
ATOM     27  C   UNL     1     111.048 125.517 136.984  0.00  0.00    +0.000 C 
ATOM     28  C   UNL     1     110.926 126.105 135.688  0.00  0.00    +0.000 C 
ATOM     29  C   UNL     1     110.989 126.264 137.328  0.00  0.00    +0.000 C 
ATOM     30  C   UNL     1     110.867 126.852 136.033  0.00  0.00    +0.000 C 
ATOM     31  C   UNL     1     111.020 126.343 138.149  0.00  0.00    +0.000 C 
ENDBRANCH  21  30
ENDBRANCH   9  21
TORSDOF 3
ENDMDL
MODEL 10
REMARK VINA RESULT:      -9.1      2.304      6.410
REMARK  Name = 44257087
REMARK  3 active torsions:
REMARK  status: ('A' for Active; 'I' for Inactive)
REMARK    1  A    between atoms: O_2  and  C_15
REMARK    2  A    between atoms: O_2  and  C_22
REMARK    3  A    between atoms: C_17  and  C_24
REMARK                            x       y       z     vdW  Elec       q    Type
REMARK                         _______ _______ _______ _____ _____    ______ ____
ROOT
ATOM      1  O   UNL     1     110.112 130.891 135.954  0.00  0.00    +0.000 OA
ATOM      2  O   UNL     1     109.599 132.831 136.812  0.00  0.00    +0.000 OA
ATOM      3  O   UNL     1     112.187 131.690 137.799  0.00  0.00    +0.000 OA
ATOM      4  C   UNL     1     110.009 132.134 136.651  0.00  0.00    +0.000 C 
ATOM      5  C   UNL     1     109.701 131.588 136.114  0.00  0.00    +0.000 C 
ATOM      6  C   UNL     1     110.728 131.982 137.027  0.00  0.00    +0.000 C 
ATOM      7  C   UNL     1     111.138 131.284 136.866  0.00  0.00    +0.000 A 
ATOM      8  C   UNL     1     110.830 130.739 136.330  0.00  0.00    +0.000 A 
ATOM      9  C   UNL     1     111.997 129.845 136.542  0.00  0.00    +0.000 A 
ATOM     10  C   UNL     1     111.248 130.009 136.154  0.00  0.00    +0.000 A 
ATOM     11  C   UNL     1     111.886 131.138 137.264  0.00  0.00    +0.000 A 
ATOM     12  C   UNL     1     112.318 130.413 137.101  0.00  0.00    +0.000 A 
ENDROOT
BRANCH   5  15
ATOM     13  O   UNL     1     106.853 131.365 136.038  0.00  0.00    +0.000 OA
ATOM     14  O   UNL     1     106.826 132.196 134.612  0.00  0.00    +0.000 OA
ATOM     15  C   UNL     1     108.982 131.740 135.739  0.00  0.00    +0.000 A 
ATOM     16  C   UNL     1     108.277 131.476 136.077  0.00  0.00    +0.000 A 
ATOM     17  C   UNL     1     108.969 132.156 135.026  0.00  0.00    +0.000 A 
ATOM     18  C   UNL     1     107.558 131.628 135.701  0.00  0.00    +0.000 A 
ATOM     19  C   UNL     1     108.250 132.307 134.651  0.00  0.00    +0.000 A 
ATOM     20  C   UNL     1     107.545 132.044 134.988  0.00  0.00    +0.000 A 
ENDBRANCH   5  15
BRANCH   9  21
ATOM     21  O   UNL     1     112.405 129.146 136.380  0.00  0.00    +0.000 OA
BRANCH  21  30
ATOM     22  O   UNL     1     111.982 128.421 137.536  0.00  0.00    +0.000 OA
ATOM     23  O   UNL     1     111.834 126.352 136.186  0.00  0.00    +0.000 OA
ATOM     24  O   UNL     1     111.460 126.317 137.793  0.00  0.00    +0.000 OA
ATOM     25  O   UNL     1     112.306 127.767 135.479  0.00  0.00    +0.000 OA
ATOM     26  C   UNL     1     111.883 127.042 136.636  0.00  0.00    +0.000 C 
ATOM     27  C   UNL     1     111.696 127.025 137.439  0.00  0.00    +0.000 C 
ATOM     28  C   UNL     1     112.119 127.749 136.283  0.00  0.00    +0.000 C 
ATOM     29  C   UNL     1     111.746 127.715 137.889  0.00  0.00    +0.000 C 
ATOM     30  C   UNL     1     112.168 128.439 136.734  0.00  0.00    +0.000 C 
ATOM     31  C   UNL     1     111.558 127.696 138.693  0.00  0.00    +0.000 C 
ENDBRANCH  21  30
ENDBRANCH   9  21
TORSDOF 3
ENDMDL
