MODEL 1
REMARK VINA RESULT:      -9.9      0.000      0.000
REMARK  Name = 42607569
REMARK  9 active torsions:
REMARK  status: ('A' for Active; 'I' for Inactive)
REMARK    1  A    between atoms: O_3  and  C_22
REMARK    2  A    between atoms: O_3  and  C_26
REMARK    3  A    between atoms: O_8  and  C_27
REMARK    4  A    between atoms: O_8  and  C_29
REMARK    5  A    between atoms: C_17  and  C_26
REMARK    6  A    between atoms: C_25  and  C_28
REMARK    7  A    between atoms: C_34  and  C_35
REMARK    8  A    between atoms: C_35  and  C_36
REMARK    9  A    between atoms: C_37  and  C_38
REMARK                            x       y       z     vdW  Elec       q    Type
REMARK                         _______ _______ _______ _____ _____    ______ ____
ROOT
ATOM      1  O   UNL     1     110.051 126.182 137.096  0.00  0.00    +0.000 OA
ATOM      2  O   UNL     1     111.693 124.989 137.898  0.00  0.00    +0.000 OA
ATOM      3  O   UNL     1     111.806 124.633 136.291  0.00  0.00    +0.000 OA
ATOM      4  O   UNL     1     110.749 125.309 135.220  0.00  0.00    +0.000 OA
ATOM      5  C   UNL     1     110.580 125.844 137.631  0.00  0.00    +0.000 C 
ATOM      6  C   UNL     1     111.164 125.327 137.363  0.00  0.00    +0.000 C 
ATOM      7  C   UNL     1     111.221 125.149 136.560  0.00  0.00    +0.000 C 
ATOM      8  C   UNL     1     110.692 125.488 136.024  0.00  0.00    +0.000 C 
ATOM      9  C   UNL     1     110.107 126.004 136.292  0.00  0.00    +0.000 C 
ENDROOT
BRANCH   9  10
ATOM     10  O   UNL     1     109.579 126.342 135.756  0.00  0.00    +0.000 OA
BRANCH  10  13
ATOM     11  O   UNL     1     108.111 127.080 135.915  0.00  0.00    +0.000 OA
ATOM     12  O   UNL     1     107.996 128.721 135.798  0.00  0.00    +0.000 OA
ATOM     13  C   UNL     1     109.520 127.163 135.698  0.00  0.00    +0.000 A 
ATOM     14  C   UNL     1     108.787 127.532 135.777  0.00  0.00    +0.000 A 
ATOM     15  C   UNL     1     110.197 127.615 135.560  0.00  0.00    +0.000 A 
ATOM     16  C   UNL     1     108.729 128.353 135.719  0.00  0.00    +0.000 A 
ATOM     17  C   UNL     1     110.140 128.436 135.501  0.00  0.00    +0.000 A 
ATOM     18  C   UNL     1     109.405 128.805 135.581  0.00  0.00    +0.000 A 
BRANCH  18  20
ATOM     19  O   UNL     1     109.127 129.973 134.807  0.00  0.00    +0.000 OA
ATOM     20  C   UNL     1     109.348 129.626 135.522  0.00  0.00    +0.000 C 
BRANCH  20  21
ATOM     21  C   UNL     1     109.512 130.099 136.177  0.00  0.00    +0.000 C 
ATOM     22  C   UNL     1     109.558 130.918 136.093  0.00  0.00    +0.000 C 
BRANCH  22  25
ATOM     23  O   UNL     1     108.654 132.413 138.354  0.00  0.00    +0.000 OA
ATOM     24  O   UNL     1     110.213 132.811 138.716  0.00  0.00    +0.000 OA
ATOM     25  C   UNL     1     109.722 131.391 136.749  0.00  0.00    +0.000 A 
ATOM     26  C   UNL     1     109.106 131.666 137.224  0.00  0.00    +0.000 A 
ATOM     27  C   UNL     1     110.502 131.591 136.930  0.00  0.00    +0.000 A 
ATOM     28  C   UNL     1     109.270 132.139 137.880  0.00  0.00    +0.000 A 
ATOM     29  C   UNL     1     110.666 132.064 137.585  0.00  0.00    +0.000 A 
ATOM     30  C   UNL     1     110.049 132.338 138.060  0.00  0.00    +0.000 A 
ENDBRANCH  22  25
ENDBRANCH  20  21
ENDBRANCH  18  20
ENDBRANCH  10  13
ENDBRANCH   9  10
BRANCH   5  31
ATOM     31  C   UNL     1     110.523 126.022 138.434  0.00  0.00    +0.000 C 
BRANCH  31  32
ATOM     32  O   UNL     1     109.790 125.999 138.811  0.00  0.00    +0.000 OA
BRANCH  32  39
ATOM     33  O   UNL     1     110.413 126.352 140.048  0.00  0.00    +0.000 OA
ATOM     34  O   UNL     1     108.313 126.031 139.546  0.00  0.00    +0.000 OA
ATOM     35  O   UNL     1     108.198 126.399 141.151  0.00  0.00    +0.000 OA
ATOM     36  O   UNL     1     109.559 126.735 142.020  0.00  0.00    +0.000 OA
ATOM     37  C   UNL     1     108.993 126.199 139.982  0.00  0.00    +0.000 C 
ATOM     38  C   UNL     1     108.936 126.383 140.783  0.00  0.00    +0.000 C 
ATOM     39  C   UNL     1     109.732 126.183 139.614  0.00  0.00    +0.000 C 
ATOM     40  C   UNL     1     109.616 126.551 141.217  0.00  0.00    +0.000 C 
ATOM     41  C   UNL     1     110.354 126.535 140.850  0.00  0.00    +0.000 C 
BRANCH  41  43
ATOM     42  O   UNL     1     111.669 126.175 141.281  0.00  0.00    +0.000 OA
ATOM     43  C   UNL     1     111.036 126.704 141.285  0.00  0.00    +0.000 C 
ENDBRANCH  41  43
ENDBRANCH  32  39
ENDBRANCH  31  32
ENDBRANCH   5  31
TORSDOF 9
ENDMDL
MODEL 2
REMARK VINA RESULT:      -9.9      2.329      5.721
REMARK  Name = 42607569
REMARK  9 active torsions:
REMARK  status: ('A' for Active; 'I' for Inactive)
REMARK    1  A    between atoms: O_3  and  C_22
REMARK    2  A    between atoms: O_3  and  C_26
REMARK    3  A    between atoms: O_8  and  C_27
REMARK    4  A    between atoms: O_8  and  C_29
REMARK    5  A    between atoms: C_17  and  C_26
REMARK    6  A    between atoms: C_25  and  C_28
REMARK    7  A    between atoms: C_34  and  C_35
REMARK    8  A    between atoms: C_35  and  C_36
REMARK    9  A    between atoms: C_37  and  C_38
REMARK                            x       y       z     vdW  Elec       q    Type
REMARK                         _______ _______ _______ _____ _____    ______ ____
ROOT
ATOM      1  O   UNL     1     109.855 129.165 136.611  0.00  0.00    +0.000 OA
ATOM      2  O   UNL     1     109.878 131.190 135.798  0.00  0.00    +0.000 OA
ATOM      3  O   UNL     1     108.389 130.675 135.307  0.00  0.00    +0.000 OA
ATOM      4  O   UNL     1     107.877 129.152 135.685  0.00  0.00    +0.000 OA
ATOM      5  C   UNL     1     110.111 129.926 136.422  0.00  0.00    +0.000 C 
ATOM      6  C   UNL     1     109.622 130.429 135.987  0.00  0.00    +0.000 C 
ATOM      7  C   UNL     1     108.878 130.172 135.742  0.00  0.00    +0.000 C 
ATOM      8  C   UNL     1     108.622 129.410 135.931  0.00  0.00    +0.000 C 
ATOM      9  C   UNL     1     109.110 128.907 136.365  0.00  0.00    +0.000 C 
ENDROOT
BRANCH   9  10
ATOM     10  O   UNL     1     108.854 128.145 136.554  0.00  0.00    +0.000 OA
BRANCH  10  13
ATOM     11  O   UNL     1     109.070 127.039 137.759  0.00  0.00    +0.000 OA
ATOM     12  O   UNL     1     110.075 125.752 137.527  0.00  0.00    +0.000 OA
ATOM     13  C   UNL     1     109.357 127.501 136.439  0.00  0.00    +0.000 A 
ATOM     14  C   UNL     1     109.465 126.949 137.041  0.00  0.00    +0.000 A 
ATOM     15  C   UNL     1     109.751 127.410 135.720  0.00  0.00    +0.000 A 
ATOM     16  C   UNL     1     109.967 126.304 136.925  0.00  0.00    +0.000 A 
ATOM     17  C   UNL     1     110.254 126.767 135.603  0.00  0.00    +0.000 A 
ATOM     18  C   UNL     1     110.362 126.214 136.206  0.00  0.00    +0.000 A 
BRANCH  18  20
ATOM     19  O   UNL     1     110.606 124.920 135.652  0.00  0.00    +0.000 OA
ATOM     20  C   UNL     1     110.864 125.570 136.090  0.00  0.00    +0.000 C 
BRANCH  20  21
ATOM     21  C   UNL     1     111.625 125.576 136.410  0.00  0.00    +0.000 C 
ATOM     22  C   UNL     1     112.201 125.067 136.113  0.00  0.00    +0.000 C 
BRANCH  22  25
ATOM     23  O   UNL     1     114.271 123.775 137.600  0.00  0.00    +0.000 OA
ATOM     24  O   UNL     1     115.242 125.092 137.394  0.00  0.00    +0.000 OA
ATOM     25  C   UNL     1     112.961 125.074 136.433  0.00  0.00    +0.000 A 
ATOM     26  C   UNL     1     113.236 124.421 136.856  0.00  0.00    +0.000 A 
ATOM     27  C   UNL     1     113.448 125.733 136.330  0.00  0.00    +0.000 A 
ATOM     28  C   UNL     1     113.997 124.427 137.177  0.00  0.00    +0.000 A 
ATOM     29  C   UNL     1     114.208 125.739 136.650  0.00  0.00    +0.000 A 
ATOM     30  C   UNL     1     114.482 125.086 137.074  0.00  0.00    +0.000 A 
ENDBRANCH  22  25
ENDBRANCH  20  21
ENDBRANCH  18  20
ENDBRANCH  10  13
ENDBRANCH   9  10
BRANCH   5  31
ATOM     31  C   UNL     1     110.854 130.183 136.667  0.00  0.00    +0.000 C 
BRANCH  31  32
ATOM     32  O   UNL     1     111.141 129.968 137.410  0.00  0.00    +0.000 OA
BRANCH  32  39
ATOM     33  O   UNL     1     112.524 129.996 137.051  0.00  0.00    +0.000 OA
ATOM     34  O   UNL     1     111.523 130.510 138.921  0.00  0.00    +0.000 OA
ATOM     35  O   UNL     1     113.096 130.810 139.317  0.00  0.00    +0.000 OA
ATOM     36  O   UNL     1     114.288 130.566 138.203  0.00  0.00    +0.000 OA
ATOM     37  C   UNL     1     112.119 130.389 138.364  0.00  0.00    +0.000 C 
ATOM     38  C   UNL     1     112.905 130.538 138.562  0.00  0.00    +0.000 C 
ATOM     39  C   UNL     1     111.928 130.118 137.609  0.00  0.00    +0.000 C 
ATOM     40  C   UNL     1     113.501 130.417 138.005  0.00  0.00    +0.000 C 
ATOM     41  C   UNL     1     113.310 130.145 137.250  0.00  0.00    +0.000 C 
BRANCH  41  43
ATOM     42  O   UNL     1     113.879 129.365 136.195  0.00  0.00    +0.000 OA
ATOM     43  C   UNL     1     113.907 130.023 136.692  0.00  0.00    +0.000 C 
ENDBRANCH  41  43
ENDBRANCH  32  39
ENDBRANCH  31  32
ENDBRANCH   5  31
TORSDOF 9
ENDMDL
MODEL 3
REMARK VINA RESULT:      -9.9      3.335      5.666
REMARK  Name = 42607569
REMARK  9 active torsions:
REMARK  status: ('A' for Active; 'I' for Inactive)
REMARK    1  A    between atoms: O_3  and  C_22
REMARK    2  A    between atoms: O_3  and  C_26
REMARK    3  A    between atoms: O_8  and  C_27
REMARK    4  A    between atoms: O_8  and  C_29
REMARK    5  A    between atoms: C_17  and  C_26
REMARK    6  A    between atoms: C_25  and  C_28
REMARK    7  A    between atoms: C_34  and  C_35
REMARK    8  A    between atoms: C_35  and  C_36
REMARK    9  A    between atoms: C_37  and  C_38
REMARK                            x       y       z     vdW  Elec       q    Type
REMARK                         _______ _______ _______ _____ _____    ______ ____
ROOT
ATOM      1  O   UNL     1     112.400 126.790 136.654  0.00  0.00    +0.000 OA
ATOM      2  O   UNL     1     111.129 127.354 134.972  0.00  0.00    +0.000 OA
ATOM      3  O   UNL     1     110.574 125.832 135.286  0.00  0.00    +0.000 OA
ATOM      4  O   UNL     1     111.236 124.948 136.512  0.00  0.00    +0.000 OA
ATOM      5  C   UNL     1     112.069 127.232 136.041  0.00  0.00    +0.000 C 
ATOM      6  C   UNL     1     111.460 126.912 135.585  0.00  0.00    +0.000 C 
ATOM      7  C   UNL     1     111.183 126.152 135.742  0.00  0.00    +0.000 C 
ATOM      8  C   UNL     1     111.514 125.710 136.355  0.00  0.00    +0.000 C 
ATOM      9  C   UNL     1     112.122 126.029 136.811  0.00  0.00    +0.000 C 
ENDROOT
BRANCH   9  10
ATOM     10  O   UNL     1     112.454 125.587 137.424  0.00  0.00    +0.000 OA
BRANCH  10  13
ATOM     11  O   UNL     1     114.017 125.460 137.936  0.00  0.00    +0.000 OA
ATOM     12  O   UNL     1     114.494 126.210 139.327  0.00  0.00    +0.000 OA
ATOM     13  C   UNL     1     112.693 125.962 138.120  0.00  0.00    +0.000 A 
ATOM     14  C   UNL     1     113.474 125.899 138.376  0.00  0.00    +0.000 A 
ATOM     15  C   UNL     1     112.149 126.400 138.559  0.00  0.00    +0.000 A 
ATOM     16  C   UNL     1     113.713 126.273 139.071  0.00  0.00    +0.000 A 
ATOM     17  C   UNL     1     112.387 126.775 139.254  0.00  0.00    +0.000 A 
ATOM     18  C   UNL     1     113.169 126.712 139.510  0.00  0.00    +0.000 A 
BRANCH  18  20
ATOM     19  O   UNL     1     113.434 126.663 140.913  0.00  0.00    +0.000 OA
ATOM     20  C   UNL     1     113.407 127.087 140.206  0.00  0.00    +0.000 C 
BRANCH  20  21
ATOM     21  C   UNL     1     113.616 127.884 140.194  0.00  0.00    +0.000 C 
ATOM     22  C   UNL     1     113.753 128.285 140.901  0.00  0.00    +0.000 C 
BRANCH  22  25
ATOM     23  O   UNL     1     113.148 131.013 141.500  0.00  0.00    +0.000 OA
ATOM     24  O   UNL     1     114.592 131.476 140.853  0.00  0.00    +0.000 OA
ATOM     25  C   UNL     1     113.963 129.083 140.889  0.00  0.00    +0.000 A 
ATOM     26  C   UNL     1     113.451 129.649 141.201  0.00  0.00    +0.000 A 
ATOM     27  C   UNL     1     114.686 129.315 140.565  0.00  0.00    +0.000 A 
ATOM     28  C   UNL     1     113.660 130.447 141.189  0.00  0.00    +0.000 A 
ATOM     29  C   UNL     1     114.896 130.113 140.553  0.00  0.00    +0.000 A 
ATOM     30  C   UNL     1     114.383 130.678 140.865  0.00  0.00    +0.000 A 
ENDBRANCH  22  25
ENDBRANCH  20  21
ENDBRANCH  18  20
ENDBRANCH  10  13
ENDBRANCH   9  10
BRANCH   5  31
ATOM     31  C   UNL     1     112.346 127.992 135.885  0.00  0.00    +0.000 C 
BRANCH  31  32
ATOM     32  O   UNL     1     113.151 128.159 135.949  0.00  0.00    +0.000 OA
BRANCH  32  39
ATOM     33  O   UNL     1     113.015 129.361 136.710  0.00  0.00    +0.000 OA
ATOM     34  O   UNL     1     114.424 128.820 135.133  0.00  0.00    +0.000 OA
ATOM     35  O   UNL     1     114.924 130.352 135.485  0.00  0.00    +0.000 OA
ATOM     36  O   UNL     1     114.152 131.224 136.655  0.00  0.00    +0.000 OA
ATOM     37  C   UNL     1     114.038 129.256 135.717  0.00  0.00    +0.000 C 
ATOM     38  C   UNL     1     114.288 130.022 135.894  0.00  0.00    +0.000 C 
ATOM     39  C   UNL     1     113.402 128.926 136.126  0.00  0.00    +0.000 C 
ATOM     40  C   UNL     1     113.902 130.457 136.478  0.00  0.00    +0.000 C 
ATOM     41  C   UNL     1     113.266 130.127 136.886  0.00  0.00    +0.000 C 
BRANCH  41  43
ATOM     42  O   UNL     1     112.291 130.209 137.928  0.00  0.00    +0.000 OA
ATOM     43  C   UNL     1     112.879 130.563 137.471  0.00  0.00    +0.000 C 
ENDBRANCH  41  43
ENDBRANCH  32  39
ENDBRANCH  31  32
ENDBRANCH   5  31
TORSDOF 9
ENDMDL
MODEL 4
REMARK VINA RESULT:      -9.8      1.879      2.519
REMARK  Name = 42607569
REMARK  9 active torsions:
REMARK  status: ('A' for Active; 'I' for Inactive)
REMARK    1  A    between atoms: O_3  and  C_22
REMARK    2  A    between atoms: O_3  and  C_26
REMARK    3  A    between atoms: O_8  and  C_27
REMARK    4  A    between atoms: O_8  and  C_29
REMARK    5  A    between atoms: C_17  and  C_26
REMARK    6  A    between atoms: C_25  and  C_28
REMARK    7  A    between atoms: C_34  and  C_35
REMARK    8  A    between atoms: C_35  and  C_36
REMARK    9  A    between atoms: C_37  and  C_38
REMARK                            x       y       z     vdW  Elec       q    Type
REMARK                         _______ _______ _______ _____ _____    ______ ____
ROOT
ATOM      1  O   UNL     1     110.854 127.315 136.327  0.00  0.00    +0.000 OA
ATOM      2  O   UNL     1     112.510 126.057 136.989  0.00  0.00    +0.000 OA
ATOM      3  O   UNL     1     111.845 125.105 135.816  0.00  0.00    +0.000 OA
ATOM      4  O   UNL     1     110.520 125.627 134.983  0.00  0.00    +0.000 OA
ATOM      5  C   UNL     1     111.517 127.054 136.743  0.00  0.00    +0.000 C 
ATOM      6  C   UNL     1     111.847 126.318 136.572  0.00  0.00    +0.000 C 
ATOM      7  C   UNL     1     111.515 125.842 135.987  0.00  0.00    +0.000 C 
ATOM      8  C   UNL     1     110.852 126.103 135.570  0.00  0.00    +0.000 C 
ATOM      9  C   UNL     1     110.521 126.839 135.740  0.00  0.00    +0.000 C 
ENDROOT
BRANCH   9  10
ATOM     10  O   UNL     1     109.859 127.100 135.324  0.00  0.00    +0.000 OA
BRANCH  10  13
ATOM     11  O   UNL     1     108.427 127.567 135.997  0.00  0.00    +0.000 OA
ATOM     12  O   UNL     1     108.011 129.164 136.027  0.00  0.00    +0.000 OA
ATOM     13  C   UNL     1     109.650 127.898 135.339  0.00  0.00    +0.000 A 
ATOM     14  C   UNL     1     108.935 128.132 135.675  0.00  0.00    +0.000 A 
ATOM     15  C   UNL     1     110.158 128.463 135.017  0.00  0.00    +0.000 A 
ATOM     16  C   UNL     1     108.726 128.930 135.691  0.00  0.00    +0.000 A 
ATOM     17  C   UNL     1     109.951 129.261 135.032  0.00  0.00    +0.000 A 
ATOM     18  C   UNL     1     109.235 129.495 135.369  0.00  0.00    +0.000 A 
BRANCH  18  20
ATOM     19  O   UNL     1     108.511 130.594 134.815  0.00  0.00    +0.000 OA
ATOM     20  C   UNL     1     109.027 130.293 135.384  0.00  0.00    +0.000 C 
BRANCH  20  21
ATOM     21  C   UNL     1     109.336 130.789 135.966  0.00  0.00    +0.000 C 
ATOM     22  C   UNL     1     109.233 131.605 135.909  0.00  0.00    +0.000 C 
BRANCH  22  25
ATOM     23  O   UNL     1     109.398 132.404 138.647  0.00  0.00    +0.000 OA
ATOM     24  O   UNL     1     110.468 133.590 138.238  0.00  0.00    +0.000 OA
ATOM     25  C   UNL     1     109.542 132.101 136.491  0.00  0.00    +0.000 A 
ATOM     26  C   UNL     1     109.316 132.005 137.278  0.00  0.00    +0.000 A 
ATOM     27  C   UNL     1     110.078 132.695 136.286  0.00  0.00    +0.000 A 
ATOM     28  C   UNL     1     109.624 132.501 137.861  0.00  0.00    +0.000 A 
ATOM     29  C   UNL     1     110.387 133.191 136.868  0.00  0.00    +0.000 A 
ATOM     30  C   UNL     1     110.159 133.094 137.656  0.00  0.00    +0.000 A 
ENDBRANCH  22  25
ENDBRANCH  20  21
ENDBRANCH  18  20
ENDBRANCH  10  13
ENDBRANCH   9  10
BRANCH   5  31
ATOM     31  C   UNL     1     111.849 127.530 137.329  0.00  0.00    +0.000 C 
BRANCH  31  32
ATOM     32  O   UNL     1     111.365 127.881 137.898  0.00  0.00    +0.000 OA
BRANCH  32  39
ATOM     33  O   UNL     1     112.064 129.126 137.843  0.00  0.00    +0.000 OA
ATOM     34  O   UNL     1     110.888 128.218 139.441  0.00  0.00    +0.000 OA
ATOM     35  O   UNL     1     111.349 129.631 140.157  0.00  0.00    +0.000 OA
ATOM     36  O   UNL     1     112.286 130.708 139.330  0.00  0.00    +0.000 OA
ATOM     37  C   UNL     1     111.357 128.756 139.028  0.00  0.00    +0.000 C 
ATOM     38  C   UNL     1     111.587 129.463 139.386  0.00  0.00    +0.000 C 
ATOM     39  C   UNL     1     111.596 128.588 138.257  0.00  0.00    +0.000 C 
ATOM     40  C   UNL     1     112.056 130.001 138.973  0.00  0.00    +0.000 C 
ATOM     41  C   UNL     1     112.294 129.832 138.201  0.00  0.00    +0.000 C 
BRANCH  41  43
ATOM     42  O   UNL     1     112.663 130.466 136.974  0.00  0.00    +0.000 OA
ATOM     43  C   UNL     1     112.763 130.371 137.787  0.00  0.00    +0.000 C 
ENDBRANCH  41  43
ENDBRANCH  32  39
ENDBRANCH  31  32
ENDBRANCH   5  31
TORSDOF 9
ENDMDL
MODEL 5
REMARK VINA RESULT:      -9.6      2.072      4.340
REMARK  Name = 42607569
REMARK  9 active torsions:
REMARK  status: ('A' for Active; 'I' for Inactive)
REMARK    1  A    between atoms: O_3  and  C_22
REMARK    2  A    between atoms: O_3  and  C_26
REMARK    3  A    between atoms: O_8  and  C_27
REMARK    4  A    between atoms: O_8  and  C_29
REMARK    5  A    between atoms: C_17  and  C_26
REMARK    6  A    between atoms: C_25  and  C_28
REMARK    7  A    between atoms: C_34  and  C_35
REMARK    8  A    between atoms: C_35  and  C_36
REMARK    9  A    between atoms: C_37  and  C_38
REMARK                            x       y       z     vdW  Elec       q    Type
REMARK                         _______ _______ _______ _____ _____    ______ ____
ROOT
ATOM      1  O   UNL     1     111.235 125.656 137.248  0.00  0.00    +0.000 OA
ATOM      2  O   UNL     1     110.869 124.621 135.362  0.00  0.00    +0.000 OA
ATOM      3  O   UNL     1     111.737 123.481 136.181  0.00  0.00    +0.000 OA
ATOM      4  O   UNL     1     112.270 123.791 137.711  0.00  0.00    +0.000 OA
ATOM      5  C   UNL     1     110.968 125.501 136.483  0.00  0.00    +0.000 C 
ATOM      6  C   UNL     1     111.136 124.776 136.128  0.00  0.00    +0.000 C 
ATOM      7  C   UNL     1     111.569 124.206 136.536  0.00  0.00    +0.000 C 
ATOM      8  C   UNL     1     111.836 124.361 137.301  0.00  0.00    +0.000 C 
ATOM      9  C   UNL     1     111.669 125.086 137.658  0.00  0.00    +0.000 C 
ENDROOT
BRANCH   9  10
ATOM     10  O   UNL     1     111.935 125.241 138.423  0.00  0.00    +0.000 OA
BRANCH  10  13
ATOM     11  O   UNL     1     111.305 126.112 139.675  0.00  0.00    +0.000 OA
ATOM     12  O   UNL     1     111.928 127.594 140.045  0.00  0.00    +0.000 OA
ATOM     13  C   UNL     1     112.247 125.982 138.609  0.00  0.00    +0.000 A 
ATOM     14  C   UNL     1     111.932 126.418 139.234  0.00  0.00    +0.000 A 
ATOM     15  C   UNL     1     112.873 126.288 138.168  0.00  0.00    +0.000 A 
ATOM     16  C   UNL     1     112.243 127.159 139.420  0.00  0.00    +0.000 A 
ATOM     17  C   UNL     1     113.185 127.029 138.352  0.00  0.00    +0.000 A 
ATOM     18  C   UNL     1     112.870 127.465 138.979  0.00  0.00    +0.000 A 
BRANCH  18  20
ATOM     19  O   UNL     1     113.547 128.328 139.892  0.00  0.00    +0.000 OA
ATOM     20  C   UNL     1     113.182 128.206 139.163  0.00  0.00    +0.000 C 
BRANCH  20  21
ATOM     21  C   UNL     1     113.129 128.823 138.619  0.00  0.00    +0.000 C 
ATOM     22  C   UNL     1     113.426 129.568 138.810  0.00  0.00    +0.000 C 
BRANCH  22  25
ATOM     23  O   UNL     1     111.934 131.691 137.615  0.00  0.00    +0.000 OA
ATOM     24  O   UNL     1     113.213 132.039 136.633  0.00  0.00    +0.000 OA
ATOM     25  C   UNL     1     113.373 130.186 138.266  0.00  0.00    +0.000 A 
ATOM     26  C   UNL     1     112.680 130.630 138.212  0.00  0.00    +0.000 A 
ATOM     27  C   UNL     1     114.014 130.360 137.775  0.00  0.00    +0.000 A 
ATOM     28  C   UNL     1     112.627 131.248 137.668  0.00  0.00    +0.000 A 
ATOM     29  C   UNL     1     113.960 130.977 137.231  0.00  0.00    +0.000 A 
ATOM     30  C   UNL     1     113.267 131.421 137.178  0.00  0.00    +0.000 A 
ENDBRANCH  22  25
ENDBRANCH  20  21
ENDBRANCH  18  20
ENDBRANCH  10  13
ENDBRANCH   9  10
BRANCH   5  31
ATOM     31  C   UNL     1     110.534 126.071 136.075  0.00  0.00    +0.000 C 
BRANCH  31  32
ATOM     32  O   UNL     1     110.029 126.578 136.485  0.00  0.00    +0.000 OA
BRANCH  32  39
ATOM     33  O   UNL     1     110.415 127.812 135.878  0.00  0.00    +0.000 OA
ATOM     34  O   UNL     1     108.446 127.034 136.407  0.00  0.00    +0.000 OA
ATOM     35  O   UNL     1     108.040 128.497 135.760  0.00  0.00    +0.000 OA
ATOM     36  O   UNL     1     109.217 129.503 135.192  0.00  0.00    +0.000 OA
ATOM     37  C   UNL     1     109.034 127.538 136.123  0.00  0.00    +0.000 C 
ATOM     38  C   UNL     1     108.831 128.269 135.799  0.00  0.00    +0.000 C 
ATOM     39  C   UNL     1     109.826 127.310 136.162  0.00  0.00    +0.000 C 
ATOM     40  C   UNL     1     109.420 128.772 135.515  0.00  0.00    +0.000 C 
ATOM     41  C   UNL     1     110.211 128.543 135.554  0.00  0.00    +0.000 C 
BRANCH  41  43
ATOM     42  O   UNL     1     111.596 128.855 135.380  0.00  0.00    +0.000 OA
ATOM     43  C   UNL     1     110.801 129.047 135.270  0.00  0.00    +0.000 C 
ENDBRANCH  41  43
ENDBRANCH  32  39
ENDBRANCH  31  32
ENDBRANCH   5  31
TORSDOF 9
ENDMDL
MODEL 6
REMARK VINA RESULT:      -9.6      2.840      4.848
REMARK  Name = 42607569
REMARK  9 active torsions:
REMARK  status: ('A' for Active; 'I' for Inactive)
REMARK    1  A    between atoms: O_3  and  C_22
REMARK    2  A    between atoms: O_3  and  C_26
REMARK    3  A    between atoms: O_8  and  C_27
REMARK    4  A    between atoms: O_8  and  C_29
REMARK    5  A    between atoms: C_17  and  C_26
REMARK    6  A    between atoms: C_25  and  C_28
REMARK    7  A    between atoms: C_34  and  C_35
REMARK    8  A    between atoms: C_35  and  C_36
REMARK    9  A    between atoms: C_37  and  C_38
REMARK                            x       y       z     vdW  Elec       q    Type
REMARK                         _______ _______ _______ _____ _____    ______ ____
ROOT
ATOM      1  O   UNL     1     113.359 129.272 136.595  0.00  0.00    +0.000 OA
ATOM      2  O   UNL     1     114.384 128.535 134.815  0.00  0.00    +0.000 OA
ATOM      3  O   UNL     1     115.322 129.838 135.196  0.00  0.00    +0.000 OA
ATOM      4  O   UNL     1     114.951 130.765 136.510  0.00  0.00    +0.000 OA
ATOM      5  C   UNL     1     113.545 128.809 135.938  0.00  0.00    +0.000 C 
ATOM      6  C   UNL     1     114.199 128.998 135.472  0.00  0.00    +0.000 C 
ATOM      7  C   UNL     1     114.667 129.649 135.662  0.00  0.00    +0.000 C 
ATOM      8  C   UNL     1     114.482 130.112 136.319  0.00  0.00    +0.000 C 
ATOM      9  C   UNL     1     113.828 129.925 136.786  0.00  0.00    +0.000 C 
ENDROOT
BRANCH   9  10
ATOM     10  O   UNL     1     113.643 130.388 137.443  0.00  0.00    +0.000 OA
BRANCH  10  13
ATOM     11  O   UNL     1     112.711 130.228 138.795  0.00  0.00    +0.000 OA
ATOM     12  O   UNL     1     111.247 130.984 138.882  0.00  0.00    +0.000 OA
ATOM     13  C   UNL     1     112.911 130.766 137.487  0.00  0.00    +0.000 A 
ATOM     14  C   UNL     1     112.445 130.686 138.163  0.00  0.00    +0.000 A 
ATOM     15  C   UNL     1     112.645 131.224 136.855  0.00  0.00    +0.000 A 
ATOM     16  C   UNL     1     111.713 131.064 138.207  0.00  0.00    +0.000 A 
ATOM     17  C   UNL     1     111.913 131.602 136.898  0.00  0.00    +0.000 A 
ATOM     18  C   UNL     1     111.447 131.522 137.574  0.00  0.00    +0.000 A 
BRANCH  18  20
ATOM     19  O   UNL     1     110.542 132.389 138.259  0.00  0.00    +0.000 OA
ATOM     20  C   UNL     1     110.715 131.900 137.617  0.00  0.00    +0.000 C 
BRANCH  20  21
ATOM     21  C   UNL     1     110.158 131.791 137.019  0.00  0.00    +0.000 C 
ATOM     22  C   UNL     1     109.470 132.246 137.008  0.00  0.00    +0.000 C 
BRANCH  22  25
ATOM     23  O   UNL     1     106.943 131.237 136.135  0.00  0.00    +0.000 OA
ATOM     24  O   UNL     1     107.240 131.807 134.616  0.00  0.00    +0.000 OA
ATOM     25  C   UNL     1     108.913 132.136 136.410  0.00  0.00    +0.000 A 
ATOM     26  C   UNL     1     108.206 131.741 136.571  0.00  0.00    +0.000 A 
ATOM     27  C   UNL     1     109.061 132.421 135.650  0.00  0.00    +0.000 A 
ATOM     28  C   UNL     1     107.649 131.632 135.973  0.00  0.00    +0.000 A 
ATOM     29  C   UNL     1     108.504 132.311 135.052  0.00  0.00    +0.000 A 
ATOM     30  C   UNL     1     107.798 131.917 135.214  0.00  0.00    +0.000 A 
ENDBRANCH  22  25
ENDBRANCH  20  21
ENDBRANCH  18  20
ENDBRANCH  10  13
ENDBRANCH   9  10
BRANCH   5  31
ATOM     31  C   UNL     1     113.077 128.158 135.747  0.00  0.00    +0.000 C 
BRANCH  31  32
ATOM     32  O   UNL     1     112.719 127.718 136.347  0.00  0.00    +0.000 OA
BRANCH  32  39
ATOM     33  O   UNL     1     111.631 127.227 135.561  0.00  0.00    +0.000 OA
ATOM     34  O   UNL     1     112.785 126.280 137.154  0.00  0.00    +0.000 OA
ATOM     35  O   UNL     1     111.730 125.070 136.772  0.00  0.00    +0.000 OA
ATOM     36  O   UNL     1     110.609 125.299 135.583  0.00  0.00    +0.000 OA
ATOM     37  C   UNL     1     112.224 126.393 136.559  0.00  0.00    +0.000 C 
ATOM     38  C   UNL     1     111.697 125.789 136.368  0.00  0.00    +0.000 C 
ATOM     39  C   UNL     1     112.191 127.112 136.156  0.00  0.00    +0.000 C 
ATOM     40  C   UNL     1     111.137 125.903 135.774  0.00  0.00    +0.000 C 
ATOM     41  C   UNL     1     111.104 126.622 135.371  0.00  0.00    +0.000 C 
BRANCH  41  43
ATOM     42  O   UNL     1     110.153 127.460 134.709  0.00  0.00    +0.000 OA
ATOM     43  C   UNL     1     110.543 126.736 134.776  0.00  0.00    +0.000 C 
ENDBRANCH  41  43
ENDBRANCH  32  39
ENDBRANCH  31  32
ENDBRANCH   5  31
TORSDOF 9
ENDMDL
MODEL 7
REMARK VINA RESULT:      -9.5      2.225      3.901
REMARK  Name = 42607569
REMARK  9 active torsions:
REMARK  status: ('A' for Active; 'I' for Inactive)
REMARK    1  A    between atoms: O_3  and  C_22
REMARK    2  A    between atoms: O_3  and  C_26
REMARK    3  A    between atoms: O_8  and  C_27
REMARK    4  A    between atoms: O_8  and  C_29
REMARK    5  A    between atoms: C_17  and  C_26
REMARK    6  A    between atoms: C_25  and  C_28
REMARK    7  A    between atoms: C_34  and  C_35
REMARK    8  A    between atoms: C_35  and  C_36
REMARK    9  A    between atoms: C_37  and  C_38
REMARK                            x       y       z     vdW  Elec       q    Type
REMARK                         _______ _______ _______ _____ _____    ______ ____
ROOT
ATOM      1  O   UNL     1     112.313 126.009 136.822  0.00  0.00    +0.000 OA
ATOM      2  O   UNL     1     114.460 125.756 136.518  0.00  0.00    +0.000 OA
ATOM      3  O   UNL     1     113.940 124.195 136.387  0.00  0.00    +0.000 OA
ATOM      4  O   UNL     1     112.336 123.844 136.545  0.00  0.00    +0.000 OA
ATOM      5  C   UNL     1     113.115 126.185 136.742  0.00  0.00    +0.000 C 
ATOM      6  C   UNL     1     113.657 125.580 136.597  0.00  0.00    +0.000 C 
ATOM      7  C   UNL     1     113.398 124.800 136.532  0.00  0.00    +0.000 C 
ATOM      8  C   UNL     1     112.596 124.625 136.611  0.00  0.00    +0.000 C 
ATOM      9  C   UNL     1     112.053 125.228 136.756  0.00  0.00    +0.000 C 
ENDROOT
BRANCH   9  10
ATOM     10  O   UNL     1     111.251 125.053 136.835  0.00  0.00    +0.000 OA
BRANCH  10  13
ATOM     11  O   UNL     1     110.295 125.676 138.027  0.00  0.00    +0.000 OA
ATOM     12  O   UNL     1     109.162 126.818 137.663  0.00  0.00    +0.000 OA
ATOM     13  C   UNL     1     110.684 125.624 136.654  0.00  0.00    +0.000 A 
ATOM     14  C   UNL     1     110.206 125.936 137.249  0.00  0.00    +0.000 A 
ATOM     15  C   UNL     1     110.596 125.884 135.876  0.00  0.00    +0.000 A 
ATOM     16  C   UNL     1     109.639 126.507 137.067  0.00  0.00    +0.000 A 
ATOM     17  C   UNL     1     110.029 126.455 135.693  0.00  0.00    +0.000 A 
ATOM     18  C   UNL     1     109.551 126.767 136.289  0.00  0.00    +0.000 A 
BRANCH  18  20
ATOM     19  O   UNL     1     108.204 127.113 135.964  0.00  0.00    +0.000 OA
ATOM     20  C   UNL     1     108.985 127.338 136.107  0.00  0.00    +0.000 C 
BRANCH  20  21
ATOM     21  C   UNL     1     109.199 128.134 136.066  0.00  0.00    +0.000 C 
ATOM     22  C   UNL     1     108.691 128.679 135.713  0.00  0.00    +0.000 C 
BRANCH  22  25
ATOM     23  O   UNL     1     108.466 131.356 136.688  0.00  0.00    +0.000 OA
ATOM     24  O   UNL     1     109.547 131.862 135.551  0.00  0.00    +0.000 OA
ATOM     25  C   UNL     1     108.905 129.475 135.672  0.00  0.00    +0.000 A 
ATOM     26  C   UNL     1     108.579 130.018 136.200  0.00  0.00    +0.000 A 
ATOM     27  C   UNL     1     109.447 129.729 135.103  0.00  0.00    +0.000 A 
ATOM     28  C   UNL     1     108.793 130.814 136.160  0.00  0.00    +0.000 A 
ATOM     29  C   UNL     1     109.661 130.524 135.063  0.00  0.00    +0.000 A 
ATOM     30  C   UNL     1     109.333 131.067 135.591  0.00  0.00    +0.000 A 
ENDBRANCH  22  25
ENDBRANCH  20  21
ENDBRANCH  18  20
ENDBRANCH  10  13
ENDBRANCH   9  10
BRANCH   5  31
ATOM     31  C   UNL     1     113.375 126.965 136.808  0.00  0.00    +0.000 C 
BRANCH  31  32
ATOM     32  O   UNL     1     113.190 127.512 136.219  0.00  0.00    +0.000 OA
BRANCH  32  39
ATOM     33  O   UNL     1     112.690 128.531 137.087  0.00  0.00    +0.000 OA
ATOM     34  O   UNL     1     113.852 128.667 135.244  0.00  0.00    +0.000 OA
ATOM     35  O   UNL     1     113.683 130.263 135.624  0.00  0.00    +0.000 OA
ATOM     36  O   UNL     1     112.852 130.705 136.980  0.00  0.00    +0.000 OA
ATOM     37  C   UNL     1     113.437 128.888 135.922  0.00  0.00    +0.000 C 
ATOM     38  C   UNL     1     113.352 129.686 136.112  0.00  0.00    +0.000 C 
ATOM     39  C   UNL     1     113.105 128.311 136.409  0.00  0.00    +0.000 C 
ATOM     40  C   UNL     1     112.937 129.907 136.789  0.00  0.00    +0.000 C 
ATOM     41  C   UNL     1     112.606 129.330 137.276  0.00  0.00    +0.000 C 
BRANCH  41  43
ATOM     42  O   UNL     1     111.499 129.152 138.163  0.00  0.00    +0.000 OA
ATOM     43  C   UNL     1     112.190 129.551 137.955  0.00  0.00    +0.000 C 
ENDBRANCH  41  43
ENDBRANCH  32  39
ENDBRANCH  31  32
ENDBRANCH   5  31
TORSDOF 9
ENDMDL
MODEL 8
REMARK VINA RESULT:      -9.5      2.817      4.948
REMARK  Name = 42607569
REMARK  9 active torsions:
REMARK  status: ('A' for Active; 'I' for Inactive)
REMARK    1  A    between atoms: O_3  and  C_22
REMARK    2  A    between atoms: O_3  and  C_26
REMARK    3  A    between atoms: O_8  and  C_27
REMARK    4  A    between atoms: O_8  and  C_29
REMARK    5  A    between atoms: C_17  and  C_26
REMARK    6  A    between atoms: C_25  and  C_28
REMARK    7  A    between atoms: C_34  and  C_35
REMARK    8  A    between atoms: C_35  and  C_36
REMARK    9  A    between atoms: C_37  and  C_38
REMARK                            x       y       z     vdW  Elec       q    Type
REMARK                         _______ _______ _______ _____ _____    ______ ____
ROOT
ATOM      1  O   UNL     1     111.522 126.849 137.180  0.00  0.00    +0.000 OA
ATOM      2  O   UNL     1     110.898 127.318 135.142  0.00  0.00    +0.000 OA
ATOM      3  O   UNL     1     110.948 125.670 135.081  0.00  0.00    +0.000 OA
ATOM      4  O   UNL     1     111.382 124.808 136.419  0.00  0.00    +0.000 OA
ATOM      5  C   UNL     1     111.306 127.281 136.511  0.00  0.00    +0.000 C 
ATOM      6  C   UNL     1     111.114 126.887 135.811  0.00  0.00    +0.000 C 
ATOM      7  C   UNL     1     111.140 126.064 135.781  0.00  0.00    +0.000 C 
ATOM      8  C   UNL     1     111.356 125.632 136.450  0.00  0.00    +0.000 C 
ATOM      9  C   UNL     1     111.548 126.025 137.150  0.00  0.00    +0.000 C 
ENDROOT
BRANCH   9  10
ATOM     10  O   UNL     1     111.764 125.594 137.819  0.00  0.00    +0.000 OA
BRANCH  10  13
ATOM     11  O   UNL     1     111.121 125.762 139.329  0.00  0.00    +0.000 OA
ATOM     12  O   UNL     1     112.000 126.484 140.524  0.00  0.00    +0.000 OA
ATOM     13  C   UNL     1     112.203 125.955 138.417  0.00  0.00    +0.000 A 
ATOM     14  C   UNL     1     111.882 126.039 139.172  0.00  0.00    +0.000 A 
ATOM     15  C   UNL     1     112.965 126.231 138.260  0.00  0.00    +0.000 A 
ATOM     16  C   UNL     1     112.321 126.400 139.770  0.00  0.00    +0.000 A 
ATOM     17  C   UNL     1     113.405 126.592 138.857  0.00  0.00    +0.000 A 
ATOM     18  C   UNL     1     113.082 126.676 139.613  0.00  0.00    +0.000 A 
BRANCH  18  20
ATOM     19  O   UNL     1     113.844 126.581 140.817  0.00  0.00    +0.000 OA
ATOM     20  C   UNL     1     113.522 127.037 140.210  0.00  0.00    +0.000 C 
BRANCH  20  21
ATOM     21  C   UNL     1     113.641 127.854 140.200  0.00  0.00    +0.000 C 
ATOM     22  C   UNL     1     114.093 128.212 140.788  0.00  0.00    +0.000 C 
BRANCH  22  25
ATOM     23  O   UNL     1     113.146 130.857 141.310  0.00  0.00    +0.000 OA
ATOM     24  O   UNL     1     114.567 131.477 140.748  0.00  0.00    +0.000 OA
ATOM     25  C   UNL     1     114.212 129.028 140.778  0.00  0.00    +0.000 A 
ATOM     26  C   UNL     1     113.620 129.535 141.049  0.00  0.00    +0.000 A 
ATOM     27  C   UNL     1     114.923 129.339 140.497  0.00  0.00    +0.000 A 
ATOM     28  C   UNL     1     113.738 130.351 141.039  0.00  0.00    +0.000 A 
ATOM     29  C   UNL     1     115.042 130.155 140.487  0.00  0.00    +0.000 A 
ATOM     30  C   UNL     1     114.449 130.661 140.758  0.00  0.00    +0.000 A 
ENDBRANCH  22  25
ENDBRANCH  20  21
ENDBRANCH  18  20
ENDBRANCH  10  13
ENDBRANCH   9  10
BRANCH   5  31
ATOM     31  C   UNL     1     111.280 128.104 136.542  0.00  0.00    +0.000 C 
BRANCH  31  32
ATOM     32  O   UNL     1     110.909 128.482 137.174  0.00  0.00    +0.000 OA
BRANCH  32  39
ATOM     33  O   UNL     1     111.944 129.464 137.246  0.00  0.00    +0.000 OA
ATOM     34  O   UNL     1     109.918 129.461 138.059  0.00  0.00    +0.000 OA
ATOM     35  O   UNL     1     110.459 130.932 138.574  0.00  0.00    +0.000 OA
ATOM     36  O   UNL     1     111.990 131.425 138.204  0.00  0.00    +0.000 OA
ATOM     37  C   UNL     1     110.684 129.708 137.874  0.00  0.00    +0.000 C 
ATOM     38  C   UNL     1     110.954 130.443 138.132  0.00  0.00    +0.000 C 
ATOM     39  C   UNL     1     111.179 129.218 137.432  0.00  0.00    +0.000 C 
ATOM     40  C   UNL     1     111.719 130.689 137.947  0.00  0.00    +0.000 C 
ATOM     41  C   UNL     1     112.214 130.200 137.504  0.00  0.00    +0.000 C 
BRANCH  41  43
ATOM     42  O   UNL     1     113.600 129.901 137.318  0.00  0.00    +0.000 OA
ATOM     43  C   UNL     1     112.980 130.446 137.319  0.00  0.00    +0.000 C 
ENDBRANCH  41  43
ENDBRANCH  32  39
ENDBRANCH  31  32
ENDBRANCH   5  31
TORSDOF 9
ENDMDL
MODEL 9
REMARK VINA RESULT:      -9.5      2.749      5.379
REMARK  Name = 42607569
REMARK  9 active torsions:
REMARK  status: ('A' for Active; 'I' for Inactive)
REMARK    1  A    between atoms: O_3  and  C_22
REMARK    2  A    between atoms: O_3  and  C_26
REMARK    3  A    between atoms: O_8  and  C_27
REMARK    4  A    between atoms: O_8  and  C_29
REMARK    5  A    between atoms: C_17  and  C_26
REMARK    6  A    between atoms: C_25  and  C_28
REMARK    7  A    between atoms: C_34  and  C_35
REMARK    8  A    between atoms: C_35  and  C_36
REMARK    9  A    between atoms: C_37  and  C_38
REMARK                            x       y       z     vdW  Elec       q    Type
REMARK                         _______ _______ _______ _____ _____    ______ ____
ROOT
ATOM      1  O   UNL     1     112.896 129.588 139.320  0.00  0.00    +0.000 OA
ATOM      2  O   UNL     1     114.170 129.760 141.083  0.00  0.00    +0.000 OA
ATOM      3  O   UNL     1     114.889 130.848 140.072  0.00  0.00    +0.000 OA
ATOM      4  O   UNL     1     114.279 131.096 138.559  0.00  0.00    +0.000 OA
ATOM      5  C   UNL     1     113.201 129.464 140.076  0.00  0.00    +0.000 C 
ATOM      6  C   UNL     1     113.865 129.884 140.327  0.00  0.00    +0.000 C 
ATOM      7  C   UNL     1     114.225 130.428 139.822  0.00  0.00    +0.000 C 
ATOM      8  C   UNL     1     113.920 130.552 139.065  0.00  0.00    +0.000 C 
ATOM      9  C   UNL     1     113.255 130.133 138.814  0.00  0.00    +0.000 C 
ENDROOT
BRANCH   9  10
ATOM     10  O   UNL     1     112.950 130.257 138.057  0.00  0.00    +0.000 OA
BRANCH  10  13
ATOM     11  O   UNL     1     111.439 130.092 137.416  0.00  0.00    +0.000 OA
ATOM     12  O   UNL     1     111.090 128.803 136.447  0.00  0.00    +0.000 OA
ATOM     13  C   UNL     1     112.775 129.613 137.573  0.00  0.00    +0.000 A 
ATOM     14  C   UNL     1     112.020 129.530 137.252  0.00  0.00    +0.000 A 
ATOM     15  C   UNL     1     113.356 129.050 137.409  0.00  0.00    +0.000 A 
ATOM     16  C   UNL     1     111.845 128.885 136.768  0.00  0.00    +0.000 A 
ATOM     17  C   UNL     1     113.183 128.406 136.925  0.00  0.00    +0.000 A 
ATOM     18  C   UNL     1     112.426 128.323 136.604  0.00  0.00    +0.000 A 
BRANCH  18  20
ATOM     19  O   UNL     1     112.108 127.795 135.316  0.00  0.00    +0.000 OA
ATOM     20  C   UNL     1     112.252 127.679 136.120  0.00  0.00    +0.000 C 
BRANCH  20  21
ATOM     21  C   UNL     1     112.223 126.918 136.439  0.00  0.00    +0.000 C 
ATOM     22  C   UNL     1     112.181 126.264 135.940  0.00  0.00    +0.000 C 
BRANCH  22  25
ATOM     23  O   UNL     1     113.519 123.924 136.888  0.00  0.00    +0.000 OA
ATOM     24  O   UNL     1     112.063 123.223 137.216  0.00  0.00    +0.000 OA
ATOM     25  C   UNL     1     112.151 125.503 136.259  0.00  0.00    +0.000 A 
ATOM     26  C   UNL     1     112.850 125.093 136.414  0.00  0.00    +0.000 A 
ATOM     27  C   UNL     1     111.422 125.152 136.423  0.00  0.00    +0.000 A 
ATOM     28  C   UNL     1     112.821 124.333 136.733  0.00  0.00    +0.000 A 
ATOM     29  C   UNL     1     111.393 124.392 136.742  0.00  0.00    +0.000 A 
ATOM     30  C   UNL     1     112.093 123.983 136.897  0.00  0.00    +0.000 A 
ENDBRANCH  22  25
ENDBRANCH  20  21
ENDBRANCH  18  20
ENDBRANCH  10  13
ENDBRANCH   9  10
BRANCH   5  31
ATOM     31  C   UNL     1     112.841 128.921 140.581  0.00  0.00    +0.000 C 
BRANCH  31  32
ATOM     32  O   UNL     1     112.022 128.929 140.681  0.00  0.00    +0.000 OA
BRANCH  32  39
ATOM     33  O   UNL     1     111.740 127.537 140.529  0.00  0.00    +0.000 OA
ATOM     34  O   UNL     1     111.019 128.990 141.989  0.00  0.00    +0.000 OA
ATOM     35  O   UNL     1     110.234 127.628 142.491  0.00  0.00    +0.000 OA
ATOM     36  O   UNL     1     110.454 126.205 141.685  0.00  0.00    +0.000 OA
ATOM     37  C   UNL     1     111.128 128.278 141.586  0.00  0.00    +0.000 C 
ATOM     38  C   UNL     1     110.736 127.597 141.837  0.00  0.00    +0.000 C 
ATOM     39  C   UNL     1     111.630 128.248 140.932  0.00  0.00    +0.000 C 
ATOM     40  C   UNL     1     110.846 126.886 141.434  0.00  0.00    +0.000 C 
ATOM     41  C   UNL     1     111.347 126.856 140.780  0.00  0.00    +0.000 C 
BRANCH  41  43
ATOM     42  O   UNL     1     112.013 126.096 139.769  0.00  0.00    +0.000 OA
ATOM     43  C   UNL     1     111.457 126.144 140.376  0.00  0.00    +0.000 C 
ENDBRANCH  41  43
ENDBRANCH  32  39
ENDBRANCH  31  32
ENDBRANCH   5  31
TORSDOF 9
ENDMDL
MODEL 10
REMARK VINA RESULT:      -9.5      1.920      5.106
REMARK  Name = 42607569
REMARK  9 active torsions:
REMARK  status: ('A' for Active; 'I' for Inactive)
REMARK    1  A    between atoms: O_3  and  C_22
REMARK    2  A    between atoms: O_3  and  C_26
REMARK    3  A    between atoms: O_8  and  C_27
REMARK    4  A    between atoms: O_8  and  C_29
REMARK    5  A    between atoms: C_17  and  C_26
REMARK    6  A    between atoms: C_25  and  C_28
REMARK    7  A    between atoms: C_34  and  C_35
REMARK    8  A    between atoms: C_35  and  C_36
REMARK    9  A    between atoms: C_37  and  C_38
REMARK                            x       y       z     vdW  Elec       q    Type
REMARK                         _______ _______ _______ _____ _____    ______ ____
ROOT
ATOM      1  O   UNL     1     109.900 130.381 136.342  0.00  0.00    +0.000 OA
ATOM      2  O   UNL     1     110.793 132.267 136.984  0.00  0.00    +0.000 OA
ATOM      3  O   UNL     1     109.710 132.802 135.859  0.00  0.00    +0.000 OA
ATOM      4  O   UNL     1     108.754 131.724 135.056  0.00  0.00    +0.000 OA
ATOM      5  C   UNL     1     110.378 130.921 136.743  0.00  0.00    +0.000 C 
ATOM      6  C   UNL     1     110.315 131.727 136.582  0.00  0.00    +0.000 C 
ATOM      7  C   UNL     1     109.774 131.995 136.020  0.00  0.00    +0.000 C 
ATOM      8  C   UNL     1     109.296 131.456 135.619  0.00  0.00    +0.000 C 
ATOM      9  C   UNL     1     109.359 130.649 135.779  0.00  0.00    +0.000 C 
ENDROOT
BRANCH   9  10
ATOM     10  O   UNL     1     108.881 130.110 135.377  0.00  0.00    +0.000 OA
BRANCH  10  13
ATOM     11  O   UNL     1     107.927 128.993 136.130  0.00  0.00    +0.000 OA
ATOM     12  O   UNL     1     108.340 127.396 136.092  0.00  0.00    +0.000 OA
ATOM     13  C   UNL     1     109.086 129.311 135.358  0.00  0.00    +0.000 A 
ATOM     14  C   UNL     1     108.610 128.753 135.734  0.00  0.00    +0.000 A 
ATOM     15  C   UNL     1     109.769 129.071 134.963  0.00  0.00    +0.000 A 
ATOM     16  C   UNL     1     108.816 127.954 135.716  0.00  0.00    +0.000 A 
ATOM     17  C   UNL     1     109.976 128.272 134.944  0.00  0.00    +0.000 A 
ATOM     18  C   UNL     1     109.499 127.714 135.320  0.00  0.00    +0.000 A 
BRANCH  18  20
ATOM     19  O   UNL     1     109.307 126.399 134.796  0.00  0.00    +0.000 OA
ATOM     20  C   UNL     1     109.706 126.916 135.301  0.00  0.00    +0.000 C 
BRANCH  20  21
ATOM     21  C   UNL     1     110.311 126.634 135.786  0.00  0.00    +0.000 C 
ATOM     22  C   UNL     1     110.516 125.835 135.767  0.00  0.00    +0.000 C 
BRANCH  22  25
ATOM     23  O   UNL     1     111.406 124.861 138.301  0.00  0.00    +0.000 OA
ATOM     24  O   UNL     1     112.936 124.708 137.706  0.00  0.00    +0.000 OA
ATOM     25  C   UNL     1     111.121 125.554 136.252  0.00  0.00    +0.000 A 
ATOM     26  C   UNL     1     110.961 125.348 137.034  0.00  0.00    +0.000 A 
ATOM     27  C   UNL     1     111.887 125.477 135.954  0.00  0.00    +0.000 A 
ATOM     28  C   UNL     1     111.566 125.066 137.519  0.00  0.00    +0.000 A 
ATOM     29  C   UNL     1     112.492 125.195 136.439  0.00  0.00    +0.000 A 
ATOM     30  C   UNL     1     112.331 124.990 137.221  0.00  0.00    +0.000 A 
ENDBRANCH  22  25
ENDBRANCH  20  21
ENDBRANCH  18  20
ENDBRANCH  10  13
ENDBRANCH   9  10
BRANCH   5  31
ATOM     31  C   UNL     1     110.919 130.653 137.305  0.00  0.00    +0.000 C 
BRANCH  31  32
ATOM     32  O   UNL     1     110.678 130.124 137.891  0.00  0.00    +0.000 OA
BRANCH  32  39
ATOM     33  O   UNL     1     111.906 129.403 137.777  0.00  0.00    +0.000 OA
ATOM     34  O   UNL     1     110.342 129.330 139.298  0.00  0.00    +0.000 OA
ATOM     35  O   UNL     1     111.402 128.212 139.887  0.00  0.00    +0.000 OA
ATOM     36  O   UNL     1     112.798 127.888 139.070  0.00  0.00    +0.000 OA
ATOM     37  C   UNL     1     111.040 129.168 138.889  0.00  0.00    +0.000 C 
ATOM     38  C   UNL     1     111.570 128.609 139.184  0.00  0.00    +0.000 C 
ATOM     39  C   UNL     1     111.208 129.565 138.186  0.00  0.00    +0.000 C 
ATOM     40  C   UNL     1     112.268 128.447 138.776  0.00  0.00    +0.000 C 
ATOM     41  C   UNL     1     112.436 128.844 138.073  0.00  0.00    +0.000 C 
BRANCH  41  43
ATOM     42  O   UNL     1     113.124 128.605 136.842  0.00  0.00    +0.000 OA
ATOM     43  C   UNL     1     113.135 128.682 137.664  0.00  0.00    +0.000 C 
ENDBRANCH  41  43
ENDBRANCH  32  39
ENDBRANCH  31  32
ENDBRANCH   5  31
TORSDOF 9
ENDMDL
