MODEL 1
REMARK VINA RESULT:     -10.6      0.000      0.000
REMARK  Name = 44258818
REMARK  9 active torsions:
REMARK  status: ('A' for Active; 'I' for Inactive)
REMARK    1  A    between atoms: O_1  and  C_21
REMARK    2  A    between atoms: O_1  and  C_26
REMARK    3  A    between atoms: O_4  and  C_24
REMARK    4  A    between atoms: O_4  and  C_34
REMARK    5  A    between atoms: O_13  and  C_36
REMARK    6  A    between atoms: O_13  and  C_39
REMARK    7  A    between atoms: C_30  and  C_34
REMARK    8  A    between atoms: C_31  and  C_38
REMARK    9  A    between atoms: C_40  and  C_43
REMARK                            x       y       z     vdW  Elec       q    Type
REMARK                         _______ _______ _______ _____ _____    ______ ____
ROOT
ATOM      1  O   UNL     1     112.692 128.813 137.690  0.00  0.00    +0.000 OA
ATOM      2  O   UNL     1     113.942 130.805 138.902  0.00  0.00    +0.000 OA
ATOM      3  O   UNL     1     114.199 131.309 136.984  0.00  0.00    +0.000 OA
ATOM      4  O   UNL     1     113.452 130.148 135.536  0.00  0.00    +0.000 OA
ATOM      5  C   UNL     1     113.065 129.393 138.414  0.00  0.00    +0.000 C 
ATOM      6  C   UNL     1     113.568 130.225 138.178  0.00  0.00    +0.000 C 
ATOM      7  C   UNL     1     113.697 130.477 137.219  0.00  0.00    +0.000 C 
ATOM      8  C   UNL     1     113.323 129.897 136.495  0.00  0.00    +0.000 C 
ATOM      9  C   UNL     1     112.821 129.065 136.731  0.00  0.00    +0.000 C 
ENDROOT
BRANCH   9  10
ATOM     10  O   UNL     1     112.447 128.485 136.007  0.00  0.00    +0.000 OA
BRANCH  10  15
ATOM     11  O   UNL     1     110.996 126.311 136.420  0.00  0.00    +0.000 OA
ATOM     12  O   UNL     1     113.880 127.135 136.361  0.00  0.00    +0.000 OA
ATOM     13  O   UNL     1     114.390 125.506 136.738  0.00  0.00    +0.000 OA
ATOM     14  O   UNL     1     111.934 122.994 137.182  0.00  0.00    +0.000 OA
ATOM     15  C   UNL     1     112.202 127.535 136.204  0.00  0.00    +0.000 A 
ATOM     16  C   UNL     1     111.241 127.261 136.223  0.00  0.00    +0.000 A 
ATOM     17  C   UNL     1     112.919 126.861 136.381  0.00  0.00    +0.000 A 
ATOM     18  C   UNL     1     112.674 125.911 136.577  0.00  0.00    +0.000 A 
ATOM     19  C   UNL     1     111.712 125.636 136.597  0.00  0.00    +0.000 A 
ATOM     20  C   UNL     1     113.432 125.220 136.760  0.00  0.00    +0.000 A 
ATOM     21  C   UNL     1     111.442 124.651 136.800  0.00  0.00    +0.000 A 
ATOM     22  C   UNL     1     113.184 124.229 136.965  0.00  0.00    +0.000 A 
ATOM     23  C   UNL     1     112.182 123.943 136.985  0.00  0.00    +0.000 A 
BRANCH  16  25
ATOM     24  O   UNL     1     108.375 129.960 135.515  0.00  0.00    +0.000 OA
ATOM     25  C   UNL     1     110.524 127.935 136.046  0.00  0.00    +0.000 A 
ATOM     26  C   UNL     1     110.370 128.268 135.116  0.00  0.00    +0.000 A 
ATOM     27  C   UNL     1     109.962 128.277 136.799  0.00  0.00    +0.000 A 
ATOM     28  C   UNL     1     109.653 128.943 134.939  0.00  0.00    +0.000 A 
ATOM     29  C   UNL     1     109.246 128.952 136.622  0.00  0.00    +0.000 A 
ATOM     30  C   UNL     1     109.091 129.285 135.692  0.00  0.00    +0.000 A 
ENDBRANCH  16  25
ENDBRANCH  10  15
ENDBRANCH   9  10
BRANCH   5  31
ATOM     31  C   UNL     1     112.937 129.141 139.373  0.00  0.00    +0.000 C 
BRANCH  31  32
ATOM     32  O   UNL     1     112.175 128.550 139.637  0.00  0.00    +0.000 OA
BRANCH  32  39
ATOM     33  O   UNL     1     112.243 129.174 141.251  0.00  0.00    +0.000 OA
ATOM     34  O   UNL     1     110.534 127.508 140.109  0.00  0.00    +0.000 OA
ATOM     35  O   UNL     1     110.670 128.757 143.337  0.00  0.00    +0.000 OA
ATOM     36  C   UNL     1     110.602 128.133 141.723  0.00  0.00    +0.000 C 
ATOM     37  C   UNL     1     110.978 128.081 140.798  0.00  0.00    +0.000 C 
ATOM     38  C   UNL     1     111.046 128.705 142.412  0.00  0.00    +0.000 C 
ATOM     39  C   UNL     1     111.798 128.602 140.562  0.00  0.00    +0.000 C 
ATOM     40  C   UNL     1     111.866 129.226 142.176  0.00  0.00    +0.000 C 
ATOM     41  C   UNL     1     112.311 129.799 142.865  0.00  0.00    +0.000 C 
BRANCH  36  42
ATOM     42  O   UNL     1     109.782 127.612 141.959  0.00  0.00    +0.000 OA
BRANCH  42  47
ATOM     43  O   UNL     1     108.792 128.985 141.592  0.00  0.00    +0.000 OA
ATOM     44  O   UNL     1     108.142 126.485 142.162  0.00  0.00    +0.000 OA
ATOM     45  O   UNL     1     106.333 127.294 141.897  0.00  0.00    +0.000 OA
ATOM     46  O   UNL     1     106.163 129.231 141.429  0.00  0.00    +0.000 OA
ATOM     47  C   UNL     1     108.877 128.017 141.826  0.00  0.00    +0.000 C 
ATOM     48  C   UNL     1     108.057 127.453 141.928  0.00  0.00    +0.000 C 
ATOM     49  C   UNL     1     107.152 127.858 141.795  0.00  0.00    +0.000 C 
ATOM     50  C   UNL     1     107.067 128.826 141.561  0.00  0.00    +0.000 C 
ATOM     51  C   UNL     1     107.887 129.390 141.460  0.00  0.00    +0.000 C 
BRANCH  51  53
ATOM     52  O   UNL     1     108.569 130.981 141.386  0.00  0.00    +0.000 OA
ATOM     53  C   UNL     1     107.802 130.359 141.226  0.00  0.00    +0.000 C 
ENDBRANCH  51  53
ENDBRANCH  42  47
ENDBRANCH  36  42
ENDBRANCH  32  39
ENDBRANCH  31  32
ENDBRANCH   5  31
TORSDOF 9
ENDMDL
MODEL 2
REMARK VINA RESULT:     -10.4      2.207      4.159
REMARK  Name = 44258818
REMARK  9 active torsions:
REMARK  status: ('A' for Active; 'I' for Inactive)
REMARK    1  A    between atoms: O_1  and  C_21
REMARK    2  A    between atoms: O_1  and  C_26
REMARK    3  A    between atoms: O_4  and  C_24
REMARK    4  A    between atoms: O_4  and  C_34
REMARK    5  A    between atoms: O_13  and  C_36
REMARK    6  A    between atoms: O_13  and  C_39
REMARK    7  A    between atoms: C_30  and  C_34
REMARK    8  A    between atoms: C_31  and  C_38
REMARK    9  A    between atoms: C_40  and  C_43
REMARK                            x       y       z     vdW  Elec       q    Type
REMARK                         _______ _______ _______ _____ _____    ______ ____
ROOT
ATOM      1  O   UNL     1     110.085 129.708 139.017  0.00  0.00    +0.000 OA
ATOM      2  O   UNL     1     108.141 131.349 139.745  0.00  0.00    +0.000 OA
ATOM      3  O   UNL     1     108.974 132.388 138.254  0.00  0.00    +0.000 OA
ATOM      4  O   UNL     1     110.547 131.641 137.271  0.00  0.00    +0.000 OA
ATOM      5  C   UNL     1     109.298 130.082 139.508  0.00  0.00    +0.000 C 
ATOM      6  C   UNL     1     108.927 130.975 139.254  0.00  0.00    +0.000 C 
ATOM      7  C   UNL     1     109.344 131.495 138.508  0.00  0.00    +0.000 C 
ATOM      8  C   UNL     1     110.131 131.122 138.017  0.00  0.00    +0.000 C 
ATOM      9  C   UNL     1     110.501 130.228 138.271  0.00  0.00    +0.000 C 
ENDROOT
BRANCH   9  10
ATOM     10  O   UNL     1     111.288 129.855 137.780  0.00  0.00    +0.000 OA
BRANCH  10  15
ATOM     11  O   UNL     1     112.498 127.577 138.368  0.00  0.00    +0.000 OA
ATOM     12  O   UNL     1     110.072 128.540 136.889  0.00  0.00    +0.000 OA
ATOM     13  O   UNL     1     109.633 126.901 136.470  0.00  0.00    +0.000 OA
ATOM     14  O   UNL     1     111.687 124.235 137.568  0.00  0.00    +0.000 OA
ATOM     15  C   UNL     1     111.489 128.876 137.827  0.00  0.00    +0.000 A 
ATOM     16  C   UNL     1     112.297 128.555 138.320  0.00  0.00    +0.000 A 
ATOM     17  C   UNL     1     110.881 128.219 137.382  0.00  0.00    +0.000 A 
ATOM     18  C   UNL     1     111.081 127.241 137.429  0.00  0.00    +0.000 A 
ATOM     19  C   UNL     1     111.890 126.919 137.922  0.00  0.00    +0.000 A 
ATOM     20  C   UNL     1     110.438 126.568 136.960  0.00  0.00    +0.000 A 
ATOM     21  C   UNL     1     112.112 125.903 137.981  0.00  0.00    +0.000 A 
ATOM     22  C   UNL     1     110.641 125.547 137.005  0.00  0.00    +0.000 A 
ATOM     23  C   UNL     1     111.484 125.213 137.519  0.00  0.00    +0.000 A 
BRANCH  16  25
ATOM     24  O   UNL     1     114.729 131.184 140.102  0.00  0.00    +0.000 OA
ATOM     25  C   UNL     1     112.905 129.212 138.766  0.00  0.00    +0.000 A 
ATOM     26  C   UNL     1     112.924 129.279 139.763  0.00  0.00    +0.000 A 
ATOM     27  C   UNL     1     113.494 129.802 138.214  0.00  0.00    +0.000 A 
ATOM     28  C   UNL     1     113.532 129.936 140.209  0.00  0.00    +0.000 A 
ATOM     29  C   UNL     1     114.102 130.460 138.659  0.00  0.00    +0.000 A 
ATOM     30  C   UNL     1     114.121 130.527 139.657  0.00  0.00    +0.000 A 
ENDBRANCH  16  25
ENDBRANCH  10  15
ENDBRANCH   9  10
BRANCH   5  31
ATOM     31  C   UNL     1     108.881 129.562 140.254  0.00  0.00    +0.000 C 
BRANCH  31  32
ATOM     32  O   UNL     1     108.928 128.563 140.255  0.00  0.00    +0.000 OA
BRANCH  32  39
ATOM     33  O   UNL     1     108.189 128.519 141.820  0.00  0.00    +0.000 OA
ATOM     34  O   UNL     1     108.767 126.574 140.122  0.00  0.00    +0.000 OA
ATOM     35  O   UNL     1     107.289 126.485 143.254  0.00  0.00    +0.000 OA
ATOM     36  C   UNL     1     108.028 126.530 141.688  0.00  0.00    +0.000 C 
ATOM     37  C   UNL     1     108.438 127.049 140.938  0.00  0.00    +0.000 C 
ATOM     38  C   UNL     1     107.699 127.005 142.504  0.00  0.00    +0.000 C 
ATOM     39  C   UNL     1     108.518 128.044 141.004  0.00  0.00    +0.000 C 
ATOM     40  C   UNL     1     107.779 127.999 142.570  0.00  0.00    +0.000 C 
ATOM     41  C   UNL     1     107.450 128.474 143.386  0.00  0.00    +0.000 C 
BRANCH  36  42
ATOM     42  O   UNL     1     107.948 125.535 141.622  0.00  0.00    +0.000 OA
BRANCH  42  47
ATOM     43  O   UNL     1     106.359 125.704 140.953  0.00  0.00    +0.000 OA
ATOM     44  O   UNL     1     107.860 123.558 141.330  0.00  0.00    +0.000 OA
ATOM     45  O   UNL     1     106.228 122.739 140.516  0.00  0.00    +0.000 OA
ATOM     46  O   UNL     1     104.683 123.896 139.993  0.00  0.00    +0.000 OA
ATOM     47  C   UNL     1     107.132 125.125 141.215  0.00  0.00    +0.000 C 
ATOM     48  C   UNL     1     107.088 124.137 141.069  0.00  0.00    +0.000 C 
ATOM     49  C   UNL     1     106.272 123.727 140.662  0.00  0.00    +0.000 C 
ATOM     50  C   UNL     1     105.499 124.306 140.400  0.00  0.00    +0.000 C 
ATOM     51  C   UNL     1     105.543 125.294 140.546  0.00  0.00    +0.000 C 
BRANCH  51  53
ATOM     52  O   UNL     1     104.749 126.834 140.562  0.00  0.00    +0.000 OA
ATOM     53  C   UNL     1     104.770 125.873 140.285  0.00  0.00    +0.000 C 
ENDBRANCH  51  53
ENDBRANCH  42  47
ENDBRANCH  36  42
ENDBRANCH  32  39
ENDBRANCH  31  32
ENDBRANCH   5  31
TORSDOF 9
ENDMDL
MODEL 3
REMARK VINA RESULT:     -10.3      2.035      5.829
REMARK  Name = 44258818
REMARK  9 active torsions:
REMARK  status: ('A' for Active; 'I' for Inactive)
REMARK    1  A    between atoms: O_1  and  C_21
REMARK    2  A    between atoms: O_1  and  C_26
REMARK    3  A    between atoms: O_4  and  C_24
REMARK    4  A    between atoms: O_4  and  C_34
REMARK    5  A    between atoms: O_13  and  C_36
REMARK    6  A    between atoms: O_13  and  C_39
REMARK    7  A    between atoms: C_30  and  C_34
REMARK    8  A    between atoms: C_31  and  C_38
REMARK    9  A    between atoms: C_40  and  C_43
REMARK                            x       y       z     vdW  Elec       q    Type
REMARK                         _______ _______ _______ _____ _____    ______ ____
ROOT
ATOM      1  O   UNL     1     109.909 130.699 136.581  0.00  0.00    +0.000 OA
ATOM      2  O   UNL     1     108.129 130.968 134.643  0.00  0.00    +0.000 OA
ATOM      3  O   UNL     1     108.792 132.848 134.811  0.00  0.00    +0.000 OA
ATOM      4  O   UNL     1     110.199 133.295 136.159  0.00  0.00    +0.000 OA
ATOM      5  C   UNL     1     109.205 130.476 135.907  0.00  0.00    +0.000 C 
ATOM      6  C   UNL     1     108.833 131.192 135.317  0.00  0.00    +0.000 C 
ATOM      7  C   UNL     1     109.164 132.131 135.401  0.00  0.00    +0.000 C 
ATOM      8  C   UNL     1     109.868 132.355 136.075  0.00  0.00    +0.000 C 
ATOM      9  C   UNL     1     110.240 131.639 136.666  0.00  0.00    +0.000 C 
ENDROOT
BRANCH   9  10
ATOM     10  O   UNL     1     110.944 131.863 137.340  0.00  0.00    +0.000 OA
BRANCH  10  15
ATOM     11  O   UNL     1     111.946 130.124 139.064  0.00  0.00    +0.000 OA
ATOM     12  O   UNL     1     109.579 131.949 138.799  0.00  0.00    +0.000 OA
ATOM     13  O   UNL     1     108.970 131.443 140.358  0.00  0.00    +0.000 OA
ATOM     14  O   UNL     1     110.790 129.045 142.221  0.00  0.00    +0.000 OA
ATOM     15  C   UNL     1     111.050 131.297 138.158  0.00  0.00    +0.000 A 
ATOM     16  C   UNL     1     111.839 130.689 138.246  0.00  0.00    +0.000 A 
ATOM     17  C   UNL     1     110.368 131.340 138.887  0.00  0.00    +0.000 A 
ATOM     18  C   UNL     1     110.474 130.775 139.705  0.00  0.00    +0.000 A 
ATOM     19  C   UNL     1     111.263 130.167 139.794  0.00  0.00    +0.000 A 
ATOM     20  C   UNL     1     109.755 130.831 140.457  0.00  0.00    +0.000 A 
ATOM     21  C   UNL     1     111.388 129.572 140.640  0.00  0.00    +0.000 A 
ATOM     22  C   UNL     1     109.859 130.245 141.312  0.00  0.00    +0.000 A 
ATOM     23  C   UNL     1     110.681 129.611 141.404  0.00  0.00    +0.000 A 
BRANCH  16  25
ATOM     24  O   UNL     1     114.569 130.517 135.328  0.00  0.00    +0.000 OA
ATOM     25  C   UNL     1     112.522 130.646 137.517  0.00  0.00    +0.000 A 
ATOM     26  C   UNL     1     112.524 129.877 136.879  0.00  0.00    +0.000 A 
ATOM     27  C   UNL     1     113.203 131.373 137.426  0.00  0.00    +0.000 A 
ATOM     28  C   UNL     1     113.206 129.834 136.149  0.00  0.00    +0.000 A 
ATOM     29  C   UNL     1     113.885 131.330 136.696  0.00  0.00    +0.000 A 
ATOM     30  C   UNL     1     113.887 130.560 136.058  0.00  0.00    +0.000 A 
ENDBRANCH  16  25
ENDBRANCH  10  15
ENDBRANCH   9  10
BRANCH   5  31
ATOM     31  C   UNL     1     108.874 129.536 135.823  0.00  0.00    +0.000 C 
BRANCH  31  32
ATOM     32  O   UNL     1     108.902 128.923 136.613  0.00  0.00    +0.000 OA
BRANCH  32  39
ATOM     33  O   UNL     1     109.445 127.617 135.614  0.00  0.00    +0.000 OA
ATOM     34  O   UNL     1     109.377 127.871 138.246  0.00  0.00    +0.000 OA
ATOM     35  O   UNL     1     110.463 125.259 136.247  0.00  0.00    +0.000 OA
ATOM     36  C   UNL     1     109.920 126.565 137.247  0.00  0.00    +0.000 C 
ATOM     37  C   UNL     1     109.530 127.481 137.338  0.00  0.00    +0.000 C 
ATOM     38  C   UNL     1     110.073 126.175 136.339  0.00  0.00    +0.000 C 
ATOM     39  C   UNL     1     109.292 128.007 136.522  0.00  0.00    +0.000 C 
ATOM     40  C   UNL     1     109.835 126.701 135.522  0.00  0.00    +0.000 C 
ATOM     41  C   UNL     1     109.988 126.311 134.614  0.00  0.00    +0.000 C 
BRANCH  36  42
ATOM     42  O   UNL     1     110.158 126.039 138.063  0.00  0.00    +0.000 OA
BRANCH  42  47
ATOM     43  O   UNL     1     111.853 126.379 137.956  0.00  0.00    +0.000 OA
ATOM     44  O   UNL     1     110.309 125.912 140.054  0.00  0.00    +0.000 OA
ATOM     45  O   UNL     1     112.080 126.189 140.941  0.00  0.00    +0.000 OA
ATOM     46  O   UNL     1     113.699 126.592 139.839  0.00  0.00    +0.000 OA
ATOM     47  C   UNL     1     111.043 126.177 138.507  0.00  0.00    +0.000 C 
ATOM     48  C   UNL     1     111.119 126.114 139.502  0.00  0.00    +0.000 C 
ATOM     49  C   UNL     1     112.004 126.252 139.946  0.00  0.00    +0.000 C 
ATOM     50  C   UNL     1     112.814 126.454 139.395  0.00  0.00    +0.000 C 
ATOM     51  C   UNL     1     112.738 126.517 138.400  0.00  0.00    +0.000 C 
BRANCH  51  53
ATOM     52  O   UNL     1     113.571 126.462 136.882  0.00  0.00    +0.000 OA
ATOM     53  C   UNL     1     113.548 126.719 137.848  0.00  0.00    +0.000 C 
ENDBRANCH  51  53
ENDBRANCH  42  47
ENDBRANCH  36  42
ENDBRANCH  32  39
ENDBRANCH  31  32
ENDBRANCH   5  31
TORSDOF 9
ENDMDL
MODEL 4
REMARK VINA RESULT:     -10.2      1.731      4.093
REMARK  Name = 44258818
REMARK  9 active torsions:
REMARK  status: ('A' for Active; 'I' for Inactive)
REMARK    1  A    between atoms: O_1  and  C_21
REMARK    2  A    between atoms: O_1  and  C_26
REMARK    3  A    between atoms: O_4  and  C_24
REMARK    4  A    between atoms: O_4  and  C_34
REMARK    5  A    between atoms: O_13  and  C_36
REMARK    6  A    between atoms: O_13  and  C_39
REMARK    7  A    between atoms: C_30  and  C_34
REMARK    8  A    between atoms: C_31  and  C_38
REMARK    9  A    between atoms: C_40  and  C_43
REMARK                            x       y       z     vdW  Elec       q    Type
REMARK                         _______ _______ _______ _____ _____    ______ ____
ROOT
ATOM      1  O   UNL     1     112.368 128.279 137.006  0.00  0.00    +0.000 OA
ATOM      2  O   UNL     1     112.431 129.867 134.891  0.00  0.00    +0.000 OA
ATOM      3  O   UNL     1     114.149 128.868 134.665  0.00  0.00    +0.000 OA
ATOM      4  O   UNL     1     114.679 127.476 135.999  0.00  0.00    +0.000 OA
ATOM      5  C   UNL     1     112.103 128.975 136.339  0.00  0.00    +0.000 C 
ATOM      6  C   UNL     1     112.696 129.171 135.558  0.00  0.00    +0.000 C 
ATOM      7  C   UNL     1     113.555 128.671 135.445  0.00  0.00    +0.000 C 
ATOM      8  C   UNL     1     113.820 127.975 136.112  0.00  0.00    +0.000 C 
ATOM      9  C   UNL     1     113.227 127.779 136.893  0.00  0.00    +0.000 C 
ENDROOT
BRANCH   9  10
ATOM     10  O   UNL     1     113.492 127.083 137.560  0.00  0.00    +0.000 OA
BRANCH  10  15
ATOM     11  O   UNL     1     111.923 126.195 139.497  0.00  0.00    +0.000 OA
ATOM     12  O   UNL     1     113.765 128.498 138.946  0.00  0.00    +0.000 OA
ATOM     13  O   UNL     1     113.442 129.179 140.524  0.00  0.00    +0.000 OA
ATOM     14  O   UNL     1     111.214 127.497 142.700  0.00  0.00    +0.000 OA
ATOM     15  C   UNL     1     113.014 127.023 138.436  0.00  0.00    +0.000 A 
ATOM     16  C   UNL     1     112.400 126.255 138.620  0.00  0.00    +0.000 A 
ATOM     17  C   UNL     1     113.151 127.730 139.129  0.00  0.00    +0.000 A 
ATOM     18  C   UNL     1     112.673 127.671 140.006  0.00  0.00    +0.000 A 
ATOM     19  C   UNL     1     112.059 126.903 140.190  0.00  0.00    +0.000 A 
ATOM     20  C   UNL     1     112.826 128.416 140.718  0.00  0.00    +0.000 A 
ATOM     21  C   UNL     1     111.555 126.827 141.098  0.00  0.00    +0.000 A 
ATOM     22  C   UNL     1     112.332 128.360 141.634  0.00  0.00    +0.000 A 
ATOM     23  C   UNL     1     111.692 127.560 141.825  0.00  0.00    +0.000 A 
BRANCH  16  25
ATOM     24  O   UNL     1     111.854 123.424 135.848  0.00  0.00    +0.000 OA
ATOM     25  C   UNL     1     112.264 125.547 137.927  0.00  0.00    +0.000 A 
ATOM     26  C   UNL     1     111.397 125.493 137.431  0.00  0.00    +0.000 A 
ATOM     27  C   UNL     1     112.994 124.893 137.729  0.00  0.00    +0.000 A 
ATOM     28  C   UNL     1     111.260 124.786 136.738  0.00  0.00    +0.000 A 
ATOM     29  C   UNL     1     112.857 124.186 137.036  0.00  0.00    +0.000 A 
ATOM     30  C   UNL     1     111.990 124.132 136.541  0.00  0.00    +0.000 A 
ENDBRANCH  16  25
ENDBRANCH  10  15
ENDBRANCH   9  10
BRANCH   5  31
ATOM     31  C   UNL     1     111.244 129.475 136.452  0.00  0.00    +0.000 C 
BRANCH  31  32
ATOM     32  O   UNL     1     110.613 129.224 137.186  0.00  0.00    +0.000 OA
BRANCH  32  39
ATOM     33  O   UNL     1     109.969 130.832 137.184  0.00  0.00    +0.000 OA
ATOM     34  O   UNL     1     109.430 128.753 138.728  0.00  0.00    +0.000 OA
ATOM     35  O   UNL     1     108.143 131.969 138.724  0.00  0.00    +0.000 OA
ATOM     36  C   UNL     1     108.786 130.361 138.726  0.00  0.00    +0.000 C 
ATOM     37  C   UNL     1     109.404 129.674 138.342  0.00  0.00    +0.000 C 
ATOM     38  C   UNL     1     108.760 131.282 138.339  0.00  0.00    +0.000 C 
ATOM     39  C   UNL     1     109.995 129.910 137.570  0.00  0.00    +0.000 C 
ATOM     40  C   UNL     1     109.352 131.518 137.568  0.00  0.00    +0.000 C 
ATOM     41  C   UNL     1     109.325 132.440 137.181  0.00  0.00    +0.000 C 
BRANCH  36  42
ATOM     42  O   UNL     1     108.195 130.125 139.497  0.00  0.00    +0.000 OA
BRANCH  42  47
ATOM     43  O   UNL     1     109.391 130.706 140.608  0.00  0.00    +0.000 OA
ATOM     44  O   UNL     1     107.150 129.361 141.022  0.00  0.00    +0.000 OA
ATOM     45  O   UNL     1     107.822 129.560 142.895  0.00  0.00    +0.000 OA
ATOM     46  O   UNL     1     109.540 130.523 143.243  0.00  0.00    +0.000 OA
ATOM     47  C   UNL     1     108.531 130.224 140.434  0.00  0.00    +0.000 C 
ATOM     48  C   UNL     1     108.009 129.843 141.196  0.00  0.00    +0.000 C 
ATOM     49  C   UNL     1     108.345 129.942 142.132  0.00  0.00    +0.000 C 
ATOM     50  C   UNL     1     109.204 130.423 142.307  0.00  0.00    +0.000 C 
ATOM     51  C   UNL     1     109.727 130.805 141.545  0.00  0.00    +0.000 C 
BRANCH  51  53
ATOM     52  O   UNL     1     111.085 131.709 140.962  0.00  0.00    +0.000 OA
ATOM     53  C   UNL     1     110.586 131.286 141.719  0.00  0.00    +0.000 C 
ENDBRANCH  51  53
ENDBRANCH  42  47
ENDBRANCH  36  42
ENDBRANCH  32  39
ENDBRANCH  31  32
ENDBRANCH   5  31
TORSDOF 9
ENDMDL
MODEL 5
REMARK VINA RESULT:     -10.2      1.397      2.892
REMARK  Name = 44258818
REMARK  9 active torsions:
REMARK  status: ('A' for Active; 'I' for Inactive)
REMARK    1  A    between atoms: O_1  and  C_21
REMARK    2  A    between atoms: O_1  and  C_26
REMARK    3  A    between atoms: O_4  and  C_24
REMARK    4  A    between atoms: O_4  and  C_34
REMARK    5  A    between atoms: O_13  and  C_36
REMARK    6  A    between atoms: O_13  and  C_39
REMARK    7  A    between atoms: C_30  and  C_34
REMARK    8  A    between atoms: C_31  and  C_38
REMARK    9  A    between atoms: C_40  and  C_43
REMARK                            x       y       z     vdW  Elec       q    Type
REMARK                         _______ _______ _______ _____ _____    ______ ____
ROOT
ATOM      1  O   UNL     1     110.792 129.080 137.037  0.00  0.00    +0.000 OA
ATOM      2  O   UNL     1     108.679 130.522 137.711  0.00  0.00    +0.000 OA
ATOM      3  O   UNL     1     108.674 130.750 135.724  0.00  0.00    +0.000 OA
ATOM      4  O   UNL     1     110.081 129.865 134.612  0.00  0.00    +0.000 OA
ATOM      5  C   UNL     1     110.088 129.523 137.593  0.00  0.00    +0.000 C 
ATOM      6  C   UNL     1     109.382 130.080 137.155  0.00  0.00    +0.000 C 
ATOM      7  C   UNL     1     109.380 130.194 136.162  0.00  0.00    +0.000 C 
ATOM      8  C   UNL     1     110.083 129.751 135.606  0.00  0.00    +0.000 C 
ATOM      9  C   UNL     1     110.789 129.194 136.044  0.00  0.00    +0.000 C 
ENDROOT
BRANCH   9  10
ATOM     10  O   UNL     1     111.493 128.751 135.488  0.00  0.00    +0.000 OA
BRANCH  10  15
ATOM     11  O   UNL     1     113.343 127.085 136.381  0.00  0.00    +0.000 OA
ATOM     12  O   UNL     1     110.435 127.062 135.648  0.00  0.00    +0.000 OA
ATOM     13  O   UNL     1     110.311 125.364 136.049  0.00  0.00    +0.000 OA
ATOM     14  O   UNL     1     113.186 123.658 137.213  0.00  0.00    +0.000 OA
ATOM     15  C   UNL     1     111.933 127.914 135.812  0.00  0.00    +0.000 A 
ATOM     16  C   UNL     1     112.903 127.922 136.057  0.00  0.00    +0.000 A 
ATOM     17  C   UNL     1     111.404 127.069 135.893  0.00  0.00    +0.000 A 
ATOM     18  C   UNL     1     111.845 126.233 136.217  0.00  0.00    +0.000 A 
ATOM     19  C   UNL     1     112.814 126.240 136.462  0.00  0.00    +0.000 A 
ATOM     20  C   UNL     1     111.280 125.360 136.296  0.00  0.00    +0.000 A 
ATOM     21  C   UNL     1     113.287 125.376 136.802  0.00  0.00    +0.000 A 
ATOM     22  C   UNL     1     111.732 124.485 136.633  0.00  0.00    +0.000 A 
ATOM     23  C   UNL     1     112.742 124.493 136.888  0.00  0.00    +0.000 A 
BRANCH  16  25
ATOM     24  O   UNL     1     115.020 131.301 135.735  0.00  0.00    +0.000 OA
ATOM     25  C   UNL     1     113.432 128.767 135.976  0.00  0.00    +0.000 A 
ATOM     26  C   UNL     1     113.759 129.069 135.081  0.00  0.00    +0.000 A 
ATOM     27  C   UNL     1     113.635 129.309 136.792  0.00  0.00    +0.000 A 
ATOM     28  C   UNL     1     114.288 129.913 135.001  0.00  0.00    +0.000 A 
ATOM     29  C   UNL     1     114.164 130.154 136.711  0.00  0.00    +0.000 A 
ATOM     30  C   UNL     1     114.491 130.456 135.816  0.00  0.00    +0.000 A 
ENDBRANCH  16  25
ENDBRANCH  10  15
ENDBRANCH   9  10
BRANCH   5  31
ATOM     31  C   UNL     1     110.091 129.409 138.586  0.00  0.00    +0.000 C 
BRANCH  31  32
ATOM     32  O   UNL     1     110.089 128.491 138.984  0.00  0.00    +0.000 OA
BRANCH  32  39
ATOM     33  O   UNL     1     110.469 128.982 140.601  0.00  0.00    +0.000 OA
ATOM     34  O   UNL     1     108.909 127.045 139.701  0.00  0.00    +0.000 OA
ATOM     35  O   UNL     1     109.669 128.026 142.935  0.00  0.00    +0.000 OA
ATOM     36  C   UNL     1     109.289 127.536 141.318  0.00  0.00    +0.000 C 
ATOM     37  C   UNL     1     109.394 127.652 140.330  0.00  0.00    +0.000 C 
ATOM     38  C   UNL     1     109.774 128.143 141.947  0.00  0.00    +0.000 C 
ATOM     39  C   UNL     1     109.984 128.375 139.972  0.00  0.00    +0.000 C 
ATOM     40  C   UNL     1     110.364 128.866 141.589  0.00  0.00    +0.000 C 
ATOM     41  C   UNL     1     110.849 129.473 142.218  0.00  0.00    +0.000 C 
BRANCH  36  42
ATOM     42  O   UNL     1     108.698 126.812 141.676  0.00  0.00    +0.000 OA
BRANCH  42  47
ATOM     43  O   UNL     1     107.371 127.922 141.753  0.00  0.00    +0.000 OA
ATOM     44  O   UNL     1     107.469 125.309 142.153  0.00  0.00    +0.000 OA
ATOM     45  O   UNL     1     105.526 125.668 142.468  0.00  0.00    +0.000 OA
ATOM     46  O   UNL     1     104.814 127.529 142.306  0.00  0.00    +0.000 OA
ATOM     47  C   UNL     1     107.727 126.991 141.834  0.00  0.00    +0.000 C 
ATOM     48  C   UNL     1     107.112 126.240 142.072  0.00  0.00    +0.000 C 
ATOM     49  C   UNL     1     106.141 126.419 142.230  0.00  0.00    +0.000 C 
ATOM     50  C   UNL     1     105.785 127.350 142.149  0.00  0.00    +0.000 C 
ATOM     51  C   UNL     1     106.400 128.102 141.910  0.00  0.00    +0.000 C 
BRANCH  51  53
ATOM     52  O   UNL     1     106.531 129.708 141.274  0.00  0.00    +0.000 OA
ATOM     53  C   UNL     1     106.044 129.033 141.829  0.00  0.00    +0.000 C 
ENDBRANCH  51  53
ENDBRANCH  42  47
ENDBRANCH  36  42
ENDBRANCH  32  39
ENDBRANCH  31  32
ENDBRANCH   5  31
TORSDOF 9
ENDMDL
MODEL 6
REMARK VINA RESULT:     -10.2      1.967      6.908
REMARK  Name = 44258818
REMARK  9 active torsions:
REMARK  status: ('A' for Active; 'I' for Inactive)
REMARK    1  A    between atoms: O_1  and  C_21
REMARK    2  A    between atoms: O_1  and  C_26
REMARK    3  A    between atoms: O_4  and  C_24
REMARK    4  A    between atoms: O_4  and  C_34
REMARK    5  A    between atoms: O_13  and  C_36
REMARK    6  A    between atoms: O_13  and  C_39
REMARK    7  A    between atoms: C_30  and  C_34
REMARK    8  A    between atoms: C_31  and  C_38
REMARK    9  A    between atoms: C_40  and  C_43
REMARK                            x       y       z     vdW  Elec       q    Type
REMARK                         _______ _______ _______ _____ _____    ______ ____
ROOT
ATOM      1  O   UNL     1     109.295 129.382 141.803  0.00  0.00    +0.000 OA
ATOM      2  O   UNL     1     106.813 130.180 141.353  0.00  0.00    +0.000 OA
ATOM      3  O   UNL     1     106.561 129.069 142.997  0.00  0.00    +0.000 OA
ATOM      4  O   UNL     1     108.131 128.166 143.844  0.00  0.00    +0.000 OA
ATOM      5  C   UNL     1     108.510 129.833 141.379  0.00  0.00    +0.000 C 
ATOM      6  C   UNL     1     107.599 129.729 141.777  0.00  0.00    +0.000 C 
ATOM      7  C   UNL     1     107.472 129.173 142.599  0.00  0.00    +0.000 C 
ATOM      8  C   UNL     1     108.258 128.722 143.023  0.00  0.00    +0.000 C 
ATOM      9  C   UNL     1     109.169 128.826 142.625  0.00  0.00    +0.000 C 
ENDROOT
BRANCH   9  10
ATOM     10  O   UNL     1     109.954 128.375 143.049  0.00  0.00    +0.000 OA
BRANCH  10  15
ATOM     11  O   UNL     1     112.450 128.592 142.197  0.00  0.00    +0.000 OA
ATOM     12  O   UNL     1     109.970 127.023 141.575  0.00  0.00    +0.000 OA
ATOM     13  O   UNL     1     110.791 126.167 140.290  0.00  0.00    +0.000 OA
ATOM     14  O   UNL     1     114.186 126.914 139.622  0.00  0.00    +0.000 OA
ATOM     15  C   UNL     1     110.789 128.222 142.519  0.00  0.00    +0.000 A 
ATOM     16  C   UNL     1     111.615 128.745 142.727  0.00  0.00    +0.000 A 
ATOM     17  C   UNL     1     110.796 127.546 141.783  0.00  0.00    +0.000 A 
ATOM     18  C   UNL     1     111.631 127.393 141.253  0.00  0.00    +0.000 A 
ATOM     19  C   UNL     1     112.458 127.916 141.461  0.00  0.00    +0.000 A 
ATOM     20  C   UNL     1     111.623 126.685 140.489  0.00  0.00    +0.000 A 
ATOM     21  C   UNL     1     113.335 127.767 140.918  0.00  0.00    +0.000 A 
ATOM     22  C   UNL     1     112.489 126.520 139.933  0.00  0.00    +0.000 A 
ATOM     23  C   UNL     1     113.350 127.065 140.149  0.00  0.00    +0.000 A 
BRANCH  16  25
ATOM     24  O   UNL     1     111.585 131.449 145.674  0.00  0.00    +0.000 OA
ATOM     25  C   UNL     1     111.608 129.421 143.464  0.00  0.00    +0.000 A 
ATOM     26  C   UNL     1     111.604 129.121 144.417  0.00  0.00    +0.000 A 
ATOM     27  C   UNL     1     111.604 130.397 143.246  0.00  0.00    +0.000 A 
ATOM     28  C   UNL     1     111.597 129.797 145.154  0.00  0.00    +0.000 A 
ATOM     29  C   UNL     1     111.596 131.073 143.983  0.00  0.00    +0.000 A 
ATOM     30  C   UNL     1     111.592 130.773 144.937  0.00  0.00    +0.000 A 
ENDBRANCH  16  25
ENDBRANCH  10  15
ENDBRANCH   9  10
BRANCH   5  31
ATOM     31  C   UNL     1     108.636 130.389 140.558  0.00  0.00    +0.000 C 
BRANCH  31  32
ATOM     32  O   UNL     1     109.520 130.822 140.378  0.00  0.00    +0.000 OA
BRANCH  32  39
ATOM     33  O   UNL     1     109.028 131.429 138.832  0.00  0.00    +0.000 OA
ATOM     34  O   UNL     1     111.424 130.808 139.767  0.00  0.00    +0.000 OA
ATOM     35  O   UNL     1     110.441 132.022 136.675  0.00  0.00    +0.000 OA
ATOM     36  C   UNL     1     110.933 131.415 138.221  0.00  0.00    +0.000 C 
ATOM     37  C   UNL     1     110.702 131.115 139.147  0.00  0.00    +0.000 C 
ATOM     38  C   UNL     1     110.211 131.722 137.601  0.00  0.00    +0.000 C 
ATOM     39  C   UNL     1     109.750 131.122 139.452  0.00  0.00    +0.000 C 
ATOM     40  C   UNL     1     109.259 131.729 137.906  0.00  0.00    +0.000 C 
ATOM     41  C   UNL     1     108.537 132.035 137.286  0.00  0.00    +0.000 C 
BRANCH  36  42
ATOM     42  O   UNL     1     111.885 131.408 137.916  0.00  0.00    +0.000 OA
BRANCH  42  47
ATOM     43  O   UNL     1     111.736 129.743 137.462  0.00  0.00    +0.000 OA
ATOM     44  O   UNL     1     113.703 131.471 137.086  0.00  0.00    +0.000 OA
ATOM     45  O   UNL     1     114.463 129.838 136.217  0.00  0.00    +0.000 OA
ATOM     46  O   UNL     1     113.405 128.141 136.179  0.00  0.00    +0.000 OA
ATOM     47  C   UNL     1     112.265 130.591 137.481  0.00  0.00    +0.000 C 
ATOM     48  C   UNL     1     113.174 130.623 137.066  0.00  0.00    +0.000 C 
ATOM     49  C   UNL     1     113.554 129.806 136.632  0.00  0.00    +0.000 C 
ATOM     50  C   UNL     1     113.025 128.958 136.613  0.00  0.00    +0.000 C 
ATOM     51  C   UNL     1     112.116 128.926 137.028  0.00  0.00    +0.000 C 
BRANCH  51  53
ATOM     52  O   UNL     1     110.618 128.087 137.260  0.00  0.00    +0.000 OA
ATOM     53  C   UNL     1     111.586 128.078 137.009  0.00  0.00    +0.000 C 
ENDBRANCH  51  53
ENDBRANCH  42  47
ENDBRANCH  36  42
ENDBRANCH  32  39
ENDBRANCH  31  32
ENDBRANCH   5  31
TORSDOF 9
ENDMDL
MODEL 7
REMARK VINA RESULT:     -10.0      1.843      4.489
REMARK  Name = 44258818
REMARK  9 active torsions:
REMARK  status: ('A' for Active; 'I' for Inactive)
REMARK    1  A    between atoms: O_1  and  C_21
REMARK    2  A    between atoms: O_1  and  C_26
REMARK    3  A    between atoms: O_4  and  C_24
REMARK    4  A    between atoms: O_4  and  C_34
REMARK    5  A    between atoms: O_13  and  C_36
REMARK    6  A    between atoms: O_13  and  C_39
REMARK    7  A    between atoms: C_30  and  C_34
REMARK    8  A    between atoms: C_31  and  C_38
REMARK    9  A    between atoms: C_40  and  C_43
REMARK                            x       y       z     vdW  Elec       q    Type
REMARK                         _______ _______ _______ _____ _____    ______ ____
ROOT
ATOM      1  O   UNL     1     113.348 129.588 136.651  0.00  0.00    +0.000 OA
ATOM      2  O   UNL     1     114.811 128.534 134.715  0.00  0.00    +0.000 OA
ATOM      3  O   UNL     1     115.373 130.450 134.612  0.00  0.00    +0.000 OA
ATOM      4  O   UNL     1     114.585 131.792 135.869  0.00  0.00    +0.000 OA
ATOM      5  C   UNL     1     113.742 128.917 136.023  0.00  0.00    +0.000 C 
ATOM      6  C   UNL     1     114.417 129.205 135.343  0.00  0.00    +0.000 C 
ATOM      7  C   UNL     1     114.698 130.163 135.292  0.00  0.00    +0.000 C 
ATOM      8  C   UNL     1     114.304 130.834 135.920  0.00  0.00    +0.000 C 
ATOM      9  C   UNL     1     113.629 130.546 136.600  0.00  0.00    +0.000 C 
ENDROOT
BRANCH   9  10
ATOM     10  O   UNL     1     113.235 131.217 137.228  0.00  0.00    +0.000 OA
BRANCH  10  15
ATOM     11  O   UNL     1     111.572 130.631 139.201  0.00  0.00    +0.000 OA
ATOM     12  O   UNL     1     114.521 130.638 138.647  0.00  0.00    +0.000 OA
ATOM     13  O   UNL     1     114.860 130.052 140.259  0.00  0.00    +0.000 OA
ATOM     14  O   UNL     1     112.165 129.447 142.473  0.00  0.00    +0.000 OA
ATOM     15  C   UNL     1     112.895 130.925 138.122  0.00  0.00    +0.000 A 
ATOM     16  C   UNL     1     111.912 130.923 138.307  0.00  0.00    +0.000 A 
ATOM     17  C   UNL     1     113.538 130.636 138.832  0.00  0.00    +0.000 A 
ATOM     18  C   UNL     1     113.198 130.344 139.726  0.00  0.00    +0.000 A 
ATOM     19  C   UNL     1     112.215 130.342 139.910  0.00  0.00    +0.000 A 
ATOM     20  C   UNL     1     113.880 130.045 140.454  0.00  0.00    +0.000 A 
ATOM     21  C   UNL     1     111.845 130.041 140.837  0.00  0.00    +0.000 A 
ATOM     22  C   UNL     1     113.533 129.740 141.388  0.00  0.00    +0.000 A 
ATOM     23  C   UNL     1     112.509 129.738 141.580  0.00  0.00    +0.000 A 
BRANCH  16  25
ATOM     24  O   UNL     1     109.342 132.081 135.470  0.00  0.00    +0.000 OA
ATOM     25  C   UNL     1     111.270 131.212 137.598  0.00  0.00    +0.000 A 
ATOM     26  C   UNL     1     110.709 130.534 137.124  0.00  0.00    +0.000 A 
ATOM     27  C   UNL     1     111.188 132.181 137.362  0.00  0.00    +0.000 A 
ATOM     28  C   UNL     1     110.066 130.823 136.415  0.00  0.00    +0.000 A 
ATOM     29  C   UNL     1     110.545 132.470 136.652  0.00  0.00    +0.000 A 
ATOM     30  C   UNL     1     109.984 131.791 136.179  0.00  0.00    +0.000 A 
ENDBRANCH  16  25
ENDBRANCH  10  15
ENDBRANCH   9  10
BRANCH   5  31
ATOM     31  C   UNL     1     113.461 127.959 136.074  0.00  0.00    +0.000 C 
BRANCH  31  32
ATOM     32  O   UNL     1     113.707 127.407 136.871  0.00  0.00    +0.000 OA
BRANCH  32  39
ATOM     33  O   UNL     1     112.769 125.993 136.526  0.00  0.00    +0.000 OA
ATOM     34  O   UNL     1     113.159 127.302 138.792  0.00  0.00    +0.000 OA
ATOM     35  O   UNL     1     111.282 124.474 138.101  0.00  0.00    +0.000 OA
ATOM     36  C   UNL     1     112.221 125.888 138.446  0.00  0.00    +0.000 C 
ATOM     37  C   UNL     1     112.827 126.621 138.139  0.00  0.00    +0.000 C 
ATOM     38  C   UNL     1     111.888 125.207 137.793  0.00  0.00    +0.000 C 
ATOM     39  C   UNL     1     113.101 126.674 137.179  0.00  0.00    +0.000 C 
ATOM     40  C   UNL     1     112.163 125.260 136.833  0.00  0.00    +0.000 C 
ATOM     41  C   UNL     1     111.830 124.579 136.180  0.00  0.00    +0.000 C 
BRANCH  36  42
ATOM     42  O   UNL     1     111.946 125.835 139.406  0.00  0.00    +0.000 OA
BRANCH  42  47
ATOM     43  O   UNL     1     110.549 126.802 139.071  0.00  0.00    +0.000 OA
ATOM     44  O   UNL     1     111.561 125.958 141.365  0.00  0.00    +0.000 OA
ATOM     45  O   UNL     1     109.971 126.985 142.009  0.00  0.00    +0.000 OA
ATOM     46  O   UNL     1     108.766 127.891 140.694  0.00  0.00    +0.000 OA
ATOM     47  C   UNL     1     111.151 126.349 139.728  0.00  0.00    +0.000 C 
ATOM     48  C   UNL     1     110.959 126.410 140.708  0.00  0.00    +0.000 C 
ATOM     49  C   UNL     1     110.163 126.924 141.030  0.00  0.00    +0.000 C 
ATOM     50  C   UNL     1     109.561 127.377 140.372  0.00  0.00    +0.000 C 
ATOM     51  C   UNL     1     109.754 127.316 139.393  0.00  0.00    +0.000 C 
BRANCH  51  53
ATOM     52  O   UNL     1     109.184 127.513 137.769  0.00  0.00    +0.000 OA
ATOM     53  C   UNL     1     109.151 127.768 138.735  0.00  0.00    +0.000 C 
ENDBRANCH  51  53
ENDBRANCH  42  47
ENDBRANCH  36  42
ENDBRANCH  32  39
ENDBRANCH  31  32
ENDBRANCH   5  31
TORSDOF 9
ENDMDL
MODEL 8
REMARK VINA RESULT:     -10.0      1.577      3.474
REMARK  Name = 44258818
REMARK  9 active torsions:
REMARK  status: ('A' for Active; 'I' for Inactive)
REMARK    1  A    between atoms: O_1  and  C_21
REMARK    2  A    between atoms: O_1  and  C_26
REMARK    3  A    between atoms: O_4  and  C_24
REMARK    4  A    between atoms: O_4  and  C_34
REMARK    5  A    between atoms: O_13  and  C_36
REMARK    6  A    between atoms: O_13  and  C_39
REMARK    7  A    between atoms: C_30  and  C_34
REMARK    8  A    between atoms: C_31  and  C_38
REMARK    9  A    between atoms: C_40  and  C_43
REMARK                            x       y       z     vdW  Elec       q    Type
REMARK                         _______ _______ _______ _____ _____    ______ ____
ROOT
ATOM      1  O   UNL     1     113.086 129.202 136.916  0.00  0.00    +0.000 OA
ATOM      2  O   UNL     1     114.543 131.368 137.349  0.00  0.00    +0.000 OA
ATOM      3  O   UNL     1     115.485 130.589 135.766  0.00  0.00    +0.000 OA
ATOM      4  O   UNL     1     114.827 128.886 134.949  0.00  0.00    +0.000 OA
ATOM      5  C   UNL     1     113.415 130.054 137.324  0.00  0.00    +0.000 C 
ATOM      6  C   UNL     1     114.214 130.516 136.941  0.00  0.00    +0.000 C 
ATOM      7  C   UNL     1     114.685 130.127 136.149  0.00  0.00    +0.000 C 
ATOM      8  C   UNL     1     114.356 129.275 135.741  0.00  0.00    +0.000 C 
ATOM      9  C   UNL     1     113.557 128.813 136.124  0.00  0.00    +0.000 C 
ENDROOT
BRANCH   9  10
ATOM     10  O   UNL     1     113.228 127.961 135.716  0.00  0.00    +0.000 OA
BRANCH  10  15
ATOM     11  O   UNL     1     111.202 126.498 136.582  0.00  0.00    +0.000 OA
ATOM     12  O   UNL     1     111.677 129.024 135.035  0.00  0.00    +0.000 OA
ATOM     13  O   UNL     1     109.956 129.276 134.850  0.00  0.00    +0.000 OA
ATOM     14  O   UNL     1     107.713 126.927 136.258  0.00  0.00    +0.000 OA
ATOM     15  C   UNL     1     112.294 127.651 135.891  0.00  0.00    +0.000 A 
ATOM     16  C   UNL     1     112.136 126.809 136.407  0.00  0.00    +0.000 A 
ATOM     17  C   UNL     1     111.518 128.182 135.551  0.00  0.00    +0.000 A 
ATOM     18  C   UNL     1     110.584 127.871 135.726  0.00  0.00    +0.000 A 
ATOM     19  C   UNL     1     110.426 127.029 136.242  0.00  0.00    +0.000 A 
ATOM     20  C   UNL     1     109.786 128.435 135.365  0.00  0.00    +0.000 A 
ATOM     21  C   UNL     1     109.458 126.693 136.433  0.00  0.00    +0.000 A 
ATOM     22  C   UNL     1     108.810 128.118 135.543  0.00  0.00    +0.000 A 
ATOM     23  C   UNL     1     108.645 127.241 136.081  0.00  0.00    +0.000 A 
BRANCH  16  25
ATOM     24  O   UNL     1     115.239 124.684 137.769  0.00  0.00    +0.000 OA
ATOM     25  C   UNL     1     112.912 126.278 136.748  0.00  0.00    +0.000 A 
ATOM     26  C   UNL     1     113.432 125.695 136.123  0.00  0.00    +0.000 A 
ATOM     27  C   UNL     1     113.167 126.329 137.713  0.00  0.00    +0.000 A 
ATOM     28  C   UNL     1     114.207 125.164 136.463  0.00  0.00    +0.000 A 
ATOM     29  C   UNL     1     113.943 125.798 138.054  0.00  0.00    +0.000 A 
ATOM     30  C   UNL     1     114.463 125.215 137.429  0.00  0.00    +0.000 A 
ENDBRANCH  16  25
ENDBRANCH  10  15
ENDBRANCH   9  10
BRANCH   5  31
ATOM     31  C   UNL     1     112.944 130.443 138.116  0.00  0.00    +0.000 C 
BRANCH  31  32
ATOM     32  O   UNL     1     112.402 129.853 138.715  0.00  0.00    +0.000 OA
BRANCH  32  39
ATOM     33  O   UNL     1     110.973 130.768 138.366  0.00  0.00    +0.000 OA
ATOM     34  O   UNL     1     111.281 128.413 139.532  0.00  0.00    +0.000 OA
ATOM     35  O   UNL     1     108.423 130.242 138.835  0.00  0.00    +0.000 OA
ATOM     36  C   UNL     1     109.852 129.328 139.184  0.00  0.00    +0.000 C 
ATOM     37  C   UNL     1     110.846 129.230 139.154  0.00  0.00    +0.000 C 
ATOM     38  C   UNL     1     109.417 130.145 138.805  0.00  0.00    +0.000 C 
ATOM     39  C   UNL     1     111.407 129.951 138.745  0.00  0.00    +0.000 C 
ATOM     40  C   UNL     1     109.978 130.865 138.396  0.00  0.00    +0.000 C 
ATOM     41  C   UNL     1     109.544 131.683 138.018  0.00  0.00    +0.000 C 
BRANCH  36  42
ATOM     42  O   UNL     1     109.291 128.607 139.592  0.00  0.00    +0.000 OA
BRANCH  42  47
ATOM     43  O   UNL     1     109.352 129.398 141.132  0.00  0.00    +0.000 OA
ATOM     44  O   UNL     1     108.568 126.960 140.467  0.00  0.00    +0.000 OA
ATOM     45  O   UNL     1     108.268 126.927 142.444  0.00  0.00    +0.000 OA
ATOM     46  O   UNL     1     108.690 128.542 143.546  0.00  0.00    +0.000 OA
ATOM     47  C   UNL     1     109.141 128.591 140.581  0.00  0.00    +0.000 C 
ATOM     48  C   UNL     1     108.779 127.767 141.018  0.00  0.00    +0.000 C 
ATOM     49  C   UNL     1     108.629 127.751 142.006  0.00  0.00    +0.000 C 
ATOM     50  C   UNL     1     108.840 128.558 142.558  0.00  0.00    +0.000 C 
ATOM     51  C   UNL     1     109.202 129.382 142.120  0.00  0.00    +0.000 C 
BRANCH  51  53
ATOM     52  O   UNL     1     109.562 131.072 142.228  0.00  0.00    +0.000 OA
ATOM     53  C   UNL     1     109.413 130.189 142.672  0.00  0.00    +0.000 C 
ENDBRANCH  51  53
ENDBRANCH  42  47
ENDBRANCH  36  42
ENDBRANCH  32  39
ENDBRANCH  31  32
ENDBRANCH   5  31
TORSDOF 9
ENDMDL
MODEL 9
REMARK VINA RESULT:     -10.0      1.629      4.246
REMARK  Name = 44258818
REMARK  9 active torsions:
REMARK  status: ('A' for Active; 'I' for Inactive)
REMARK    1  A    between atoms: O_1  and  C_21
REMARK    2  A    between atoms: O_1  and  C_26
REMARK    3  A    between atoms: O_4  and  C_24
REMARK    4  A    between atoms: O_4  and  C_34
REMARK    5  A    between atoms: O_13  and  C_36
REMARK    6  A    between atoms: O_13  and  C_39
REMARK    7  A    between atoms: C_30  and  C_34
REMARK    8  A    between atoms: C_31  and  C_38
REMARK    9  A    between atoms: C_40  and  C_43
REMARK                            x       y       z     vdW  Elec       q    Type
REMARK                         _______ _______ _______ _____ _____    ______ ____
ROOT
ATOM      1  O   UNL     1     112.525 127.228 137.562  0.00  0.00    +0.000 OA
ATOM      2  O   UNL     1     113.492 124.776 137.791  0.00  0.00    +0.000 OA
ATOM      3  O   UNL     1     114.707 125.532 136.395  0.00  0.00    +0.000 OA
ATOM      4  O   UNL     1     114.468 127.419 135.777  0.00  0.00    +0.000 OA
ATOM      5  C   UNL     1     112.645 126.284 137.871  0.00  0.00    +0.000 C 
ATOM      6  C   UNL     1     113.372 125.719 137.482  0.00  0.00    +0.000 C 
ATOM      7  C   UNL     1     113.980 126.097 136.784  0.00  0.00    +0.000 C 
ATOM      8  C   UNL     1     113.860 127.041 136.475  0.00  0.00    +0.000 C 
ATOM      9  C   UNL     1     113.133 127.606 136.864  0.00  0.00    +0.000 C 
ENDROOT
BRANCH   9  10
ATOM     10  O   UNL     1     113.013 128.550 136.555  0.00  0.00    +0.000 OA
BRANCH  10  15
ATOM     11  O   UNL     1     111.014 130.131 137.263  0.00  0.00    +0.000 OA
ATOM     12  O   UNL     1     111.581 127.932 135.303  0.00  0.00    +0.000 OA
ATOM     13  O   UNL     1     109.951 128.022 134.676  0.00  0.00    +0.000 OA
ATOM     14  O   UNL     1     107.705 130.383 136.059  0.00  0.00    +0.000 OA
ATOM     15  C   UNL     1     112.108 128.974 136.582  0.00  0.00    +0.000 A 
ATOM     16  C   UNL     1     111.919 129.707 137.236  0.00  0.00    +0.000 A 
ATOM     17  C   UNL     1     111.392 128.665 135.957  0.00  0.00    +0.000 A 
ATOM     18  C   UNL     1     110.487 129.089 135.984  0.00  0.00    +0.000 A 
ATOM     19  C   UNL     1     110.298 129.822 136.637  0.00  0.00    +0.000 A 
ATOM     20  C   UNL     1     109.751 128.756 135.325  0.00  0.00    +0.000 A 
ATOM     21  C   UNL     1     109.360 130.274 136.678  0.00  0.00    +0.000 A 
ATOM     22  C   UNL     1     108.806 129.193 135.348  0.00  0.00    +0.000 A 
ATOM     23  C   UNL     1     108.609 129.957 136.029  0.00  0.00    +0.000 A 
BRANCH  16  25
ATOM     24  O   UNL     1     114.783 130.943 139.739  0.00  0.00    +0.000 OA
ATOM     25  C   UNL     1     112.635 130.016 137.862  0.00  0.00    +0.000 A 
ATOM     26  C   UNL     1     113.410 130.544 137.513  0.00  0.00    +0.000 A 
ATOM     27  C   UNL     1     112.576 129.797 138.836  0.00  0.00    +0.000 A 
ATOM     28  C   UNL     1     114.126 130.853 138.139  0.00  0.00    +0.000 A 
ATOM     29  C   UNL     1     113.292 130.106 139.462  0.00  0.00    +0.000 A 
ATOM     30  C   UNL     1     114.067 130.634 139.113  0.00  0.00    +0.000 A 
ENDBRANCH  16  25
ENDBRANCH  10  15
ENDBRANCH   9  10
BRANCH   5  31
ATOM     31  C   UNL     1     112.037 125.906 138.570  0.00  0.00    +0.000 C 
BRANCH  31  32
ATOM     32  O   UNL     1     112.175 126.140 139.532  0.00  0.00    +0.000 OA
BRANCH  32  39
ATOM     33  O   UNL     1     110.500 125.882 139.893  0.00  0.00    +0.000 OA
ATOM     34  O   UNL     1     112.367 127.226 141.200  0.00  0.00    +0.000 OA
ATOM     35  O   UNL     1     109.019 126.711 141.923  0.00  0.00    +0.000 OA
ATOM     36  C   UNL     1     110.693 126.968 141.562  0.00  0.00    +0.000 C 
ATOM     37  C   UNL     1     111.482 126.826 140.964  0.00  0.00    +0.000 C 
ATOM     38  C   UNL     1     109.808 126.568 141.325  0.00  0.00    +0.000 C 
ATOM     39  C   UNL     1     111.386 126.283 140.130  0.00  0.00    +0.000 C 
ATOM     40  C   UNL     1     109.711 126.025 140.491  0.00  0.00    +0.000 C 
ATOM     41  C   UNL     1     108.826 125.625 140.254  0.00  0.00    +0.000 C 
BRANCH  36  42
ATOM     42  O   UNL     1     110.789 127.511 142.396  0.00  0.00    +0.000 OA
BRANCH  42  47
ATOM     43  O   UNL     1     110.207 128.936 141.601  0.00  0.00    +0.000 OA
ATOM     44  O   UNL     1     111.597 128.644 143.833  0.00  0.00    +0.000 OA
ATOM     45  O   UNL     1     111.418 130.634 143.756  0.00  0.00    +0.000 OA
ATOM     46  O   UNL     1     110.432 131.492 142.243  0.00  0.00    +0.000 OA
ATOM     47  C   UNL     1     110.700 128.507 142.357  0.00  0.00    +0.000 C 
ATOM     48  C   UNL     1     111.104 129.073 143.076  0.00  0.00    +0.000 C 
ATOM     49  C   UNL     1     111.015 130.068 143.038  0.00  0.00    +0.000 C 
ATOM     50  C   UNL     1     110.521 130.497 142.281  0.00  0.00    +0.000 C 
ATOM     51  C   UNL     1     110.118 129.931 141.563  0.00  0.00    +0.000 C 
BRANCH  51  53
ATOM     52  O   UNL     1     109.244 129.796 140.073  0.00  0.00    +0.000 OA
ATOM     53  C   UNL     1     109.624 130.360 140.806  0.00  0.00    +0.000 C 
ENDBRANCH  51  53
ENDBRANCH  42  47
ENDBRANCH  36  42
ENDBRANCH  32  39
ENDBRANCH  31  32
ENDBRANCH   5  31
TORSDOF 9
ENDMDL
MODEL 10
REMARK VINA RESULT:     -10.0      2.359      4.263
REMARK  Name = 44258818
REMARK  9 active torsions:
REMARK  status: ('A' for Active; 'I' for Inactive)
REMARK    1  A    between atoms: O_1  and  C_21
REMARK    2  A    between atoms: O_1  and  C_26
REMARK    3  A    between atoms: O_4  and  C_24
REMARK    4  A    between atoms: O_4  and  C_34
REMARK    5  A    between atoms: O_13  and  C_36
REMARK    6  A    between atoms: O_13  and  C_39
REMARK    7  A    between atoms: C_30  and  C_34
REMARK    8  A    between atoms: C_31  and  C_38
REMARK    9  A    between atoms: C_40  and  C_43
REMARK                            x       y       z     vdW  Elec       q    Type
REMARK                         _______ _______ _______ _____ _____    ______ ____
ROOT
ATOM      1  O   UNL     1     110.640 130.574 137.601  0.00  0.00    +0.000 OA
ATOM      2  O   UNL     1     109.171 132.685 136.980  0.00  0.00    +0.000 OA
ATOM      3  O   UNL     1     109.353 131.811 135.190  0.00  0.00    +0.000 OA
ATOM      4  O   UNL     1     110.393 130.112 135.008  0.00  0.00    +0.000 OA
ATOM      5  C   UNL     1     110.120 131.424 137.692  0.00  0.00    +0.000 C 
ATOM      6  C   UNL     1     109.691 131.836 136.889  0.00  0.00    +0.000 C 
ATOM      7  C   UNL     1     109.782 131.399 135.994  0.00  0.00    +0.000 C 
ATOM      8  C   UNL     1     110.302 130.550 135.903  0.00  0.00    +0.000 C 
ATOM      9  C   UNL     1     110.731 130.137 136.706  0.00  0.00    +0.000 C 
ENDROOT
BRANCH   9  10
ATOM     10  O   UNL     1     111.251 129.288 136.615  0.00  0.00    +0.000 OA
BRANCH  10  15
ATOM     11  O   UNL     1     112.702 128.196 138.540  0.00  0.00    +0.000 OA
ATOM     12  O   UNL     1     109.838 128.326 137.654  0.00  0.00    +0.000 OA
ATOM     13  O   UNL     1     109.343 127.313 138.990  0.00  0.00    +0.000 OA
ATOM     14  O   UNL     1     111.791 126.147 141.266  0.00  0.00    +0.000 OA
ATOM     15  C   UNL     1     111.499 128.764 137.430  0.00  0.00    +0.000 A 
ATOM     16  C   UNL     1     112.454 128.721 137.725  0.00  0.00    +0.000 A 
ATOM     17  C   UNL     1     110.793 128.283 137.949  0.00  0.00    +0.000 A 
ATOM     18  C   UNL     1     111.041 127.759 138.764  0.00  0.00    +0.000 A 
ATOM     19  C   UNL     1     111.996 127.715 139.059  0.00  0.00    +0.000 A 
ATOM     20  C   UNL     1     110.294 127.263 139.295  0.00  0.00    +0.000 A 
ATOM     21  C   UNL     1     112.270 127.174 139.906  0.00  0.00    +0.000 A 
ATOM     22  C   UNL     1     110.545 126.715 140.144  0.00  0.00    +0.000 A 
ATOM     23  C   UNL     1     111.540 126.670 140.452  0.00  0.00    +0.000 A 
BRANCH  16  25
ATOM     24  O   UNL     1     115.279 130.645 135.647  0.00  0.00    +0.000 OA
ATOM     25  C   UNL     1     113.160 129.202 137.206  0.00  0.00    +0.000 A 
ATOM     26  C   UNL     1     113.475 128.834 136.331  0.00  0.00    +0.000 A 
ATOM     27  C   UNL     1     113.551 130.051 137.561  0.00  0.00    +0.000 A 
ATOM     28  C   UNL     1     114.182 129.314 135.812  0.00  0.00    +0.000 A 
ATOM     29  C   UNL     1     114.257 130.532 137.042  0.00  0.00    +0.000 A 
ATOM     30  C   UNL     1     114.572 130.164 136.167  0.00  0.00    +0.000 A 
ENDBRANCH  16  25
ENDBRANCH  10  15
ENDBRANCH   9  10
BRANCH   5  31
ATOM     31  C   UNL     1     110.030 131.861 138.587  0.00  0.00    +0.000 C 
BRANCH  31  32
ATOM     32  O   UNL     1     110.614 131.573 139.346  0.00  0.00    +0.000 OA
BRANCH  32  39
ATOM     33  O   UNL     1     109.223 131.124 140.274  0.00  0.00    +0.000 OA
ATOM     34  O   UNL     1     111.795 130.643 140.665  0.00  0.00    +0.000 OA
ATOM     35  O   UNL     1     109.013 129.744 142.522  0.00  0.00    +0.000 OA
ATOM     36  C   UNL     1     110.404 130.194 141.593  0.00  0.00    +0.000 C 
ATOM     37  C   UNL     1     110.804 130.651 140.799  0.00  0.00    +0.000 C 
ATOM     38  C   UNL     1     109.413 130.201 141.728  0.00  0.00    +0.000 C 
ATOM     39  C   UNL     1     110.214 131.116 140.140  0.00  0.00    +0.000 C 
ATOM     40  C   UNL     1     108.823 130.666 141.068  0.00  0.00    +0.000 C 
ATOM     41  C   UNL     1     107.832 130.674 141.203  0.00  0.00    +0.000 C 
BRANCH  36  42
ATOM     42  O   UNL     1     110.995 129.729 142.253  0.00  0.00    +0.000 OA
BRANCH  42  47
ATOM     43  O   UNL     1     111.328 131.194 143.114  0.00  0.00    +0.000 OA
ATOM     44  O   UNL     1     111.437 128.667 143.889  0.00  0.00    +0.000 OA
ATOM     45  O   UNL     1     111.992 129.603 145.568  0.00  0.00    +0.000 OA
ATOM     46  O   UNL     1     112.104 131.599 145.610  0.00  0.00    +0.000 OA
ATOM     47  C   UNL     1     111.272 130.196 143.092  0.00  0.00    +0.000 C 
ATOM     48  C   UNL     1     111.493 129.666 143.911  0.00  0.00    +0.000 C 
ATOM     49  C   UNL     1     111.770 130.133 144.750  0.00  0.00    +0.000 C 
ATOM     50  C   UNL     1     111.826 131.131 144.771  0.00  0.00    +0.000 C 
ATOM     51  C   UNL     1     111.605 131.662 143.953  0.00  0.00    +0.000 C 
BRANCH  51  53
ATOM     52  O   UNL     1     111.740 133.175 143.120  0.00  0.00    +0.000 OA
ATOM     53  C   UNL     1     111.661 132.660 143.974  0.00  0.00    +0.000 C 
ENDBRANCH  51  53
ENDBRANCH  42  47
ENDBRANCH  36  42
ENDBRANCH  32  39
ENDBRANCH  31  32
ENDBRANCH   5  31
TORSDOF 9
ENDMDL
