MODEL 1
REMARK VINA RESULT:      -8.4      0.000      0.000
REMARK  Name = 13942680
REMARK  4 active torsions:
REMARK  status: ('A' for Active; 'I' for Inactive)
REMARK    1  A    between atoms: O_2  and  C_14
REMARK    2  A    between atoms: O_3  and  C_18
REMARK    3  A    between atoms: O_4  and  C_19
REMARK    4  A    between atoms: C_11  and  C_13
REMARK                            x       y       z     vdW  Elec       q    Type
REMARK                         _______ _______ _______ _____ _____    ______ ____
ROOT
ATOM      1  O   UNL     1     104.918 124.100 147.035  0.00  0.00    +0.000 OA
ATOM      2  O   UNL     1     102.157 124.910 147.303  0.00  0.00    +0.000 OA
ATOM      3  O   UNL     1     103.177 125.440 148.174  0.00  0.00    +0.000 OA
ATOM      4  O   UNL     1     102.914 122.987 145.238  0.00  0.00    +0.000 OA
ATOM      5  C   UNL     1     103.553 124.500 147.166  0.00  0.00    +0.000 A 
ATOM      6  C   UNL     1     105.123 124.594 147.663  0.00  0.00    +0.000 A 
ATOM      7  C   UNL     1     104.133 124.053 146.786  0.00  0.00    +0.000 A 
ATOM      8  C   UNL     1     104.543 125.041 148.043  0.00  0.00    +0.000 A 
ATOM      9  C   UNL     1     103.757 124.993 147.794  0.00  0.00    +0.000 A 
ATOM     10  C   UNL     1     102.731 124.459 146.917  0.00  0.00    +0.000 A 
ATOM     11  C   UNL     1     103.932 123.535 146.130  0.00  0.00    +0.000 A 
ATOM     12  C   UNL     1     102.511 123.947 146.263  0.00  0.00    +0.000 A 
ATOM     13  C   UNL     1     103.116 123.482 145.867  0.00  0.00    +0.000 A 
ENDROOT
BRANCH   6  16
ATOM     14  O   UNL     1     107.166 123.938 149.551  0.00  0.00    +0.000 OA
ATOM     15  O   UNL     1     108.265 124.784 148.657  0.00  0.00    +0.000 OA
ATOM     16  C   UNL     1     105.908 124.641 147.911  0.00  0.00    +0.000 A 
ATOM     17  C   UNL     1     106.457 125.064 147.464  0.00  0.00    +0.000 A 
ATOM     18  C   UNL     1     106.145 124.266 148.607  0.00  0.00    +0.000 A 
ATOM     19  C   UNL     1     107.243 125.112 147.713  0.00  0.00    +0.000 A 
ATOM     20  C   UNL     1     106.929 124.314 148.856  0.00  0.00    +0.000 A 
ATOM     21  C   UNL     1     107.479 124.737 148.408  0.00  0.00    +0.000 A 
BRANCH  17  22
ATOM     22  O   UNL     1     106.222 125.440 146.768  0.00  0.00    +0.000 OA
ATOM     23  C   UNL     1     106.774 125.851 146.314  0.00  0.00    +0.000 C 
ENDBRANCH  17  22
ENDBRANCH   6  16
BRANCH   8  24
ATOM     24  O   UNL     1     104.747 125.534 148.671  0.00  0.00    +0.000 OA
ATOM     25  C   UNL     1     104.158 125.912 149.109  0.00  0.00    +0.000 C 
ENDBRANCH   8  24
BRANCH  12  26
ATOM     26  O   UNL     1     101.725 123.902 146.017  0.00  0.00    +0.000 OA
ATOM     27  C   UNL     1     101.254 123.268 146.256  0.00  0.00    +0.000 C 
ENDBRANCH  12  26
TORSDOF 4
ENDMDL
MODEL 2
REMARK VINA RESULT:      -8.0      1.365      2.858
REMARK  Name = 13942680
REMARK  4 active torsions:
REMARK  status: ('A' for Active; 'I' for Inactive)
REMARK    1  A    between atoms: O_2  and  C_14
REMARK    2  A    between atoms: O_3  and  C_18
REMARK    3  A    between atoms: O_4  and  C_19
REMARK    4  A    between atoms: C_11  and  C_13
REMARK                            x       y       z     vdW  Elec       q    Type
REMARK                         _______ _______ _______ _____ _____    ______ ____
ROOT
ATOM      1  O   UNL     1     103.674 124.888 147.067  0.00  0.00    +0.000 OA
ATOM      2  O   UNL     1     101.710 122.774 146.904  0.00  0.00    +0.000 OA
ATOM      3  O   UNL     1     102.909 122.740 146.104  0.00  0.00    +0.000 OA
ATOM      4  O   UNL     1     101.276 125.025 148.714  0.00  0.00    +0.000 OA
ATOM      5  C   UNL     1     102.702 123.844 146.988  0.00  0.00    +0.000 A 
ATOM      6  C   UNL     1     104.137 124.501 146.504  0.00  0.00    +0.000 A 
ATOM      7  C   UNL     1     102.957 124.560 147.309  0.00  0.00    +0.000 A 
ATOM      8  C   UNL     1     103.882 123.785 146.183  0.00  0.00    +0.000 A 
ATOM      9  C   UNL     1     103.164 123.456 146.425  0.00  0.00    +0.000 A 
ATOM     10  C   UNL     1     101.957 123.491 147.231  0.00  0.00    +0.000 A 
ATOM     11  C   UNL     1     102.484 124.973 147.896  0.00  0.00    +0.000 A 
ATOM     12  C   UNL     1     101.471 123.890 147.817  0.00  0.00    +0.000 A 
ATOM     13  C   UNL     1     101.737 124.636 148.151  0.00  0.00    +0.000 A 
ENDROOT
BRANCH   6  16
ATOM     14  O   UNL     1     105.683 125.908 144.555  0.00  0.00    +0.000 OA
ATOM     15  O   UNL     1     107.006 125.814 145.538  0.00  0.00    +0.000 OA
ATOM     16  C   UNL     1     104.853 124.829 146.263  0.00  0.00    +0.000 A 
ATOM     17  C   UNL     1     105.514 124.782 146.754  0.00  0.00    +0.000 A 
ATOM     18  C   UNL     1     104.910 125.204 145.530  0.00  0.00    +0.000 A 
ATOM     19  C   UNL     1     106.232 125.111 146.512  0.00  0.00    +0.000 A 
ATOM     20  C   UNL     1     105.626 125.532 145.288  0.00  0.00    +0.000 A 
ATOM     21  C   UNL     1     106.288 125.486 145.779  0.00  0.00    +0.000 A 
BRANCH  17  22
ATOM     22  O   UNL     1     105.459 124.407 147.486  0.00  0.00    +0.000 OA
ATOM     23  C   UNL     1     106.069 124.483 148.035  0.00  0.00    +0.000 C 
ENDBRANCH  17  22
ENDBRANCH   6  16
BRANCH   8  24
ATOM     24  O   UNL     1     104.343 123.397 145.620  0.00  0.00    +0.000 OA
ATOM     25  C   UNL     1     104.003 122.833 145.124  0.00  0.00    +0.000 C 
ENDBRANCH   8  24
BRANCH  12  26
ATOM     26  O   UNL     1     100.754 123.559 148.057  0.00  0.00    +0.000 OA
ATOM     27  C   UNL     1     100.715 123.122 148.756  0.00  0.00    +0.000 C 
ENDBRANCH  12  26
TORSDOF 4
ENDMDL
MODEL 3
REMARK VINA RESULT:      -7.8      7.351      8.839
REMARK  Name = 13942680
REMARK  4 active torsions:
REMARK  status: ('A' for Active; 'I' for Inactive)
REMARK    1  A    between atoms: O_2  and  C_14
REMARK    2  A    between atoms: O_3  and  C_18
REMARK    3  A    between atoms: O_4  and  C_19
REMARK    4  A    between atoms: C_11  and  C_13
REMARK                            x       y       z     vdW  Elec       q    Type
REMARK                         _______ _______ _______ _____ _____    ______ ____
ROOT
ATOM      1  O   UNL     1     103.627 129.990 142.258  0.00  0.00    +0.000 OA
ATOM      2  O   UNL     1     104.407 127.545 140.930  0.00  0.00    +0.000 OA
ATOM      3  O   UNL     1     103.519 128.487 140.295  0.00  0.00    +0.000 OA
ATOM      4  O   UNL     1     105.424 128.135 143.604  0.00  0.00    +0.000 OA
ATOM      5  C   UNL     1     104.014 128.781 141.603  0.00  0.00    +0.000 A 
ATOM      6  C   UNL     1     103.168 130.198 141.605  0.00  0.00    +0.000 A 
ATOM      7  C   UNL     1     104.050 129.282 142.258  0.00  0.00    +0.000 A 
ATOM      8  C   UNL     1     103.132 129.697 140.950  0.00  0.00    +0.000 A 
ATOM      9  C   UNL     1     103.555 128.988 140.949  0.00  0.00    +0.000 A 
ATOM     10  C   UNL     1     104.449 128.039 141.589  0.00  0.00    +0.000 A 
ATOM     11  C   UNL     1     104.524 129.077 142.944  0.00  0.00    +0.000 A 
ATOM     12  C   UNL     1     104.929 127.818 142.267  0.00  0.00    +0.000 A 
ATOM     13  C   UNL     1     104.966 128.340 142.949  0.00  0.00    +0.000 A 
ENDROOT
BRANCH   6  16
ATOM     14  O   UNL     1     100.710 131.614 141.956  0.00  0.00    +0.000 OA
ATOM     15  O   UNL     1     101.478 133.032 141.608  0.00  0.00    +0.000 OA
ATOM     16  C   UNL     1     102.746 130.906 141.606  0.00  0.00    +0.000 A 
ATOM     17  C   UNL     1     103.129 131.615 141.431  0.00  0.00    +0.000 A 
ATOM     18  C   UNL     1     101.939 130.906 141.781  0.00  0.00    +0.000 A 
ATOM     19  C   UNL     1     102.707 132.324 141.432  0.00  0.00    +0.000 A 
ATOM     20  C   UNL     1     101.517 131.614 141.781  0.00  0.00    +0.000 A 
ATOM     21  C   UNL     1     101.901 132.323 141.607  0.00  0.00    +0.000 A 
BRANCH  17  22
ATOM     22  O   UNL     1     103.935 131.617 141.256  0.00  0.00    +0.000 OA
ATOM     23  C   UNL     1     104.328 132.329 141.125  0.00  0.00    +0.000 C 
ENDBRANCH  17  22
ENDBRANCH   6  16
BRANCH   8  24
ATOM     24  O   UNL     1     102.674 129.904 140.297  0.00  0.00    +0.000 OA
ATOM     25  C   UNL     1     102.383 129.318 139.794  0.00  0.00    +0.000 C 
ENDBRANCH   8  24
BRANCH  12  26
ATOM     26  O   UNL     1     105.350 127.109 142.263  0.00  0.00    +0.000 OA
ATOM     27  C   UNL     1     106.161 127.112 142.108  0.00  0.00    +0.000 C 
ENDBRANCH  12  26
TORSDOF 4
ENDMDL
MODEL 4
REMARK VINA RESULT:      -7.8      1.962      3.344
REMARK  Name = 13942680
REMARK  4 active torsions:
REMARK  status: ('A' for Active; 'I' for Inactive)
REMARK    1  A    between atoms: O_2  and  C_14
REMARK    2  A    between atoms: O_3  and  C_18
REMARK    3  A    between atoms: O_4  and  C_19
REMARK    4  A    between atoms: C_11  and  C_13
REMARK                            x       y       z     vdW  Elec       q    Type
REMARK                         _______ _______ _______ _____ _____    ______ ____
ROOT
ATOM      1  O   UNL     1     106.217 124.834 145.974  0.00  0.00    +0.000 OA
ATOM      2  O   UNL     1     106.213 126.921 143.975  0.00  0.00    +0.000 OA
ATOM      3  O   UNL     1     106.671 127.177 145.319  0.00  0.00    +0.000 OA
ATOM      4  O   UNL     1     105.277 124.242 143.282  0.00  0.00    +0.000 OA
ATOM      5  C   UNL     1     106.215 125.865 144.985  0.00  0.00    +0.000 A 
ATOM      6  C   UNL     1     106.522 125.365 146.527  0.00  0.00    +0.000 A 
ATOM      7  C   UNL     1     106.063 125.084 145.204  0.00  0.00    +0.000 A 
ATOM      8  C   UNL     1     106.674 126.146 146.309  0.00  0.00    +0.000 A 
ATOM      9  C   UNL     1     106.520 126.396 145.537  0.00  0.00    +0.000 A 
ATOM     10  C   UNL     1     106.058 126.138 144.185  0.00  0.00    +0.000 A 
ATOM     11  C   UNL     1     105.745 124.521 144.637  0.00  0.00    +0.000 A 
ATOM     12  C   UNL     1     105.740 125.590 143.605  0.00  0.00    +0.000 A 
ATOM     13  C   UNL     1     105.583 124.775 143.833  0.00  0.00    +0.000 A 
ENDROOT
BRANCH   6  16
ATOM     14  O   UNL     1     108.386 124.621 148.563  0.00  0.00    +0.000 OA
ATOM     15  O   UNL     1     107.138 124.366 149.612  0.00  0.00    +0.000 OA
ATOM     16  C   UNL     1     106.676 125.116 147.298  0.00  0.00    +0.000 A 
ATOM     17  C   UNL     1     106.052 124.988 147.822  0.00  0.00    +0.000 A 
ATOM     18  C   UNL     1     107.454 124.993 147.545  0.00  0.00    +0.000 A 
ATOM     19  C   UNL     1     106.206 124.738 148.594  0.00  0.00    +0.000 A 
ATOM     20  C   UNL     1     107.608 124.743 148.316  0.00  0.00    +0.000 A 
ATOM     21  C   UNL     1     106.984 124.616 148.840  0.00  0.00    +0.000 A 
BRANCH  17  22
ATOM     22  O   UNL     1     105.275 125.111 147.577  0.00  0.00    +0.000 OA
ATOM     23  C   UNL     1     104.650 124.961 148.093  0.00  0.00    +0.000 C 
ENDBRANCH  17  22
ENDBRANCH   6  16
BRANCH   8  24
ATOM     24  O   UNL     1     106.979 126.677 146.861  0.00  0.00    +0.000 OA
ATOM     25  C   UNL     1     107.087 127.469 146.656  0.00  0.00    +0.000 C 
ENDBRANCH   8  24
BRANCH  12  26
ATOM     26  O   UNL     1     105.587 125.842 142.835  0.00  0.00    +0.000 OA
ATOM     27  C   UNL     1     106.106 125.643 142.225  0.00  0.00    +0.000 C 
ENDBRANCH  12  26
TORSDOF 4
ENDMDL
MODEL 5
REMARK VINA RESULT:      -7.7     12.090     14.277
REMARK  Name = 13942680
REMARK  4 active torsions:
REMARK  status: ('A' for Active; 'I' for Inactive)
REMARK    1  A    between atoms: O_2  and  C_14
REMARK    2  A    between atoms: O_3  and  C_18
REMARK    3  A    between atoms: O_4  and  C_19
REMARK    4  A    between atoms: C_11  and  C_13
REMARK                            x       y       z     vdW  Elec       q    Type
REMARK                         _______ _______ _______ _____ _____    ______ ____
ROOT
ATOM      1  O   UNL     1     113.351 127.081 136.184  0.00  0.00    +0.000 OA
ATOM      2  O   UNL     1     112.930 129.634 137.472  0.00  0.00    +0.000 OA
ATOM      3  O   UNL     1     112.299 128.436 137.969  0.00  0.00    +0.000 OA
ATOM      4  O   UNL     1     114.658 129.458 135.123  0.00  0.00    +0.000 OA
ATOM      5  C   UNL     1     113.143 128.344 136.820  0.00  0.00    +0.000 A 
ATOM      6  C   UNL     1     112.857 126.721 136.738  0.00  0.00    +0.000 A 
ATOM      7  C   UNL     1     113.494 127.892 136.225  0.00  0.00    +0.000 A 
ATOM      8  C   UNL     1     112.506 127.172 137.333  0.00  0.00    +0.000 A 
ATOM      9  C   UNL     1     112.649 127.984 137.374  0.00  0.00    +0.000 A 
ATOM     10  C   UNL     1     113.285 129.190 136.873  0.00  0.00    +0.000 A 
ATOM     11  C   UNL     1     114.010 128.256 135.641  0.00  0.00    +0.000 A 
ATOM     12  C   UNL     1     113.798 129.571 136.299  0.00  0.00    +0.000 A 
ATOM     13  C   UNL     1     114.163 129.100 135.679  0.00  0.00    +0.000 A 
ENDROOT
BRANCH   6  16
ATOM     14  O   UNL     1     111.156 124.541 136.015  0.00  0.00    +0.000 OA
ATOM     15  O   UNL     1     112.283 123.475 136.576  0.00  0.00    +0.000 OA
ATOM     16  C   UNL     1     112.713 125.910 136.697  0.00  0.00    +0.000 A 
ATOM     17  C   UNL     1     113.277 125.377 136.978  0.00  0.00    +0.000 A 
ATOM     18  C   UNL     1     112.006 125.631 136.376  0.00  0.00    +0.000 A 
ATOM     19  C   UNL     1     113.134 124.565 136.937  0.00  0.00    +0.000 A 
ATOM     20  C   UNL     1     111.863 124.820 136.336  0.00  0.00    +0.000 A 
ATOM     21  C   UNL     1     112.427 124.287 136.616  0.00  0.00    +0.000 A 
BRANCH  17  22
ATOM     22  O   UNL     1     113.984 125.655 137.299  0.00  0.00    +0.000 OA
ATOM     23  C   UNL     1     114.565 125.122 137.541  0.00  0.00    +0.000 C 
ENDBRANCH  17  22
ENDBRANCH   6  16
BRANCH   8  24
ATOM     24  O   UNL     1     112.012 126.813 137.887  0.00  0.00    +0.000 OA
ATOM     25  C   UNL     1     111.503 127.272 138.346  0.00  0.00    +0.000 C 
ENDBRANCH   8  24
BRANCH  12  26
ATOM     26  O   UNL     1     113.940 130.382 136.342  0.00  0.00    +0.000 OA
ATOM     27  C   UNL     1     114.649 130.661 136.657  0.00  0.00    +0.000 C 
ENDBRANCH  12  26
TORSDOF 4
ENDMDL
MODEL 6
REMARK VINA RESULT:      -7.7      9.909     11.073
REMARK  Name = 13942680
REMARK  4 active torsions:
REMARK  status: ('A' for Active; 'I' for Inactive)
REMARK    1  A    between atoms: O_2  and  C_14
REMARK    2  A    between atoms: O_3  and  C_18
REMARK    3  A    between atoms: O_4  and  C_19
REMARK    4  A    between atoms: C_11  and  C_13
REMARK                            x       y       z     vdW  Elec       q    Type
REMARK                         _______ _______ _______ _____ _____    ______ ____
ROOT
ATOM      1  O   UNL     1     111.550 131.646 145.180  0.00  0.00    +0.000 OA
ATOM      2  O   UNL     1     112.113 132.178 142.396  0.00  0.00    +0.000 OA
ATOM      3  O   UNL     1     112.013 133.251 143.354  0.00  0.00    +0.000 OA
ATOM      4  O   UNL     1     111.737 129.427 143.303  0.00  0.00    +0.000 OA
ATOM      5  C   UNL     1     111.828 131.908 143.803  0.00  0.00    +0.000 A 
ATOM      6  C   UNL     1     111.580 132.455 145.340  0.00  0.00    +0.000 A 
ATOM      7  C   UNL     1     111.674 131.372 144.412  0.00  0.00    +0.000 A 
ATOM      8  C   UNL     1     111.735 132.990 144.731  0.00  0.00    +0.000 A 
ATOM      9  C   UNL     1     111.859 132.716 143.962  0.00  0.00    +0.000 A 
ATOM     10  C   UNL     1     111.960 131.635 142.998  0.00  0.00    +0.000 A 
ATOM     11  C   UNL     1     111.640 130.527 144.258  0.00  0.00    +0.000 A 
ATOM     12  C   UNL     1     111.929 130.794 142.826  0.00  0.00    +0.000 A 
ATOM     13  C   UNL     1     111.768 130.236 143.460  0.00  0.00    +0.000 A 
ENDROOT
BRANCH   6  16
ATOM     14  O   UNL     1     109.897 133.711 147.279  0.00  0.00    +0.000 OA
ATOM     15  O   UNL     1     111.085 133.551 148.413  0.00  0.00    +0.000 OA
ATOM     16  C   UNL     1     111.456 132.729 146.108  0.00  0.00    +0.000 A 
ATOM     17  C   UNL     1     112.050 132.649 146.675  0.00  0.00    +0.000 A 
ATOM     18  C   UNL     1     110.739 133.083 146.310  0.00  0.00    +0.000 A 
ATOM     19  C   UNL     1     111.926 132.923 147.444  0.00  0.00    +0.000 A 
ATOM     20  C   UNL     1     110.615 133.357 147.077  0.00  0.00    +0.000 A 
ATOM     21  C   UNL     1     111.209 133.276 147.644  0.00  0.00    +0.000 A 
BRANCH  17  22
ATOM     22  O   UNL     1     112.768 132.295 146.475  0.00  0.00    +0.000 OA
ATOM     23  C   UNL     1     113.342 132.171 147.052  0.00  0.00    +0.000 C 
ENDBRANCH  17  22
ENDBRANCH   6  16
BRANCH   8  24
ATOM     24  O   UNL     1     111.765 133.799 144.890  0.00  0.00    +0.000 OA
ATOM     25  C   UNL     1     111.916 134.334 144.281  0.00  0.00    +0.000 C 
ENDBRANCH   8  24
BRANCH  12  26
ATOM     26  O   UNL     1     112.054 130.523 142.057  0.00  0.00    +0.000 OA
ATOM     27  C   UNL     1     112.792 130.226 141.838  0.00  0.00    +0.000 C 
ENDBRANCH  12  26
TORSDOF 4
ENDMDL
MODEL 7
REMARK VINA RESULT:      -7.7     12.884     14.140
REMARK  Name = 13942680
REMARK  4 active torsions:
REMARK  status: ('A' for Active; 'I' for Inactive)
REMARK    1  A    between atoms: O_2  and  C_14
REMARK    2  A    between atoms: O_3  and  C_18
REMARK    3  A    between atoms: O_4  and  C_19
REMARK    4  A    between atoms: C_11  and  C_13
REMARK                            x       y       z     vdW  Elec       q    Type
REMARK                         _______ _______ _______ _____ _____    ______ ____
ROOT
ATOM      1  O   UNL     1     113.419 126.810 136.653  0.00  0.00    +0.000 OA
ATOM      2  O   UNL     1     111.307 124.968 135.951  0.00  0.00    +0.000 OA
ATOM      3  O   UNL     1     111.167 126.385 135.719  0.00  0.00    +0.000 OA
ATOM      4  O   UNL     1     113.773 123.962 137.150  0.00  0.00    +0.000 OA
ATOM      5  C   UNL     1     112.376 125.898 136.306  0.00  0.00    +0.000 A 
ATOM      6  C   UNL     1     112.962 127.439 136.377  0.00  0.00    +0.000 A 
ATOM      7  C   UNL     1     113.127 126.040 136.617  0.00  0.00    +0.000 A 
ATOM      8  C   UNL     1     112.211 127.297 136.066  0.00  0.00    +0.000 A 
ATOM      9  C   UNL     1     111.918 126.526 136.030  0.00  0.00    +0.000 A 
ATOM     10  C   UNL     1     112.059 125.100 136.263  0.00  0.00    +0.000 A 
ATOM     11  C   UNL     1     113.613 125.393 136.908  0.00  0.00    +0.000 A 
ATOM     12  C   UNL     1     112.530 124.441 136.549  0.00  0.00    +0.000 A 
ATOM     13  C   UNL     1     113.313 124.589 136.873  0.00  0.00    +0.000 A 
ENDROOT
BRANCH   6  16
ATOM     14  O   UNL     1     114.178 129.686 135.097  0.00  0.00    +0.000 OA
ATOM     15  O   UNL     1     114.134 130.521 136.520  0.00  0.00    +0.000 OA
ATOM     16  C   UNL     1     113.255 128.209 136.413  0.00  0.00    +0.000 A 
ATOM     17  C   UNL     1     113.233 128.626 137.124  0.00  0.00    +0.000 A 
ATOM     18  C   UNL     1     113.570 128.563 135.737  0.00  0.00    +0.000 A 
ATOM     19  C   UNL     1     113.526 129.397 137.160  0.00  0.00    +0.000 A 
ATOM     20  C   UNL     1     113.863 129.332 135.772  0.00  0.00    +0.000 A 
ATOM     21  C   UNL     1     113.841 129.750 136.484  0.00  0.00    +0.000 A 
BRANCH  17  22
ATOM     22  O   UNL     1     112.918 128.273 137.800  0.00  0.00    +0.000 OA
ATOM     23  C   UNL     1     112.935 128.674 138.520  0.00  0.00    +0.000 C 
ENDBRANCH  17  22
ENDBRANCH   6  16
BRANCH   8  24
ATOM     24  O   UNL     1     111.753 127.925 135.790  0.00  0.00    +0.000 OA
ATOM     25  C   UNL     1     111.140 127.786 135.256  0.00  0.00    +0.000 C 
ENDBRANCH   8  24
BRANCH  12  26
ATOM     26  O   UNL     1     112.235 123.672 136.512  0.00  0.00    +0.000 OA
ATOM     27  C   UNL     1     111.913 123.321 137.186  0.00  0.00    +0.000 C 
ENDBRANCH  12  26
TORSDOF 4
ENDMDL
MODEL 8
REMARK VINA RESULT:      -7.7      1.110      2.145
REMARK  Name = 13942680
REMARK  4 active torsions:
REMARK  status: ('A' for Active; 'I' for Inactive)
REMARK    1  A    between atoms: O_2  and  C_14
REMARK    2  A    between atoms: O_3  and  C_18
REMARK    3  A    between atoms: O_4  and  C_19
REMARK    4  A    between atoms: C_11  and  C_13
REMARK                            x       y       z     vdW  Elec       q    Type
REMARK                         _______ _______ _______ _____ _____    ______ ____
ROOT
ATOM      1  O   UNL     1     103.519 124.172 147.436  0.00  0.00    +0.000 OA
ATOM      2  O   UNL     1     102.814 123.118 144.839  0.00  0.00    +0.000 OA
ATOM      3  O   UNL     1     104.125 123.664 145.091  0.00  0.00    +0.000 OA
ATOM      4  O   UNL     1     100.852 123.086 147.003  0.00  0.00    +0.000 OA
ATOM      5  C   UNL     1     103.169 123.651 146.153  0.00  0.00    +0.000 A 
ATOM      6  C   UNL     1     104.274 124.355 147.156  0.00  0.00    +0.000 A 
ATOM      7  C   UNL     1     102.967 123.820 146.935  0.00  0.00    +0.000 A 
ATOM      8  C   UNL     1     104.476 124.186 146.375  0.00  0.00    +0.000 A 
ATOM      9  C   UNL     1     103.923 123.833 145.872  0.00  0.00    +0.000 A 
ATOM     10  C   UNL     1     102.603 123.284 145.620  0.00  0.00    +0.000 A 
ATOM     11  C   UNL     1     102.185 123.634 147.238  0.00  0.00    +0.000 A 
ATOM     12  C   UNL     1     101.816 123.091 145.906  0.00  0.00    +0.000 A 
ATOM     13  C   UNL     1     101.606 123.268 146.721  0.00  0.00    +0.000 A 
ENDROOT
BRANCH   6  16
ATOM     14  O   UNL     1     106.669 124.189 148.707  0.00  0.00    +0.000 OA
ATOM     15  O   UNL     1     106.483 125.764 149.163  0.00  0.00    +0.000 OA
ATOM     16  C   UNL     1     104.826 124.707 147.658  0.00  0.00    +0.000 A 
ATOM     17  C   UNL     1     104.732 125.494 147.886  0.00  0.00    +0.000 A 
ATOM     18  C   UNL     1     105.471 124.272 147.932  0.00  0.00    +0.000 A 
ATOM     19  C   UNL     1     105.285 125.847 148.388  0.00  0.00    +0.000 A 
ATOM     20  C   UNL     1     106.023 124.624 148.433  0.00  0.00    +0.000 A 
ATOM     21  C   UNL     1     105.930 125.411 148.661  0.00  0.00    +0.000 A 
BRANCH  17  22
ATOM     22  O   UNL     1     104.087 125.930 147.612  0.00  0.00    +0.000 OA
ATOM     23  C   UNL     1     103.975 126.705 147.867  0.00  0.00    +0.000 C 
ENDBRANCH  17  22
ENDBRANCH   6  16
BRANCH   8  24
ATOM     24  O   UNL     1     105.229 124.368 146.094  0.00  0.00    +0.000 OA
ATOM     25  C   UNL     1     105.376 124.383 145.282  0.00  0.00    +0.000 C 
ENDBRANCH   8  24
BRANCH  12  26
ATOM     26  O   UNL     1     101.266 122.739 145.402  0.00  0.00    +0.000 OA
ATOM     27  C   UNL     1     100.739 123.208 144.973  0.00  0.00    +0.000 C 
ENDBRANCH  12  26
TORSDOF 4
ENDMDL
MODEL 9
REMARK VINA RESULT:      -7.5     12.738     13.843
REMARK  Name = 13942680
REMARK  4 active torsions:
REMARK  status: ('A' for Active; 'I' for Inactive)
REMARK    1  A    between atoms: O_2  and  C_14
REMARK    2  A    between atoms: O_3  and  C_18
REMARK    3  A    between atoms: O_4  and  C_19
REMARK    4  A    between atoms: C_11  and  C_13
REMARK                            x       y       z     vdW  Elec       q    Type
REMARK                         _______ _______ _______ _____ _____    ______ ____
ROOT
ATOM      1  O   UNL     1     111.216 127.248 136.490  0.00  0.00    +0.000 OA
ATOM      2  O   UNL     1     111.824 124.444 136.148  0.00  0.00    +0.000 OA
ATOM      3  O   UNL     1     110.814 125.090 135.346  0.00  0.00    +0.000 OA
ATOM      4  O   UNL     1     113.267 126.011 138.146  0.00  0.00    +0.000 OA
ATOM      5  C   UNL     1     111.517 125.862 136.322  0.00  0.00    +0.000 A 
ATOM      6  C   UNL     1     110.646 127.197 135.895  0.00  0.00    +0.000 A 
ATOM      7  C   UNL     1     111.651 126.581 136.703  0.00  0.00    +0.000 A 
ATOM      8  C   UNL     1     110.512 126.478 135.514  0.00  0.00    +0.000 A 
ATOM      9  C   UNL     1     110.948 125.809 135.727  0.00  0.00    +0.000 A 
ATOM     10  C   UNL     1     111.965 125.159 136.535  0.00  0.00    +0.000 A 
ATOM     11  C   UNL     1     112.242 126.648 137.324  0.00  0.00    +0.000 A 
ATOM     12  C   UNL     1     112.559 125.206 137.153  0.00  0.00    +0.000 A 
ATOM     13  C   UNL     1     112.698 125.956 137.551  0.00  0.00    +0.000 A 
ENDROOT
BRANCH   6  16
ATOM     14  O   UNL     1     108.195 128.665 135.920  0.00  0.00    +0.000 OA
ATOM     15  O   UNL     1     108.905 129.866 135.040  0.00  0.00    +0.000 OA
ATOM     16  C   UNL     1     110.211 127.864 135.682  0.00  0.00    +0.000 A 
ATOM     17  C   UNL     1     110.567 128.464 135.242  0.00  0.00    +0.000 A 
ATOM     18  C   UNL     1     109.421 127.931 135.908  0.00  0.00    +0.000 A 
ATOM     19  C   UNL     1     110.131 129.132 135.028  0.00  0.00    +0.000 A 
ATOM     20  C   UNL     1     108.985 128.598 135.694  0.00  0.00    +0.000 A 
ATOM     21  C   UNL     1     109.341 129.198 135.254  0.00  0.00    +0.000 A 
BRANCH  17  22
ATOM     22  O   UNL     1     111.357 128.398 135.015  0.00  0.00    +0.000 OA
ATOM     23  C   UNL     1     111.724 129.016 134.612  0.00  0.00    +0.000 C 
ENDBRANCH  17  22
ENDBRANCH   6  16
BRANCH   8  24
ATOM     24  O   UNL     1     109.943 126.425 134.919  0.00  0.00    +0.000 OA
ATOM     25  C   UNL     1     109.730 125.688 134.616  0.00  0.00    +0.000 C 
ENDBRANCH   8  24
BRANCH  12  26
ATOM     26  O   UNL     1     112.993 124.537 137.365  0.00  0.00    +0.000 OA
ATOM     27  C   UNL     1     113.773 124.454 137.109  0.00  0.00    +0.000 C 
ENDBRANCH  12  26
TORSDOF 4
ENDMDL
MODEL 10
REMARK VINA RESULT:      -7.5     12.303     13.814
REMARK  Name = 13942680
REMARK  4 active torsions:
REMARK  status: ('A' for Active; 'I' for Inactive)
REMARK    1  A    between atoms: O_2  and  C_14
REMARK    2  A    between atoms: O_3  and  C_18
REMARK    3  A    between atoms: O_4  and  C_19
REMARK    4  A    between atoms: C_11  and  C_13
REMARK                            x       y       z     vdW  Elec       q    Type
REMARK                         _______ _______ _______ _____ _____    ______ ____
ROOT
ATOM      1  O   UNL     1     112.517 127.268 136.248  0.00  0.00    +0.000 OA
ATOM      2  O   UNL     1     109.957 127.049 134.926  0.00  0.00    +0.000 OA
ATOM      3  O   UNL     1     110.604 125.892 135.493  0.00  0.00    +0.000 OA
ATOM      4  O   UNL     1     111.271 129.650 135.128  0.00  0.00    +0.000 OA
ATOM      5  C   UNL     1     111.252 127.162 135.594  0.00  0.00    +0.000 A 
ATOM      6  C   UNL     1     112.508 126.457 136.399  0.00  0.00    +0.000 A 
ATOM      7  C   UNL     1     111.889 127.620 135.846  0.00  0.00    +0.000 A 
ATOM      8  C   UNL     1     111.871 125.998 136.147  0.00  0.00    +0.000 A 
ATOM      9  C   UNL     1     111.242 126.350 135.744  0.00  0.00    +0.000 A 
ATOM     10  C   UNL     1     110.590 127.517 135.174  0.00  0.00    +0.000 A 
ATOM     11  C   UNL     1     111.911 128.467 135.696  0.00  0.00    +0.000 A 
ATOM     12  C   UNL     1     110.595 128.361 135.015  0.00  0.00    +0.000 A 
ATOM     13  C   UNL     1     111.259 128.839 135.277  0.00  0.00    +0.000 A 
ENDROOT
BRANCH   6  16
ATOM     14  O   UNL     1     114.922 124.927 136.366  0.00  0.00    +0.000 OA
ATOM     15  O   UNL     1     115.021 125.047 138.008  0.00  0.00    +0.000 OA
ATOM     16  C   UNL     1     113.136 126.105 136.801  0.00  0.00    +0.000 A 
ATOM     17  C   UNL     1     113.186 126.165 137.622  0.00  0.00    +0.000 A 
ATOM     18  C   UNL     1     113.715 125.692 136.382  0.00  0.00    +0.000 A 
ATOM     19  C   UNL     1     113.814 125.813 138.025  0.00  0.00    +0.000 A 
ATOM     20  C   UNL     1     114.343 125.340 136.784  0.00  0.00    +0.000 A 
ATOM     21  C   UNL     1     114.392 125.400 137.606  0.00  0.00    +0.000 A 
BRANCH  17  22
ATOM     22  O   UNL     1     112.607 126.578 138.042  0.00  0.00    +0.000 OA
ATOM     23  C   UNL     1     112.673 126.664 138.858  0.00  0.00    +0.000 C 
ENDBRANCH  17  22
ENDBRANCH   6  16
BRANCH   8  24
ATOM     24  O   UNL     1     111.861 125.187 136.297  0.00  0.00    +0.000 OA
ATOM     25  C   UNL     1     111.283 124.710 135.952  0.00  0.00    +0.000 C 
ENDBRANCH   8  24
BRANCH  12  26
ATOM     26  O   UNL     1     109.965 128.710 134.612  0.00  0.00    +0.000 OA
ATOM     27  C   UNL     1     109.418 129.172 135.023  0.00  0.00    +0.000 C 
ENDBRANCH  12  26
TORSDOF 4
ENDMDL
