MODEL 1
REMARK VINA RESULT:     -10.0      0.000      0.000
REMARK  Name = 44259028
REMARK  9 active torsions:
REMARK  status: ('A' for Active; 'I' for Inactive)
REMARK    1  A    between atoms: O_3  and  C_17
REMARK    2  A    between atoms: O_3  and  C_31
REMARK    3  A    between atoms: O_4  and  C_19
REMARK    4  A    between atoms: O_4  and  C_32
REMARK    5  A    between atoms: O_5  and  C_21
REMARK    6  A    between atoms: O_5  and  C_29
REMARK    7  A    between atoms: O_7  and  C_26
REMARK    8  A    between atoms: O_7  and  C_30
REMARK    9  A    between atoms: C_34  and  C_41
REMARK                            x       y       z     vdW  Elec       q    Type
REMARK                         _______ _______ _______ _____ _____    ______ ____
ROOT
ATOM      1  O   UNL     1     113.162 128.668 138.321  0.00  0.00    +0.000 OA
ATOM      2  O   UNL     1     112.289 126.404 138.815  0.00  0.00    +0.000 OA
ATOM      3  O   UNL     1     112.579 126.567 140.219  0.00  0.00    +0.000 OA
ATOM      4  C   UNL     1     112.577 127.443 137.876  0.00  0.00    +0.000 A 
ATOM      5  C   UNL     1     113.480 128.594 140.532  0.00  0.00    +0.000 A 
ATOM      6  C   UNL     1     112.580 127.159 138.650  0.00  0.00    +0.000 A 
ATOM      7  C   UNL     1     112.868 128.197 137.711  0.00  0.00    +0.000 A 
ATOM      8  C   UNL     1     112.874 127.629 139.260  0.00  0.00    +0.000 A 
ATOM      9  C   UNL     1     113.165 128.384 139.097  0.00  0.00    +0.000 A 
ATOM     10  C   UNL     1     113.474 128.884 139.723  0.00  0.00    +0.000 A 
ATOM     11  C   UNL     1     113.177 127.808 140.704  0.00  0.00    +0.000 A 
ATOM     12  C   UNL     1     112.872 127.322 140.063  0.00  0.00    +0.000 A 
ENDROOT
BRANCH   7  14
ATOM     13  O   UNL     1     112.856 129.332 134.612  0.00  0.00    +0.000 OA
ATOM     14  C   UNL     1     112.865 128.481 136.937  0.00  0.00    +0.000 A 
ATOM     15  C   UNL     1     113.545 128.422 136.474  0.00  0.00    +0.000 A 
ATOM     16  C   UNL     1     112.182 128.823 136.625  0.00  0.00    +0.000 A 
ATOM     17  C   UNL     1     113.542 128.706 135.698  0.00  0.00    +0.000 A 
ATOM     18  C   UNL     1     112.179 129.107 135.851  0.00  0.00    +0.000 A 
ATOM     19  C   UNL     1     112.859 129.048 135.388  0.00  0.00    +0.000 A 
ENDBRANCH   7  14
BRANCH   4  20
ATOM     20  O   UNL     1     112.283 126.972 137.265  0.00  0.00    +0.000 OA
BRANCH  20  27
ATOM     21  O   UNL     1     113.410 126.095 137.208  0.00  0.00    +0.000 OA
ATOM     22  O   UNL     1     113.541 123.965 136.747  0.00  0.00    +0.000 OA
ATOM     23  C   UNL     1     112.414 124.842 136.804  0.00  0.00    +0.000 C 
ATOM     24  C   UNL     1     113.226 124.717 136.876  0.00  0.00    +0.000 C 
ATOM     25  C   UNL     1     112.099 125.594 136.934  0.00  0.00    +0.000 C 
ATOM     26  C   UNL     1     113.724 125.343 137.078  0.00  0.00    +0.000 C 
ATOM     27  C   UNL     1     112.597 126.220 137.136  0.00  0.00    +0.000 C 
ATOM     28  C   UNL     1     114.537 125.218 137.151  0.00  0.00    +0.000 C 
BRANCH  23  29
ATOM     29  O   UNL     1     111.917 124.216 136.602  0.00  0.00    +0.000 OA
BRANCH  29  31
ATOM     30  O   UNL     1     111.589 123.687 137.889  0.00  0.00    +0.000 OA
ATOM     31  C   UNL     1     111.838 123.571 137.110  0.00  0.00    +0.000 C 
ATOM     32  C   UNL     1     112.008 122.810 136.840  0.00  0.00    +0.000 C 
ENDBRANCH  29  31
ENDBRANCH  23  29
BRANCH  25  33
ATOM     33  O   UNL     1     111.288 125.719 136.861  0.00  0.00    +0.000 OA
BRANCH  33  35
ATOM     34  O   UNL     1     111.428 125.818 135.443  0.00  0.00    +0.000 OA
ATOM     35  C   UNL     1     110.955 125.849 136.118  0.00  0.00    +0.000 C 
ATOM     36  C   UNL     1     110.148 126.009 136.048  0.00  0.00    +0.000 C 
ENDBRANCH  33  35
ENDBRANCH  25  33
ENDBRANCH  20  27
ENDBRANCH   4  20
BRANCH   5  37
ATOM     37  O   UNL     1     113.774 129.067 141.141  0.00  0.00    +0.000 OA
BRANCH  37  46
ATOM     38  O   UNL     1     112.537 129.388 141.782  0.00  0.00    +0.000 OA
ATOM     39  O   UNL     1     113.301 131.723 142.084  0.00  0.00    +0.000 OA
ATOM     40  O   UNL     1     111.811 131.266 142.625  0.00  0.00    +0.000 OA
ATOM     41  O   UNL     1     114.282 130.623 141.342  0.00  0.00    +0.000 OA
ATOM     42  C   UNL     1     113.047 130.944 141.983  0.00  0.00    +0.000 C 
ATOM     43  C   UNL     1     112.301 130.716 142.254  0.00  0.00    +0.000 C 
ATOM     44  C   UNL     1     113.537 130.395 141.612  0.00  0.00    +0.000 C 
ATOM     45  C   UNL     1     112.047 129.937 142.153  0.00  0.00    +0.000 C 
ATOM     46  C   UNL     1     113.283 129.616 141.512  0.00  0.00    +0.000 C 
ATOM     47  C   UNL     1     111.302 129.709 142.424  0.00  0.00    +0.000 C 
ENDBRANCH  37  46
ENDBRANCH   5  37
TORSDOF 9
ENDMDL
MODEL 2
REMARK VINA RESULT:      -9.8      2.894      4.899
REMARK  Name = 44259028
REMARK  9 active torsions:
REMARK  status: ('A' for Active; 'I' for Inactive)
REMARK    1  A    between atoms: O_3  and  C_17
REMARK    2  A    between atoms: O_3  and  C_31
REMARK    3  A    between atoms: O_4  and  C_19
REMARK    4  A    between atoms: O_4  and  C_32
REMARK    5  A    between atoms: O_5  and  C_21
REMARK    6  A    between atoms: O_5  and  C_29
REMARK    7  A    between atoms: O_7  and  C_26
REMARK    8  A    between atoms: O_7  and  C_30
REMARK    9  A    between atoms: C_34  and  C_41
REMARK                            x       y       z     vdW  Elec       q    Type
REMARK                         _______ _______ _______ _____ _____    ______ ____
ROOT
ATOM      1  O   UNL     1     110.815 129.485 138.000  0.00  0.00    +0.000 OA
ATOM      2  O   UNL     1     110.717 127.508 136.513  0.00  0.00    +0.000 OA
ATOM      3  O   UNL     1     109.491 127.981 135.917  0.00  0.00    +0.000 OA
ATOM      4  C   UNL     1     111.373 128.251 137.543  0.00  0.00    +0.000 A 
ATOM      5  C   UNL     1     108.932 129.924 136.880  0.00  0.00    +0.000 A 
ATOM      6  C   UNL     1     110.750 128.167 137.009  0.00  0.00    +0.000 A 
ATOM      7  C   UNL     1     111.406 128.910 138.039  0.00  0.00    +0.000 A 
ATOM      8  C   UNL     1     110.160 128.742 136.970  0.00  0.00    +0.000 A 
ATOM      9  C   UNL     1     110.192 129.401 137.465  0.00  0.00    +0.000 A 
ATOM     10  C   UNL     1     109.583 130.006 137.434  0.00  0.00    +0.000 A 
ATOM     11  C   UNL     1     108.898 129.238 136.363  0.00  0.00    +0.000 A 
ATOM     12  C   UNL     1     109.516 128.642 136.409  0.00  0.00    +0.000 A 
ENDROOT
BRANCH   7  14
ATOM     13  O   UNL     1     113.896 129.246 140.177  0.00  0.00    +0.000 OA
ATOM     14  C   UNL     1     112.028 128.994 138.573  0.00  0.00    +0.000 A 
ATOM     15  C   UNL     1     111.926 128.775 139.362  0.00  0.00    +0.000 A 
ATOM     16  C   UNL     1     112.752 129.297 138.319  0.00  0.00    +0.000 A 
ATOM     17  C   UNL     1     112.550 128.859 139.897  0.00  0.00    +0.000 A 
ATOM     18  C   UNL     1     113.375 129.381 138.853  0.00  0.00    +0.000 A 
ATOM     19  C   UNL     1     113.273 129.162 139.642  0.00  0.00    +0.000 A 
ENDBRANCH   7  14
BRANCH   4  20
ATOM     20  O   UNL     1     111.963 127.676 137.582  0.00  0.00    +0.000 OA
BRANCH  20  27
ATOM     21  O   UNL     1     111.180 126.728 138.310  0.00  0.00    +0.000 OA
ATOM     22  O   UNL     1     111.176 124.546 138.269  0.00  0.00    +0.000 OA
ATOM     23  C   UNL     1     111.960 125.494 137.541  0.00  0.00    +0.000 C 
ATOM     24  C   UNL     1     111.374 125.328 138.097  0.00  0.00    +0.000 C 
ATOM     25  C   UNL     1     112.157 126.276 137.369  0.00  0.00    +0.000 C 
ATOM     26  C   UNL     1     110.984 125.945 138.481  0.00  0.00    +0.000 C 
ATOM     27  C   UNL     1     111.767 126.893 137.753  0.00  0.00    +0.000 C 
ATOM     28  C   UNL     1     110.396 125.780 139.037  0.00  0.00    +0.000 C 
BRANCH  23  29
ATOM     29  O   UNL     1     112.350 124.877 137.157  0.00  0.00    +0.000 OA
BRANCH  29  31
ATOM     30  O   UNL     1     111.404 124.571 136.131  0.00  0.00    +0.000 OA
ATOM     31  C   UNL     1     111.919 124.321 136.726  0.00  0.00    +0.000 C 
ATOM     32  C   UNL     1     112.003 123.516 136.888  0.00  0.00    +0.000 C 
ENDBRANCH  29  31
ENDBRANCH  23  29
BRANCH  25  33
ATOM     33  O   UNL     1     112.743 126.442 136.814  0.00  0.00    +0.000 OA
BRANCH  33  35
ATOM     34  O   UNL     1     113.747 126.207 137.803  0.00  0.00    +0.000 OA
ATOM     35  C   UNL     1     113.539 126.404 137.030  0.00  0.00    +0.000 C 
ATOM     36  C   UNL     1     114.126 126.562 136.472  0.00  0.00    +0.000 C 
ENDBRANCH  33  35
ENDBRANCH  25  33
ENDBRANCH  20  27
ENDBRANCH   4  20
BRANCH   5  37
ATOM     37  O   UNL     1     108.343 130.501 136.843  0.00  0.00    +0.000 OA
BRANCH  37  46
ATOM     38  O   UNL     1     109.084 131.552 136.219  0.00  0.00    +0.000 OA
ATOM     39  O   UNL     1     107.155 132.036 134.746  0.00  0.00    +0.000 OA
ATOM     40  O   UNL     1     108.538 132.925 134.612  0.00  0.00    +0.000 OA
ATOM     41  O   UNL     1     107.057 130.824 135.861  0.00  0.00    +0.000 OA
ATOM     42  C   UNL     1     107.798 131.875 135.237  0.00  0.00    +0.000 C 
ATOM     43  C   UNL     1     108.490 132.319 135.170  0.00  0.00    +0.000 C 
ATOM     44  C   UNL     1     107.749 131.269 135.794  0.00  0.00    +0.000 C 
ATOM     45  C   UNL     1     109.133 132.158 135.661  0.00  0.00    +0.000 C 
ATOM     46  C   UNL     1     108.392 131.107 136.285  0.00  0.00    +0.000 C 
ATOM     47  C   UNL     1     109.824 132.602 135.594  0.00  0.00    +0.000 C 
ENDBRANCH  37  46
ENDBRANCH   5  37
TORSDOF 9
ENDMDL
MODEL 3
REMARK VINA RESULT:      -9.7      1.962      2.813
REMARK  Name = 44259028
REMARK  9 active torsions:
REMARK  status: ('A' for Active; 'I' for Inactive)
REMARK    1  A    between atoms: O_3  and  C_17
REMARK    2  A    between atoms: O_3  and  C_31
REMARK    3  A    between atoms: O_4  and  C_19
REMARK    4  A    between atoms: O_4  and  C_32
REMARK    5  A    between atoms: O_5  and  C_21
REMARK    6  A    between atoms: O_5  and  C_29
REMARK    7  A    between atoms: O_7  and  C_26
REMARK    8  A    between atoms: O_7  and  C_30
REMARK    9  A    between atoms: C_34  and  C_41
REMARK                            x       y       z     vdW  Elec       q    Type
REMARK                         _______ _______ _______ _____ _____    ______ ____
ROOT
ATOM      1  O   UNL     1     111.493 129.129 137.305  0.00  0.00    +0.000 OA
ATOM      2  O   UNL     1     111.269 126.830 138.196  0.00  0.00    +0.000 OA
ATOM      3  O   UNL     1     110.176 127.235 139.046  0.00  0.00    +0.000 OA
ATOM      4  C   UNL     1     111.921 127.766 137.334  0.00  0.00    +0.000 A 
ATOM      5  C   UNL     1     109.796 129.420 138.729  0.00  0.00    +0.000 A 
ATOM      6  C   UNL     1     111.344 127.596 137.899  0.00  0.00    +0.000 A 
ATOM      7  C   UNL     1     111.996 128.532 137.037  0.00  0.00    +0.000 A 
ATOM      8  C   UNL     1     110.841 128.193 138.167  0.00  0.00    +0.000 A 
ATOM      9  C   UNL     1     110.916 128.960 137.870  0.00  0.00    +0.000 A 
ATOM     10  C   UNL     1     110.399 129.590 138.141  0.00  0.00    +0.000 A 
ATOM     11  C   UNL     1     109.717 128.622 139.039  0.00  0.00    +0.000 A 
ATOM     12  C   UNL     1     110.244 128.004 138.755  0.00  0.00    +0.000 A 
ENDROOT
BRANCH   7  14
ATOM     13  O   UNL     1     114.304 129.210 134.778  0.00  0.00    +0.000 OA
ATOM     14  C   UNL     1     112.573 128.701 136.473  0.00  0.00    +0.000 A 
ATOM     15  C   UNL     1     112.371 128.732 135.674  0.00  0.00    +0.000 A 
ATOM     16  C   UNL     1     113.352 128.840 136.707  0.00  0.00    +0.000 A 
ATOM     17  C   UNL     1     112.948 128.902 135.108  0.00  0.00    +0.000 A 
ATOM     18  C   UNL     1     113.928 129.010 136.143  0.00  0.00    +0.000 A 
ATOM     19  C   UNL     1     113.727 129.041 135.344  0.00  0.00    +0.000 A 
ENDBRANCH   7  14
BRANCH   4  20
ATOM     20  O   UNL     1     112.423 127.169 137.066  0.00  0.00    +0.000 OA
BRANCH  20  27
ATOM     21  O   UNL     1     111.468 126.530 136.218  0.00  0.00    +0.000 OA
ATOM     22  O   UNL     1     111.163 124.421 135.743  0.00  0.00    +0.000 OA
ATOM     23  C   UNL     1     112.119 125.060 136.592  0.00  0.00    +0.000 C 
ATOM     24  C   UNL     1     111.479 125.108 136.075  0.00  0.00    +0.000 C 
ATOM     25  C   UNL     1     112.434 125.747 136.923  0.00  0.00    +0.000 C 
ATOM     26  C   UNL     1     111.153 125.842 135.887  0.00  0.00    +0.000 C 
ATOM     27  C   UNL     1     112.109 126.482 136.736  0.00  0.00    +0.000 C 
ATOM     28  C   UNL     1     110.513 125.890 135.369  0.00  0.00    +0.000 C 
BRANCH  23  29
ATOM     29  O   UNL     1     112.444 124.326 136.779  0.00  0.00    +0.000 OA
BRANCH  29  31
ATOM     30  O   UNL     1     111.544 123.955 137.825  0.00  0.00    +0.000 OA
ATOM     31  C   UNL     1     111.984 123.754 137.156  0.00  0.00    +0.000 C 
ATOM     32  C   UNL     1     111.963 122.982 136.865  0.00  0.00    +0.000 C 
ENDBRANCH  29  31
ENDBRANCH  23  29
BRANCH  25  33
ATOM     33  O   UNL     1     113.074 125.700 137.441  0.00  0.00    +0.000 OA
BRANCH  33  35
ATOM     34  O   UNL     1     113.971 125.645 136.330  0.00  0.00    +0.000 OA
ATOM     35  C   UNL     1     113.840 125.623 137.144  0.00  0.00    +0.000 C 
ATOM     36  C   UNL     1     114.475 125.523 137.661  0.00  0.00    +0.000 C 
ENDBRANCH  33  35
ENDBRANCH  25  33
ENDBRANCH  20  27
ENDBRANCH   4  20
BRANCH   5  37
ATOM     37  O   UNL     1     109.295 130.019 138.995  0.00  0.00    +0.000 OA
BRANCH  37  46
ATOM     38  O   UNL     1     110.147 130.440 140.063  0.00  0.00    +0.000 OA
ATOM     39  O   UNL     1     108.161 131.052 141.406  0.00  0.00    +0.000 OA
ATOM     40  O   UNL     1     109.675 131.269 142.026  0.00  0.00    +0.000 OA
ATOM     41  O   UNL     1     107.971 130.427 139.891  0.00  0.00    +0.000 OA
ATOM     42  C   UNL     1     108.823 130.848 140.958  0.00  0.00    +0.000 C 
ATOM     43  C   UNL     1     109.580 130.957 141.268  0.00  0.00    +0.000 C 
ATOM     44  C   UNL     1     108.728 130.536 140.201  0.00  0.00    +0.000 C 
ATOM     45  C   UNL     1     110.242 130.753 140.820  0.00  0.00    +0.000 C 
ATOM     46  C   UNL     1     109.390 130.331 139.753  0.00  0.00    +0.000 C 
ATOM     47  C   UNL     1     110.999 130.861 141.130  0.00  0.00    +0.000 C 
ENDBRANCH  37  46
ENDBRANCH   5  37
TORSDOF 9
ENDMDL
MODEL 4
REMARK VINA RESULT:      -9.7      2.627      3.798
REMARK  Name = 44259028
REMARK  9 active torsions:
REMARK  status: ('A' for Active; 'I' for Inactive)
REMARK    1  A    between atoms: O_3  and  C_17
REMARK    2  A    between atoms: O_3  and  C_31
REMARK    3  A    between atoms: O_4  and  C_19
REMARK    4  A    between atoms: O_4  and  C_32
REMARK    5  A    between atoms: O_5  and  C_21
REMARK    6  A    between atoms: O_5  and  C_29
REMARK    7  A    between atoms: O_7  and  C_26
REMARK    8  A    between atoms: O_7  and  C_30
REMARK    9  A    between atoms: C_34  and  C_41
REMARK                            x       y       z     vdW  Elec       q    Type
REMARK                         _______ _______ _______ _____ _____    ______ ____
ROOT
ATOM      1  O   UNL     1     112.174 129.623 136.854  0.00  0.00    +0.000 OA
ATOM      2  O   UNL     1     111.525 127.503 137.954  0.00  0.00    +0.000 OA
ATOM      3  O   UNL     1     110.445 128.160 138.649  0.00  0.00    +0.000 OA
ATOM      4  C   UNL     1     112.380 128.225 137.066  0.00  0.00    +0.000 A 
ATOM      5  C   UNL     1     110.435 130.324 138.070  0.00  0.00    +0.000 A 
ATOM      6  C   UNL     1     111.741 128.209 137.587  0.00  0.00    +0.000 A 
ATOM      7  C   UNL     1     112.597 128.931 136.699  0.00  0.00    +0.000 A 
ATOM      8  C   UNL     1     111.318 128.900 137.742  0.00  0.00    +0.000 A 
ATOM      9  C   UNL     1     111.534 129.607 137.375  0.00  0.00    +0.000 A 
ATOM     10  C   UNL     1     111.102 130.334 137.528  0.00  0.00    +0.000 A 
ATOM     11  C   UNL     1     110.209 129.588 138.452  0.00  0.00    +0.000 A 
ATOM     12  C   UNL     1     110.654 128.871 138.287  0.00  0.00    +0.000 A 
ENDROOT
BRANCH   7  14
ATOM     13  O   UNL     1     115.153 128.994 134.613  0.00  0.00    +0.000 OA
ATOM     14  C   UNL     1     113.235 128.947 136.178  0.00  0.00    +0.000 A 
ATOM     15  C   UNL     1     113.106 128.896 135.365  0.00  0.00    +0.000 A 
ATOM     16  C   UNL     1     114.005 129.014 136.470  0.00  0.00    +0.000 A 
ATOM     17  C   UNL     1     113.745 128.912 134.843  0.00  0.00    +0.000 A 
ATOM     18  C   UNL     1     114.643 129.030 135.949  0.00  0.00    +0.000 A 
ATOM     19  C   UNL     1     114.514 128.978 135.135  0.00  0.00    +0.000 A 
ENDBRANCH   7  14
BRANCH   4  20
ATOM     20  O   UNL     1     112.803 127.534 136.912  0.00  0.00    +0.000 OA
BRANCH  20  27
ATOM     21  O   UNL     1     111.797 126.944 136.086  0.00  0.00    +0.000 OA
ATOM     22  O   UNL     1     111.236 124.856 135.786  0.00  0.00    +0.000 OA
ATOM     23  C   UNL     1     112.243 125.445 136.612  0.00  0.00    +0.000 C 
ATOM     24  C   UNL     1     111.629 125.525 136.068  0.00  0.00    +0.000 C 
ATOM     25  C   UNL     1     112.635 126.115 136.894  0.00  0.00    +0.000 C 
ATOM     26  C   UNL     1     111.406 126.275 135.805  0.00  0.00    +0.000 C 
ATOM     27  C   UNL     1     112.412 126.864 136.631  0.00  0.00    +0.000 C 
ATOM     28  C   UNL     1     110.791 126.355 135.260  0.00  0.00    +0.000 C 
BRANCH  23  29
ATOM     29  O   UNL     1     112.465 124.696 136.876  0.00  0.00    +0.000 OA
BRANCH  29  31
ATOM     30  O   UNL     1     111.445 124.453 137.846  0.00  0.00    +0.000 OA
ATOM     31  C   UNL     1     111.905 124.193 137.212  0.00  0.00    +0.000 C 
ATOM     32  C   UNL     1     111.804 123.430 136.915  0.00  0.00    +0.000 C 
ENDBRANCH  29  31
ENDBRANCH  23  29
BRANCH  25  33
ATOM     33  O   UNL     1     113.249 126.035 137.439  0.00  0.00    +0.000 OA
BRANCH  33  35
ATOM     34  O   UNL     1     114.154 125.710 136.382  0.00  0.00    +0.000 OA
ATOM     35  C   UNL     1     113.992 125.779 137.187  0.00  0.00    +0.000 C 
ATOM     36  C   UNL     1     114.574 125.593 137.742  0.00  0.00    +0.000 C 
ENDBRANCH  33  35
ENDBRANCH  25  33
ENDBRANCH  20  27
ENDBRANCH   4  20
BRANCH   5  37
ATOM     37  O   UNL     1     110.014 131.016 138.222  0.00  0.00    +0.000 OA
BRANCH  37  46
ATOM     38  O   UNL     1     109.330 131.020 136.967  0.00  0.00    +0.000 OA
ATOM     39  O   UNL     1     107.391 132.136 138.026  0.00  0.00    +0.000 OA
ATOM     40  O   UNL     1     107.354 131.767 136.418  0.00  0.00    +0.000 OA
ATOM     41  O   UNL     1     108.721 131.761 138.927  0.00  0.00    +0.000 OA
ATOM     42  C   UNL     1     108.038 131.764 137.673  0.00  0.00    +0.000 C 
ATOM     43  C   UNL     1     108.019 131.579 136.869  0.00  0.00    +0.000 C 
ATOM     44  C   UNL     1     108.702 131.576 138.124  0.00  0.00    +0.000 C 
ATOM     45  C   UNL     1     108.665 131.207 136.516  0.00  0.00    +0.000 C 
ATOM     46  C   UNL     1     109.349 131.204 137.771  0.00  0.00    +0.000 C 
ATOM     47  C   UNL     1     108.646 131.023 135.712  0.00  0.00    +0.000 C 
ENDBRANCH  37  46
ENDBRANCH   5  37
TORSDOF 9
ENDMDL
MODEL 5
REMARK VINA RESULT:      -9.4      2.646      5.698
REMARK  Name = 44259028
REMARK  9 active torsions:
REMARK  status: ('A' for Active; 'I' for Inactive)
REMARK    1  A    between atoms: O_3  and  C_17
REMARK    2  A    between atoms: O_3  and  C_31
REMARK    3  A    between atoms: O_4  and  C_19
REMARK    4  A    between atoms: O_4  and  C_32
REMARK    5  A    between atoms: O_5  and  C_21
REMARK    6  A    between atoms: O_5  and  C_29
REMARK    7  A    between atoms: O_7  and  C_26
REMARK    8  A    between atoms: O_7  and  C_30
REMARK    9  A    between atoms: C_34  and  C_41
REMARK                            x       y       z     vdW  Elec       q    Type
REMARK                         _______ _______ _______ _____ _____    ______ ____
ROOT
ATOM      1  O   UNL     1     112.707 128.673 137.441  0.00  0.00    +0.000 OA
ATOM      2  O   UNL     1     110.291 129.165 137.665  0.00  0.00    +0.000 OA
ATOM      3  O   UNL     1     110.041 127.843 138.187  0.00  0.00    +0.000 OA
ATOM      4  C   UNL     1     111.609 129.576 137.296  0.00  0.00    +0.000 A 
ATOM      5  C   UNL     1     111.982 126.728 138.268  0.00  0.00    +0.000 A 
ATOM      6  C   UNL     1     111.097 129.001 137.590  0.00  0.00    +0.000 A 
ATOM      7  C   UNL     1     112.415 129.412 137.221  0.00  0.00    +0.000 A 
ATOM      8  C   UNL     1     111.389 128.262 137.810  0.00  0.00    +0.000 A 
ATOM      9  C   UNL     1     112.194 128.097 137.735  0.00  0.00    +0.000 A 
ATOM     10  C   UNL     1     112.511 127.331 137.961  0.00  0.00    +0.000 A 
ATOM     11  C   UNL     1     111.143 126.898 138.346  0.00  0.00    +0.000 A 
ATOM     12  C   UNL     1     110.845 127.671 138.115  0.00  0.00    +0.000 A 
ENDROOT
BRANCH   7  14
ATOM     13  O   UNL     1     114.466 131.713 136.042  0.00  0.00    +0.000 OA
ATOM     14  C   UNL     1     112.927 129.987 136.926  0.00  0.00    +0.000 A 
ATOM     15  C   UNL     1     113.163 129.964 136.136  0.00  0.00    +0.000 A 
ATOM     16  C   UNL     1     113.204 130.586 137.421  0.00  0.00    +0.000 A 
ATOM     17  C   UNL     1     113.676 130.539 135.841  0.00  0.00    +0.000 A 
ATOM     18  C   UNL     1     113.717 131.161 137.127  0.00  0.00    +0.000 A 
ATOM     19  C   UNL     1     113.953 131.138 136.337  0.00  0.00    +0.000 A 
ENDBRANCH   7  14
BRANCH   4  20
ATOM     20  O   UNL     1     111.317 130.315 137.076  0.00  0.00    +0.000 OA
BRANCH  20  27
ATOM     21  O   UNL     1     110.738 129.868 135.848  0.00  0.00    +0.000 OA
ATOM     22  O   UNL     1     108.959 130.541 134.778  0.00  0.00    +0.000 OA
ATOM     23  C   UNL     1     109.538 130.989 136.005  0.00  0.00    +0.000 C 
ATOM     24  C   UNL     1     109.548 130.485 135.353  0.00  0.00    +0.000 C 
ATOM     25  C   UNL     1     110.127 130.933 136.580  0.00  0.00    +0.000 C 
ATOM     26  C   UNL     1     110.149 129.925 135.274  0.00  0.00    +0.000 C 
ATOM     27  C   UNL     1     110.727 130.372 136.502  0.00  0.00    +0.000 C 
ATOM     28  C   UNL     1     110.160 129.420 134.621  0.00  0.00    +0.000 C 
BRANCH  23  29
ATOM     29  O   UNL     1     108.937 131.549 136.084  0.00  0.00    +0.000 OA
BRANCH  29  31
ATOM     30  O   UNL     1     107.911 130.732 136.651  0.00  0.00    +0.000 OA
ATOM     31  C   UNL     1     108.149 131.309 136.110  0.00  0.00    +0.000 C 
ATOM     32  C   UNL     1     107.598 131.644 135.595  0.00  0.00    +0.000 C 
ENDBRANCH  29  31
ENDBRANCH  23  29
BRANCH  25  33
ATOM     33  O   UNL     1     110.116 131.436 137.233  0.00  0.00    +0.000 OA
BRANCH  33  35
ATOM     34  O   UNL     1     110.709 132.471 136.445  0.00  0.00    +0.000 OA
ATOM     35  C   UNL     1     110.397 132.209 137.163  0.00  0.00    +0.000 C 
ATOM     36  C   UNL     1     110.365 132.720 137.810  0.00  0.00    +0.000 C 
ENDBRANCH  33  35
ENDBRANCH  25  33
ENDBRANCH  20  27
ENDBRANCH   4  20
BRANCH   5  37
ATOM     37  O   UNL     1     112.278 125.989 138.487  0.00  0.00    +0.000 OA
BRANCH  37  46
ATOM     38  O   UNL     1     111.939 125.180 137.358  0.00  0.00    +0.000 OA
ATOM     39  O   UNL     1     114.262 124.329 137.273  0.00  0.00    +0.000 OA
ATOM     40  O   UNL     1     113.150 123.804 136.173  0.00  0.00    +0.000 OA
ATOM     41  O   UNL     1     113.825 125.422 138.430  0.00  0.00    +0.000 OA
ATOM     42  C   UNL     1     113.488 124.613 137.301  0.00  0.00    +0.000 C 
ATOM     43  C   UNL     1     112.932 124.350 136.751  0.00  0.00    +0.000 C 
ATOM     44  C   UNL     1     113.269 125.159 137.880  0.00  0.00    +0.000 C 
ATOM     45  C   UNL     1     112.157 124.634 136.780  0.00  0.00    +0.000 C 
ATOM     46  C   UNL     1     112.495 125.443 137.908  0.00  0.00    +0.000 C 
ATOM     47  C   UNL     1     111.601 124.371 136.230  0.00  0.00    +0.000 C 
ENDBRANCH  37  46
ENDBRANCH   5  37
TORSDOF 9
ENDMDL
MODEL 6
REMARK VINA RESULT:      -9.3      2.728      6.227
REMARK  Name = 44259028
REMARK  9 active torsions:
REMARK  status: ('A' for Active; 'I' for Inactive)
REMARK    1  A    between atoms: O_3  and  C_17
REMARK    2  A    between atoms: O_3  and  C_31
REMARK    3  A    between atoms: O_4  and  C_19
REMARK    4  A    between atoms: O_4  and  C_32
REMARK    5  A    between atoms: O_5  and  C_21
REMARK    6  A    between atoms: O_5  and  C_29
REMARK    7  A    between atoms: O_7  and  C_26
REMARK    8  A    between atoms: O_7  and  C_30
REMARK    9  A    between atoms: C_34  and  C_41
REMARK                            x       y       z     vdW  Elec       q    Type
REMARK                         _______ _______ _______ _____ _____    ______ ____
ROOT
ATOM      1  O   UNL     1     112.009 128.567 138.022  0.00  0.00    +0.000 OA
ATOM      2  O   UNL     1     111.451 129.856 135.984  0.00  0.00    +0.000 OA
ATOM      3  O   UNL     1     112.269 128.986 135.174  0.00  0.00    +0.000 OA
ATOM      4  C   UNL     1     111.322 129.650 137.392  0.00  0.00    +0.000 A 
ATOM      5  C   UNL     1     113.177 127.423 136.498  0.00  0.00    +0.000 A 
ATOM      6  C   UNL     1     111.637 129.427 136.664  0.00  0.00    +0.000 A 
ATOM      7  C   UNL     1     111.508 129.221 138.072  0.00  0.00    +0.000 A 
ATOM      8  C   UNL     1     112.138 128.773 136.614  0.00  0.00    +0.000 A 
ATOM      9  C   UNL     1     112.325 128.343 137.293  0.00  0.00    +0.000 A 
ATOM     10  C   UNL     1     112.846 127.661 137.255  0.00  0.00    +0.000 A 
ATOM     11  C   UNL     1     112.983 127.871 135.790  0.00  0.00    +0.000 A 
ATOM     12  C   UNL     1     112.460 128.551 135.849  0.00  0.00    +0.000 A 
ENDROOT
BRANCH   7  14
ATOM     13  O   UNL     1     110.248 130.114 140.988  0.00  0.00    +0.000 OA
ATOM     14  C   UNL     1     111.193 129.444 138.800  0.00  0.00    +0.000 A 
ATOM     15  C   UNL     1     110.524 129.062 139.094  0.00  0.00    +0.000 A 
ATOM     16  C   UNL     1     111.548 130.049 139.236  0.00  0.00    +0.000 A 
ATOM     17  C   UNL     1     110.208 129.286 139.824  0.00  0.00    +0.000 A 
ATOM     18  C   UNL     1     111.233 130.272 139.964  0.00  0.00    +0.000 A 
ATOM     19  C   UNL     1     110.563 129.890 140.258  0.00  0.00    +0.000 A 
ENDBRANCH   7  14
BRANCH   4  20
ATOM     20  O   UNL     1     110.821 130.303 137.442  0.00  0.00    +0.000 OA
BRANCH  20  27
ATOM     21  O   UNL     1     109.703 129.628 136.862  0.00  0.00    +0.000 OA
ATOM     22  O   UNL     1     108.036 130.385 135.674  0.00  0.00    +0.000 OA
ATOM     23  C   UNL     1     109.154 131.060 136.254  0.00  0.00    +0.000 C 
ATOM     24  C   UNL     1     108.732 130.365 136.116  0.00  0.00    +0.000 C 
ATOM     25  C   UNL     1     109.850 131.040 136.696  0.00  0.00    +0.000 C 
ATOM     26  C   UNL     1     109.007 129.649 136.420  0.00  0.00    +0.000 C 
ATOM     27  C   UNL     1     110.125 130.324 137.000  0.00  0.00    +0.000 C 
ATOM     28  C   UNL     1     108.585 128.953 136.282  0.00  0.00    +0.000 C 
BRANCH  23  29
ATOM     29  O   UNL     1     108.879 131.776 135.950  0.00  0.00    +0.000 OA
BRANCH  29  31
ATOM     30  O   UNL     1     109.379 131.698 134.613  0.00  0.00    +0.000 OA
ATOM     31  C   UNL     1     108.763 131.862 135.138  0.00  0.00    +0.000 C 
ATOM     32  C   UNL     1     108.032 132.113 134.849  0.00  0.00    +0.000 C 
ENDBRANCH  29  31
ENDBRANCH  23  29
BRANCH  25  33
ATOM     33  O   UNL     1     110.271 131.735 136.834  0.00  0.00    +0.000 OA
BRANCH  33  35
ATOM     34  O   UNL     1     109.347 132.092 137.863  0.00  0.00    +0.000 OA
ATOM     35  C   UNL     1     110.025 132.257 137.424  0.00  0.00    +0.000 C 
ATOM     36  C   UNL     1     110.458 132.943 137.575  0.00  0.00    +0.000 C 
ENDBRANCH  33  35
ENDBRANCH  25  33
ENDBRANCH  20  27
ENDBRANCH   4  20
BRANCH   5  37
ATOM     37  O   UNL     1     113.678 126.770 136.451  0.00  0.00    +0.000 OA
BRANCH  37  46
ATOM     38  O   UNL     1     112.599 125.846 136.281  0.00  0.00    +0.000 OA
ATOM     39  O   UNL     1     113.994 124.042 137.243  0.00  0.00    +0.000 OA
ATOM     40  O   UNL     1     112.452 123.720 136.753  0.00  0.00    +0.000 OA
ATOM     41  O   UNL     1     114.607 125.566 137.093  0.00  0.00    +0.000 OA
ATOM     42  C   UNL     1     113.529 124.643 136.923  0.00  0.00    +0.000 C 
ATOM     43  C   UNL     1     112.758 124.483 136.677  0.00  0.00    +0.000 C 
ATOM     44  C   UNL     1     113.835 125.406 136.847  0.00  0.00    +0.000 C 
ATOM     45  C   UNL     1     112.293 125.084 136.357  0.00  0.00    +0.000 C 
ATOM     46  C   UNL     1     113.371 126.007 136.527  0.00  0.00    +0.000 C 
ATOM     47  C   UNL     1     111.522 124.923 136.111  0.00  0.00    +0.000 C 
ENDBRANCH  37  46
ENDBRANCH   5  37
TORSDOF 9
ENDMDL
MODEL 7
REMARK VINA RESULT:      -9.3      1.557      5.921
REMARK  Name = 44259028
REMARK  9 active torsions:
REMARK  status: ('A' for Active; 'I' for Inactive)
REMARK    1  A    between atoms: O_3  and  C_17
REMARK    2  A    between atoms: O_3  and  C_31
REMARK    3  A    between atoms: O_4  and  C_19
REMARK    4  A    between atoms: O_4  and  C_32
REMARK    5  A    between atoms: O_5  and  C_21
REMARK    6  A    between atoms: O_5  and  C_29
REMARK    7  A    between atoms: O_7  and  C_26
REMARK    8  A    between atoms: O_7  and  C_30
REMARK    9  A    between atoms: C_34  and  C_41
REMARK                            x       y       z     vdW  Elec       q    Type
REMARK                         _______ _______ _______ _____ _____    ______ ____
ROOT
ATOM      1  O   UNL     1     112.501 128.795 137.721  0.00  0.00    +0.000 OA
ATOM      2  O   UNL     1     112.033 128.333 140.107  0.00  0.00    +0.000 OA
ATOM      3  O   UNL     1     112.538 126.988 139.976  0.00  0.00    +0.000 OA
ATOM      4  C   UNL     1     112.014 129.227 138.993  0.00  0.00    +0.000 A 
ATOM      5  C   UNL     1     113.204 126.678 137.860  0.00  0.00    +0.000 A 
ATOM      6  C   UNL     1     112.188 128.487 139.312  0.00  0.00    +0.000 A 
ATOM      7  C   UNL     1     112.170 129.381 138.198  0.00  0.00    +0.000 A 
ATOM      8  C   UNL     1     112.519 127.900 138.836  0.00  0.00    +0.000 A 
ATOM      9  C   UNL     1     112.676 128.053 138.040  0.00  0.00    +0.000 A 
ATOM     10  C   UNL     1     113.020 127.451 137.533  0.00  0.00    +0.000 A 
ATOM     11  C   UNL     1     113.042 126.517 138.689  0.00  0.00    +0.000 A 
ATOM     12  C   UNL     1     112.697 127.133 139.180  0.00  0.00    +0.000 A 
ENDROOT
BRANCH   7  14
ATOM     13  O   UNL     1     111.470 132.343 136.921  0.00  0.00    +0.000 OA
ATOM     14  C   UNL     1     111.995 130.121 137.879  0.00  0.00    +0.000 A 
ATOM     15  C   UNL     1     111.224 130.297 137.642  0.00  0.00    +0.000 A 
ATOM     16  C   UNL     1     112.590 130.686 137.796  0.00  0.00    +0.000 A 
ATOM     17  C   UNL     1     111.049 131.038 137.322  0.00  0.00    +0.000 A 
ATOM     18  C   UNL     1     112.416 131.426 137.477  0.00  0.00    +0.000 A 
ATOM     19  C   UNL     1     111.645 131.602 137.240  0.00  0.00    +0.000 A 
ENDBRANCH   7  14
BRANCH   4  20
ATOM     20  O   UNL     1     111.683 129.814 139.469  0.00  0.00    +0.000 OA
BRANCH  20  27
ATOM     21  O   UNL     1     112.894 130.115 140.164  0.00  0.00    +0.000 OA
ATOM     22  O   UNL     1     113.238 130.783 142.214  0.00  0.00    +0.000 OA
ATOM     23  C   UNL     1     112.026 130.481 141.519  0.00  0.00    +0.000 C 
ATOM     24  C   UNL     1     112.848 130.541 141.528  0.00  0.00    +0.000 C 
ATOM     25  C   UNL     1     111.637 130.239 140.833  0.00  0.00    +0.000 C 
ATOM     26  C   UNL     1     113.282 130.358 140.851  0.00  0.00    +0.000 C 
ATOM     27  C   UNL     1     112.071 130.056 140.156  0.00  0.00    +0.000 C 
ATOM     28  C   UNL     1     114.106 130.417 140.860  0.00  0.00    +0.000 C 
BRANCH  23  29
ATOM     29  O   UNL     1     111.592 130.664 142.196  0.00  0.00    +0.000 OA
BRANCH  29  31
ATOM     30  O   UNL     1     111.720 129.421 142.889  0.00  0.00    +0.000 OA
ATOM     31  C   UNL     1     111.722 130.246 142.896  0.00  0.00    +0.000 C 
ATOM     32  C   UNL     1     111.854 130.653 143.601  0.00  0.00    +0.000 C 
ENDBRANCH  29  31
ENDBRANCH  23  29
BRANCH  25  33
ATOM     33  O   UNL     1     110.815 130.179 140.824  0.00  0.00    +0.000 OA
BRANCH  33  35
ATOM     34  O   UNL     1     110.713 131.593 140.642  0.00  0.00    +0.000 OA
ATOM     35  C   UNL     1     110.354 130.854 140.711  0.00  0.00    +0.000 C 
ATOM     36  C   UNL     1     109.532 130.790 140.667  0.00  0.00    +0.000 C 
ENDBRANCH  33  35
ENDBRANCH  25  33
ENDBRANCH  20  27
ENDBRANCH   4  20
BRANCH   5  37
ATOM     37  O   UNL     1     113.535 126.093 137.382  0.00  0.00    +0.000 OA
BRANCH  37  46
ATOM     38  O   UNL     1     112.337 125.663 136.730  0.00  0.00    +0.000 OA
ATOM     39  O   UNL     1     113.093 123.311 136.898  0.00  0.00    +0.000 OA
ATOM     40  O   UNL     1     111.644 123.664 136.192  0.00  0.00    +0.000 OA
ATOM     41  O   UNL     1     114.038 124.526 137.493  0.00  0.00    +0.000 OA
ATOM     42  C   UNL     1     112.841 124.095 136.842  0.00  0.00    +0.000 C 
ATOM     43  C   UNL     1     112.117 124.271 136.489  0.00  0.00    +0.000 C 
ATOM     44  C   UNL     1     113.314 124.703 137.140  0.00  0.00    +0.000 C 
ATOM     45  C   UNL     1     111.865 125.055 136.433  0.00  0.00    +0.000 C 
ATOM     46  C   UNL     1     113.062 125.486 137.084  0.00  0.00    +0.000 C 
ATOM     47  C   UNL     1     111.141 125.231 136.080  0.00  0.00    +0.000 C 
ENDBRANCH  37  46
ENDBRANCH   5  37
TORSDOF 9
ENDMDL
MODEL 8
REMARK VINA RESULT:      -9.3      2.255      6.197
REMARK  Name = 44259028
REMARK  9 active torsions:
REMARK  status: ('A' for Active; 'I' for Inactive)
REMARK    1  A    between atoms: O_3  and  C_17
REMARK    2  A    between atoms: O_3  and  C_31
REMARK    3  A    between atoms: O_4  and  C_19
REMARK    4  A    between atoms: O_4  and  C_32
REMARK    5  A    between atoms: O_5  and  C_21
REMARK    6  A    between atoms: O_5  and  C_29
REMARK    7  A    between atoms: O_7  and  C_26
REMARK    8  A    between atoms: O_7  and  C_30
REMARK    9  A    between atoms: C_34  and  C_41
REMARK                            x       y       z     vdW  Elec       q    Type
REMARK                         _______ _______ _______ _____ _____    ______ ____
ROOT
ATOM      1  O   UNL     1     113.079 128.171 138.426  0.00  0.00    +0.000 OA
ATOM      2  O   UNL     1     111.441 129.289 136.944  0.00  0.00    +0.000 OA
ATOM      3  O   UNL     1     111.670 128.313 135.907  0.00  0.00    +0.000 OA
ATOM      4  C   UNL     1     112.137 129.220 138.190  0.00  0.00    +0.000 A 
ATOM      5  C   UNL     1     113.195 126.842 136.633  0.00  0.00    +0.000 A 
ATOM      6  C   UNL     1     111.987 128.917 137.439  0.00  0.00    +0.000 A 
ATOM      7  C   UNL     1     112.683 128.847 138.684  0.00  0.00    +0.000 A 
ATOM      8  C   UNL     1     112.383 128.241 137.180  0.00  0.00    +0.000 A 
ATOM      9  C   UNL     1     112.928 127.867 137.673  0.00  0.00    +0.000 A 
ATOM     10  C   UNL     1     113.347 127.163 137.415  0.00  0.00    +0.000 A 
ATOM     11  C   UNL     1     112.626 127.230 136.118  0.00  0.00    +0.000 A 
ATOM     12  C   UNL     1     112.217 127.935 136.394  0.00  0.00    +0.000 A 
ENDROOT
BRANCH   7  14
ATOM     13  O   UNL     1     113.285 130.060 141.694  0.00  0.00    +0.000 OA
ATOM     14  C   UNL     1     112.834 129.150 139.436  0.00  0.00    +0.000 A 
ATOM     15  C   UNL     1     112.334 128.961 140.064  0.00  0.00    +0.000 A 
ATOM     16  C   UNL     1     113.484 129.642 139.561  0.00  0.00    +0.000 A 
ATOM     17  C   UNL     1     112.484 129.265 140.818  0.00  0.00    +0.000 A 
ATOM     18  C   UNL     1     113.635 129.945 140.313  0.00  0.00    +0.000 A 
ATOM     19  C   UNL     1     113.135 129.756 140.941  0.00  0.00    +0.000 A 
ENDBRANCH   7  14
BRANCH   4  20
ATOM     20  O   UNL     1     111.742 129.896 138.449  0.00  0.00    +0.000 OA
BRANCH  20  27
ATOM     21  O   UNL     1     112.494 130.805 137.643  0.00  0.00    +0.000 OA
ATOM     22  O   UNL     1     111.921 132.686 136.696  0.00  0.00    +0.000 OA
ATOM     23  C   UNL     1     111.169 131.777 137.502  0.00  0.00    +0.000 C 
ATOM     24  C   UNL     1     111.876 131.988 137.134  0.00  0.00    +0.000 C 
ATOM     25  C   UNL     1     111.123 131.080 137.940  0.00  0.00    +0.000 C 
ATOM     26  C   UNL     1     112.539 131.502 137.205  0.00  0.00    +0.000 C 
ATOM     27  C   UNL     1     111.786 130.593 138.011  0.00  0.00    +0.000 C 
ATOM     28  C   UNL     1     113.247 131.713 136.837  0.00  0.00    +0.000 C 
BRANCH  23  29
ATOM     29  O   UNL     1     110.506 132.263 137.431  0.00  0.00    +0.000 OA
BRANCH  29  31
ATOM     30  O   UNL     1     109.948 131.850 136.182  0.00  0.00    +0.000 OA
ATOM     31  C   UNL     1     110.209 132.451 136.685  0.00  0.00    +0.000 C 
ATOM     32  C   UNL     1     110.172 133.238 136.441  0.00  0.00    +0.000 C 
ENDBRANCH  29  31
ENDBRANCH  23  29
BRANCH  25  33
ATOM     33  O   UNL     1     110.416 130.868 138.308  0.00  0.00    +0.000 OA
BRANCH  33  35
ATOM     34  O   UNL     1     110.708 131.762 139.384  0.00  0.00    +0.000 OA
ATOM     35  C   UNL     1     110.212 131.205 139.033  0.00  0.00    +0.000 C 
ATOM     36  C   UNL     1     109.511 130.983 139.408  0.00  0.00    +0.000 C 
ENDBRANCH  33  35
ENDBRANCH  25  33
ENDBRANCH  20  27
ENDBRANCH   4  20
BRANCH   5  37
ATOM     37  O   UNL     1     113.592 126.166 136.377  0.00  0.00    +0.000 OA
BRANCH  37  46
ATOM     38  O   UNL     1     112.497 125.246 136.356  0.00  0.00    +0.000 OA
ATOM     39  O   UNL     1     113.930 123.520 137.402  0.00  0.00    +0.000 OA
ATOM     40  O   UNL     1     112.359 123.176 137.033  0.00  0.00    +0.000 OA
ATOM     41  O   UNL     1     114.546 125.015 137.073  0.00  0.00    +0.000 OA
ATOM     42  C   UNL     1     113.452 124.095 137.053  0.00  0.00    +0.000 C 
ATOM     43  C   UNL     1     112.667 123.923 136.869  0.00  0.00    +0.000 C 
ATOM     44  C   UNL     1     113.760 124.843 136.889  0.00  0.00    +0.000 C 
ATOM     45  C   UNL     1     112.189 124.499 136.521  0.00  0.00    +0.000 C 
ATOM     46  C   UNL     1     113.283 125.418 136.541  0.00  0.00    +0.000 C 
ATOM     47  C   UNL     1     111.404 124.327 136.336  0.00  0.00    +0.000 C 
ENDBRANCH  37  46
ENDBRANCH   5  37
TORSDOF 9
ENDMDL
MODEL 9
REMARK VINA RESULT:      -9.3      2.878      4.444
REMARK  Name = 44259028
REMARK  9 active torsions:
REMARK  status: ('A' for Active; 'I' for Inactive)
REMARK    1  A    between atoms: O_3  and  C_17
REMARK    2  A    between atoms: O_3  and  C_31
REMARK    3  A    between atoms: O_4  and  C_19
REMARK    4  A    between atoms: O_4  and  C_32
REMARK    5  A    between atoms: O_5  and  C_21
REMARK    6  A    between atoms: O_5  and  C_29
REMARK    7  A    between atoms: O_7  and  C_26
REMARK    8  A    between atoms: O_7  and  C_30
REMARK    9  A    between atoms: C_34  and  C_41
REMARK                            x       y       z     vdW  Elec       q    Type
REMARK                         _______ _______ _______ _____ _____    ______ ____
ROOT
ATOM      1  O   UNL     1     110.208 128.233 138.913  0.00  0.00    +0.000 OA
ATOM      2  O   UNL     1     111.914 127.611 137.230  0.00  0.00    +0.000 OA
ATOM      3  O   UNL     1     111.967 128.967 136.740  0.00  0.00    +0.000 OA
ATOM      4  C   UNL     1     111.045 127.247 138.304  0.00  0.00    +0.000 A 
ATOM      5  C   UNL     1     110.532 130.211 137.926  0.00  0.00    +0.000 A 
ATOM      6  C   UNL     1     111.346 127.818 137.791  0.00  0.00    +0.000 A 
ATOM      7  C   UNL     1     110.476 127.454 138.865  0.00  0.00    +0.000 A 
ATOM      8  C   UNL     1     111.078 128.596 137.838  0.00  0.00    +0.000 A 
ATOM      9  C   UNL     1     110.509 128.805 138.399  0.00  0.00    +0.000 A 
ATOM     10  C   UNL     1     110.222 129.612 138.458  0.00  0.00    +0.000 A 
ATOM     11  C   UNL     1     111.124 129.996 137.342  0.00  0.00    +0.000 A 
ATOM     12  C   UNL     1     111.399 129.182 137.298  0.00  0.00    +0.000 A 
ENDROOT
BRANCH   7  14
ATOM     13  O   UNL     1     109.273 125.169 140.920  0.00  0.00    +0.000 OA
ATOM     14  C   UNL     1     110.176 126.883 139.379  0.00  0.00    +0.000 A 
ATOM     15  C   UNL     1     110.467 126.825 140.148  0.00  0.00    +0.000 A 
ATOM     16  C   UNL     1     109.583 126.368 139.123  0.00  0.00    +0.000 A 
ATOM     17  C   UNL     1     110.167 126.254 140.662  0.00  0.00    +0.000 A 
ATOM     18  C   UNL     1     109.282 125.798 139.636  0.00  0.00    +0.000 A 
ATOM     19  C   UNL     1     109.574 125.740 140.406  0.00  0.00    +0.000 A 
ENDBRANCH   7  14
BRANCH   4  20
ATOM     20  O   UNL     1     111.313 126.468 138.257  0.00  0.00    +0.000 OA
BRANCH  20  27
ATOM     21  O   UNL     1     112.548 126.671 138.946  0.00  0.00    +0.000 OA
ATOM     22  O   UNL     1     114.524 125.802 138.622  0.00  0.00    +0.000 OA
ATOM     23  C   UNL     1     113.289 125.598 137.934  0.00  0.00    +0.000 C 
ATOM     24  C   UNL     1     113.721 125.968 138.531  0.00  0.00    +0.000 C 
ATOM     25  C   UNL     1     112.486 125.765 137.842  0.00  0.00    +0.000 C 
ATOM     26  C   UNL     1     113.351 126.504 139.037  0.00  0.00    +0.000 C 
ATOM     27  C   UNL     1     112.115 126.301 138.348  0.00  0.00    +0.000 C 
ATOM     28  C   UNL     1     113.784 126.874 139.634  0.00  0.00    +0.000 C 
BRANCH  23  29
ATOM     29  O   UNL     1     113.659 125.062 137.428  0.00  0.00    +0.000 OA
BRANCH  29  31
ATOM     30  O   UNL     1     114.256 125.964 136.495  0.00  0.00    +0.000 OA
ATOM     31  C   UNL     1     114.310 125.299 136.980  0.00  0.00    +0.000 C 
ATOM     32  C   UNL     1     115.014 124.871 137.017  0.00  0.00    +0.000 C 
ENDBRANCH  29  31
ENDBRANCH  23  29
BRANCH  25  33
ATOM     33  O   UNL     1     112.053 125.395 137.245  0.00  0.00    +0.000 OA
BRANCH  33  35
ATOM     34  O   UNL     1     111.820 124.271 138.096  0.00  0.00    +0.000 OA
ATOM     35  C   UNL     1     111.778 124.625 137.352  0.00  0.00    +0.000 C 
ATOM     36  C   UNL     1     111.461 124.208 136.714  0.00  0.00    +0.000 C 
ENDBRANCH  33  35
ENDBRANCH  25  33
ENDBRANCH  20  27
ENDBRANCH   4  20
BRANCH   5  37
ATOM     37  O   UNL     1     110.262 130.989 137.976  0.00  0.00    +0.000 OA
BRANCH  37  46
ATOM     38  O   UNL     1     109.364 130.972 136.863  0.00  0.00    +0.000 OA
ATOM     39  O   UNL     1     107.719 132.279 138.173  0.00  0.00    +0.000 OA
ATOM     40  O   UNL     1     107.369 131.827 136.625  0.00  0.00    +0.000 OA
ATOM     41  O   UNL     1     109.165 131.861 138.848  0.00  0.00    +0.000 OA
ATOM     42  C   UNL     1     108.267 131.844 137.736  0.00  0.00    +0.000 C 
ATOM     43  C   UNL     1     108.092 131.617 136.962  0.00  0.00    +0.000 C 
ATOM     44  C   UNL     1     108.990 131.634 138.074  0.00  0.00    +0.000 C 
ATOM     45  C   UNL     1     108.640 131.182 136.526  0.00  0.00    +0.000 C 
ATOM     46  C   UNL     1     109.539 131.199 137.637  0.00  0.00    +0.000 C 
ATOM     47  C   UNL     1     108.466 130.956 135.752  0.00  0.00    +0.000 C 
ENDBRANCH  37  46
ENDBRANCH   5  37
TORSDOF 9
ENDMDL
MODEL 10
REMARK VINA RESULT:      -9.2      2.736      4.686
REMARK  Name = 44259028
REMARK  9 active torsions:
REMARK  status: ('A' for Active; 'I' for Inactive)
REMARK    1  A    between atoms: O_3  and  C_17
REMARK    2  A    between atoms: O_3  and  C_31
REMARK    3  A    between atoms: O_4  and  C_19
REMARK    4  A    between atoms: O_4  and  C_32
REMARK    5  A    between atoms: O_5  and  C_21
REMARK    6  A    between atoms: O_5  and  C_29
REMARK    7  A    between atoms: O_7  and  C_26
REMARK    8  A    between atoms: O_7  and  C_30
REMARK    9  A    between atoms: C_34  and  C_41
REMARK                            x       y       z     vdW  Elec       q    Type
REMARK                         _______ _______ _______ _____ _____    ______ ____
ROOT
ATOM      1  O   UNL     1     111.946 130.238 137.480  0.00  0.00    +0.000 OA
ATOM      2  O   UNL     1     111.458 127.847 137.065  0.00  0.00    +0.000 OA
ATOM      3  O   UNL     1     110.411 128.192 136.135  0.00  0.00    +0.000 OA
ATOM      4  C   UNL     1     112.218 128.858 137.731  0.00  0.00    +0.000 A 
ATOM      5  C   UNL     1     110.281 130.424 136.002  0.00  0.00    +0.000 A 
ATOM      6  C   UNL     1     111.621 128.644 137.204  0.00  0.00    +0.000 A 
ATOM      7  C   UNL     1     112.381 129.655 137.869  0.00  0.00    +0.000 A 
ATOM      8  C   UNL     1     111.187 129.227 136.814  0.00  0.00    +0.000 A 
ATOM      9  C   UNL     1     111.349 130.024 136.952  0.00  0.00    +0.000 A 
ATOM     10  C   UNL     1     110.904 130.641 136.552  0.00  0.00    +0.000 A 
ATOM     11  C   UNL     1     110.111 129.594 135.858  0.00  0.00    +0.000 A 
ATOM     12  C   UNL     1     110.567 128.991 136.267  0.00  0.00    +0.000 A 
ENDROOT
BRANCH   7  14
ATOM     13  O   UNL     1     114.770 130.512 139.979  0.00  0.00    +0.000 OA
ATOM     14  C   UNL     1     112.978 129.869 138.396  0.00  0.00    +0.000 A 
ATOM     15  C   UNL     1     113.724 130.078 138.112  0.00  0.00    +0.000 A 
ATOM     16  C   UNL     1     112.830 129.875 139.208  0.00  0.00    +0.000 A 
ATOM     17  C   UNL     1     114.321 130.292 138.640  0.00  0.00    +0.000 A 
ATOM     18  C   UNL     1     113.426 130.089 139.735  0.00  0.00    +0.000 A 
ATOM     19  C   UNL     1     114.172 130.298 139.451  0.00  0.00    +0.000 A 
ENDBRANCH   7  14
BRANCH   4  20
ATOM     20  O   UNL     1     112.653 128.275 138.121  0.00  0.00    +0.000 OA
BRANCH  20  27
ATOM     21  O   UNL     1     113.451 127.914 136.992  0.00  0.00    +0.000 OA
ATOM     22  O   UNL     1     114.274 125.986 136.382  0.00  0.00    +0.000 OA
ATOM     23  C   UNL     1     113.475 126.348 137.510  0.00  0.00    +0.000 C 
ATOM     24  C   UNL     1     113.868 126.558 136.817  0.00  0.00    +0.000 C 
ATOM     25  C   UNL     1     113.070 126.920 137.946  0.00  0.00    +0.000 C 
ATOM     26  C   UNL     1     113.856 127.341 136.558  0.00  0.00    +0.000 C 
ATOM     27  C   UNL     1     113.058 127.703 137.686  0.00  0.00    +0.000 C 
ATOM     28  C   UNL     1     114.250 127.552 135.863  0.00  0.00    +0.000 C 
BRANCH  23  29
ATOM     29  O   UNL     1     113.487 125.565 137.770  0.00  0.00    +0.000 OA
BRANCH  29  31
ATOM     30  O   UNL     1     112.402 125.003 137.028  0.00  0.00    +0.000 OA
ATOM     31  C   UNL     1     113.184 124.966 137.290  0.00  0.00    +0.000 C 
ATOM     32  C   UNL     1     113.663 124.330 137.071  0.00  0.00    +0.000 C 
ENDBRANCH  29  31
ENDBRANCH  23  29
BRANCH  25  33
ATOM     33  O   UNL     1     112.677 126.709 138.639  0.00  0.00    +0.000 OA
BRANCH  33  35
ATOM     34  O   UNL     1     113.912 126.751 139.356  0.00  0.00    +0.000 OA
ATOM     35  C   UNL     1     113.092 126.661 139.350  0.00  0.00    +0.000 C 
ATOM     36  C   UNL     1     112.687 126.524 140.057  0.00  0.00    +0.000 C 
ENDBRANCH  33  35
ENDBRANCH  25  33
ENDBRANCH  20  27
ENDBRANCH   4  20
BRANCH   5  37
ATOM     37  O   UNL     1     109.848 131.010 135.614  0.00  0.00    +0.000 OA
BRANCH  37  46
ATOM     38  O   UNL     1     109.043 131.429 136.719  0.00  0.00    +0.000 OA
ATOM     39  O   UNL     1     107.089 131.640 135.216  0.00  0.00    +0.000 OA
ATOM     40  O   UNL     1     106.936 131.989 136.821  0.00  0.00    +0.000 OA
ATOM     41  O   UNL     1     108.544 131.151 134.612  0.00  0.00    +0.000 OA
ATOM     42  C   UNL     1     107.740 131.570 135.717  0.00  0.00    +0.000 C 
ATOM     43  C   UNL     1     107.664 131.744 136.520  0.00  0.00    +0.000 C 
ATOM     44  C   UNL     1     108.468 131.325 135.415  0.00  0.00    +0.000 C 
ATOM     45  C   UNL     1     108.316 131.674 137.021  0.00  0.00    +0.000 C 
ATOM     46  C   UNL     1     109.120 131.255 135.916  0.00  0.00    +0.000 C 
ATOM     47  C   UNL     1     108.240 131.848 137.824  0.00  0.00    +0.000 C 
ENDBRANCH  37  46
ENDBRANCH   5  37
TORSDOF 9
ENDMDL
