MODEL 1
REMARK VINA RESULT:      -9.8      0.000      0.000
REMARK  Name = 14630703
REMARK  5 active torsions:
REMARK  status: ('A' for Active; 'I' for Inactive)
REMARK    1  A    between atoms: O_2  and  C_17
REMARK    2  A    between atoms: O_2  and  C_19
REMARK    3  A    between atoms: O_11  and  C_31
REMARK    4  A    between atoms: C_16  and  C_18
REMARK    5  A    between atoms: C_26  and  C_28
REMARK                            x       y       z     vdW  Elec       q    Type
REMARK                         _______ _______ _______ _____ _____    ______ ____
ROOT
ATOM      1  O   UNL     1     112.095 126.700 136.253  0.00  0.00    +0.000 OA
ATOM      2  O   UNL     1     109.657 125.940 134.903  0.00  0.00    +0.000 OA
ATOM      3  O   UNL     1     110.551 124.944 135.441  0.00  0.00    +0.000 OA
ATOM      4  C   UNL     1     110.511 127.969 135.317  0.00  0.00    +0.000 A 
ATOM      5  C   UNL     1     111.230 127.743 135.730  0.00  0.00    +0.000 A 
ATOM      6  C   UNL     1     109.975 127.359 135.035  0.00  0.00    +0.000 A 
ATOM      7  C   UNL     1     111.403 126.911 135.856  0.00  0.00    +0.000 A 
ATOM      8  C   UNL     1     110.889 126.326 135.585  0.00  0.00    +0.000 A 
ATOM      9  C   UNL     1     110.165 126.532 135.170  0.00  0.00    +0.000 A 
ATOM     10  C   UNL     1     111.065 125.530 135.711  0.00  0.00    +0.000 A 
ATOM     11  C   UNL     1     112.272 125.904 136.379  0.00  0.00    +0.000 A 
ATOM     12  C   UNL     1     111.757 125.319 136.108  0.00  0.00    +0.000 A 
ENDROOT
BRANCH  11  14
ATOM     13  O   UNL     1     115.039 125.061 137.968  0.00  0.00    +0.000 OA
ATOM     14  C   UNL     1     112.964 125.693 136.776  0.00  0.00    +0.000 A 
ATOM     15  C   UNL     1     113.078 125.929 137.559  0.00  0.00    +0.000 A 
ATOM     16  C   UNL     1     113.541 125.247 136.391  0.00  0.00    +0.000 A 
ATOM     17  C   UNL     1     113.770 125.719 137.956  0.00  0.00    +0.000 A 
ATOM     18  C   UNL     1     114.232 125.036 136.789  0.00  0.00    +0.000 A 
ATOM     19  C   UNL     1     114.347 125.272 137.571  0.00  0.00    +0.000 A 
BRANCH  17  20
ATOM     20  O   UNL     1     113.885 125.954 138.738  0.00  0.00    +0.000 OA
ATOM     21  C   UNL     1     113.390 126.522 139.075  0.00  0.00    +0.000 C 
ENDBRANCH  17  20
ENDBRANCH  11  14
BRANCH   4  22
ATOM     22  O   UNL     1     110.336 128.766 135.192  0.00  0.00    +0.000 OA
BRANCH  22  31
ATOM     23  O   UNL     1     109.975 129.118 136.529  0.00  0.00    +0.000 OA
ATOM     24  O   UNL     1     108.089 130.467 135.663  0.00  0.00    +0.000 OA
ATOM     25  O   UNL     1     108.356 130.369 137.288  0.00  0.00    +0.000 OA
ATOM     26  O   UNL     1     109.079 129.665 134.615  0.00  0.00    +0.000 OA
ATOM     27  C   UNL     1     108.718 130.017 135.952  0.00  0.00    +0.000 C 
ATOM     28  C   UNL     1     108.852 129.968 136.764  0.00  0.00    +0.000 C 
ATOM     29  C   UNL     1     109.213 129.616 135.427  0.00  0.00    +0.000 C 
ATOM     30  C   UNL     1     109.480 129.518 137.053  0.00  0.00    +0.000 C 
ATOM     31  C   UNL     1     109.842 129.166 135.716  0.00  0.00    +0.000 C 
BRANCH  30  34
ATOM     32  O   UNL     1     109.202 128.916 138.319  0.00  0.00    +0.000 OA
ATOM     33  O   UNL     1     110.158 129.974 138.224  0.00  0.00    +0.000 OA
ATOM     34  C   UNL     1     109.613 129.470 137.865  0.00  0.00    +0.000 C 
ENDBRANCH  30  34
ENDBRANCH  22  31
ENDBRANCH   4  22
TORSDOF 5
ENDMDL
MODEL 2
REMARK VINA RESULT:      -9.5      7.034     10.416
REMARK  Name = 14630703
REMARK  5 active torsions:
REMARK  status: ('A' for Active; 'I' for Inactive)
REMARK    1  A    between atoms: O_2  and  C_17
REMARK    2  A    between atoms: O_2  and  C_19
REMARK    3  A    between atoms: O_11  and  C_31
REMARK    4  A    between atoms: C_16  and  C_18
REMARK    5  A    between atoms: C_26  and  C_28
REMARK                            x       y       z     vdW  Elec       q    Type
REMARK                         _______ _______ _______ _____ _____    ______ ____
ROOT
ATOM      1  O   UNL     1     103.153 130.269 141.976  0.00  0.00    +0.000 OA
ATOM      2  O   UNL     1     103.695 127.996 140.277  0.00  0.00    +0.000 OA
ATOM      3  O   UNL     1     102.756 129.015 139.879  0.00  0.00    +0.000 OA
ATOM      4  C   UNL     1     104.529 128.534 142.285  0.00  0.00    +0.000 A 
ATOM      5  C   UNL     1     104.108 129.271 142.426  0.00  0.00    +0.000 A 
ATOM      6  C   UNL     1     104.391 128.100 141.557  0.00  0.00    +0.000 A 
ATOM      7  C   UNL     1     103.555 129.561 141.836  0.00  0.00    +0.000 A 
ATOM      8  C   UNL     1     103.422 129.144 141.137  0.00  0.00    +0.000 A 
ATOM      9  C   UNL     1     103.834 128.406 140.979  0.00  0.00    +0.000 A 
ATOM     10  C   UNL     1     102.889 129.433 140.578  0.00  0.00    +0.000 A 
ATOM     11  C   UNL     1     102.619 130.558 141.418  0.00  0.00    +0.000 A 
ATOM     12  C   UNL     1     102.487 130.140 140.719  0.00  0.00    +0.000 A 
ENDROOT
BRANCH  11  14
ATOM     13  O   UNL     1     101.015 133.386 141.978  0.00  0.00    +0.000 OA
ATOM     14  C   UNL     1     102.218 131.265 141.558  0.00  0.00    +0.000 A 
ATOM     15  C   UNL     1     102.567 131.984 141.352  0.00  0.00    +0.000 A 
ATOM     16  C   UNL     1     101.469 131.253 141.903  0.00  0.00    +0.000 A 
ATOM     17  C   UNL     1     102.165 132.691 141.493  0.00  0.00    +0.000 A 
ATOM     18  C   UNL     1     101.068 131.960 142.043  0.00  0.00    +0.000 A 
ATOM     19  C   UNL     1     101.416 132.679 141.838  0.00  0.00    +0.000 A 
BRANCH  17  20
ATOM     20  O   UNL     1     102.513 133.411 141.288  0.00  0.00    +0.000 OA
ATOM     21  C   UNL     1     103.327 133.516 141.377  0.00  0.00    +0.000 C 
ENDBRANCH  17  20
ENDBRANCH  11  14
BRANCH   4  22
ATOM     22  O   UNL     1     105.062 128.247 142.846  0.00  0.00    +0.000 OA
BRANCH  22  31
ATOM     23  O   UNL     1     106.215 128.881 142.287  0.00  0.00    +0.000 OA
ATOM     24  O   UNL     1     107.609 126.957 142.980  0.00  0.00    +0.000 OA
ATOM     25  O   UNL     1     108.296 128.232 142.191  0.00  0.00    +0.000 OA
ATOM     26  O   UNL     1     105.991 126.964 143.307  0.00  0.00    +0.000 OA
ATOM     27  C   UNL     1     107.144 127.598 142.749  0.00  0.00    +0.000 C 
ATOM     28  C   UNL     1     107.487 128.236 142.354  0.00  0.00    +0.000 C 
ATOM     29  C   UNL     1     106.335 127.602 142.913  0.00  0.00    +0.000 C 
ATOM     30  C   UNL     1     107.023 128.878 142.123  0.00  0.00    +0.000 C 
ATOM     31  C   UNL     1     105.870 128.244 142.682  0.00  0.00    +0.000 C 
BRANCH  30  34
ATOM     32  O   UNL     1     107.641 130.165 142.156  0.00  0.00    +0.000 OA
ATOM     33  O   UNL     1     107.436 129.502 140.907  0.00  0.00    +0.000 OA
ATOM     34  C   UNL     1     107.366 129.515 141.729  0.00  0.00    +0.000 C 
ENDBRANCH  30  34
ENDBRANCH  22  31
ENDBRANCH   4  22
TORSDOF 5
ENDMDL
MODEL 3
REMARK VINA RESULT:      -9.5      1.876      3.041
REMARK  Name = 14630703
REMARK  5 active torsions:
REMARK  status: ('A' for Active; 'I' for Inactive)
REMARK    1  A    between atoms: O_2  and  C_17
REMARK    2  A    between atoms: O_2  and  C_19
REMARK    3  A    between atoms: O_11  and  C_31
REMARK    4  A    between atoms: C_16  and  C_18
REMARK    5  A    between atoms: C_26  and  C_28
REMARK                            x       y       z     vdW  Elec       q    Type
REMARK                         _______ _______ _______ _____ _____    ______ ____
ROOT
ATOM      1  O   UNL     1     110.342 127.924 136.000  0.00  0.00    +0.000 OA
ATOM      2  O   UNL     1     107.896 129.449 135.809  0.00  0.00    +0.000 OA
ATOM      3  O   UNL     1     107.878 128.007 135.775  0.00  0.00    +0.000 OA
ATOM      4  C   UNL     1     110.017 130.136 136.019  0.00  0.00    +0.000 A 
ATOM      5  C   UNL     1     110.416 129.374 136.039  0.00  0.00    +0.000 A 
ATOM      6  C   UNL     1     109.162 130.164 135.941  0.00  0.00    +0.000 A 
ATOM      7  C   UNL     1     109.954 128.652 135.981  0.00  0.00    +0.000 A 
ATOM      8  C   UNL     1     109.133 128.680 135.905  0.00  0.00    +0.000 A 
ATOM      9  C   UNL     1     108.717 129.431 135.884  0.00  0.00    +0.000 A 
ATOM     10  C   UNL     1     108.700 127.980 135.850  0.00  0.00    +0.000 A 
ATOM     11  C   UNL     1     109.909 127.224 135.945  0.00  0.00    +0.000 A 
ATOM     12  C   UNL     1     109.088 127.252 135.870  0.00  0.00    +0.000 A 
ENDROOT
BRANCH  11  14
ATOM     13  O   UNL     1     111.461 124.313 136.024  0.00  0.00    +0.000 OA
ATOM     14  C   UNL     1     110.297 126.497 135.964  0.00  0.00    +0.000 A 
ATOM     15  C   UNL     1     110.485 126.149 136.689  0.00  0.00    +0.000 A 
ATOM     16  C   UNL     1     110.497 126.116 135.260  0.00  0.00    +0.000 A 
ATOM     17  C   UNL     1     110.873 125.421 136.709  0.00  0.00    +0.000 A 
ATOM     18  C   UNL     1     110.885 125.389 135.280  0.00  0.00    +0.000 A 
ATOM     19  C   UNL     1     111.073 125.041 136.005  0.00  0.00    +0.000 A 
BRANCH  17  20
ATOM     20  O   UNL     1     111.062 125.074 137.433  0.00  0.00    +0.000 OA
ATOM     21  C   UNL     1     111.263 125.547 138.078  0.00  0.00    +0.000 C 
ENDBRANCH  17  20
ENDBRANCH  11  14
BRANCH   4  22
ATOM     22  O   UNL     1     110.453 130.834 136.075  0.00  0.00    +0.000 OA
BRANCH  22  31
ATOM     23  O   UNL     1     110.638 130.872 137.491  0.00  0.00    +0.000 OA
ATOM     24  O   UNL     1     110.153 133.300 137.489  0.00  0.00    +0.000 OA
ATOM     25  O   UNL     1     110.499 132.529 138.905  0.00  0.00    +0.000 OA
ATOM     26  O   UNL     1     110.130 132.452 136.073  0.00  0.00    +0.000 OA
ATOM     27  C   UNL     1     110.315 132.490 137.490  0.00  0.00    +0.000 C 
ATOM     28  C   UNL     1     110.488 132.104 138.198  0.00  0.00    +0.000 C 
ATOM     29  C   UNL     1     110.303 132.066 136.781  0.00  0.00    +0.000 C 
ATOM     30  C   UNL     1     110.649 131.295 138.199  0.00  0.00    +0.000 C 
ATOM     31  C   UNL     1     110.465 131.257 136.782  0.00  0.00    +0.000 C 
BRANCH  30  34
ATOM     32  O   UNL     1     111.603 130.860 139.170  0.00  0.00    +0.000 OA
ATOM     33  O   UNL     1     110.215 130.575 139.353  0.00  0.00    +0.000 OA
ATOM     34  C   UNL     1     110.822 130.910 138.907  0.00  0.00    +0.000 C 
ENDBRANCH  30  34
ENDBRANCH  22  31
ENDBRANCH   4  22
TORSDOF 5
ENDMDL
MODEL 4
REMARK VINA RESULT:      -9.5      8.706     10.482
REMARK  Name = 14630703
REMARK  5 active torsions:
REMARK  status: ('A' for Active; 'I' for Inactive)
REMARK    1  A    between atoms: O_2  and  C_17
REMARK    2  A    between atoms: O_2  and  C_19
REMARK    3  A    between atoms: O_11  and  C_31
REMARK    4  A    between atoms: C_16  and  C_18
REMARK    5  A    between atoms: C_26  and  C_28
REMARK                            x       y       z     vdW  Elec       q    Type
REMARK                         _______ _______ _______ _____ _____    ______ ____
ROOT
ATOM      1  O   UNL     1     106.602 125.771 146.187  0.00  0.00    +0.000 OA
ATOM      2  O   UNL     1     106.142 128.435 145.169  0.00  0.00    +0.000 OA
ATOM      3  O   UNL     1     106.683 128.226 146.490  0.00  0.00    +0.000 OA
ATOM      4  C   UNL     1     105.789 126.439 144.215  0.00  0.00    +0.000 A 
ATOM      5  C   UNL     1     106.056 125.925 144.850  0.00  0.00    +0.000 A 
ATOM      6  C   UNL     1     105.817 127.292 144.321  0.00  0.00    +0.000 A 
ATOM      7  C   UNL     1     106.347 126.270 145.581  0.00  0.00    +0.000 A 
ATOM      8  C   UNL     1     106.374 127.088 145.682  0.00  0.00    +0.000 A 
ATOM      9  C   UNL     1     106.112 127.618 145.059  0.00  0.00    +0.000 A 
ATOM     10  C   UNL     1     106.656 127.407 146.388  0.00  0.00    +0.000 A 
ATOM     11  C   UNL     1     106.884 126.090 146.893  0.00  0.00    +0.000 A 
ATOM     12  C   UNL     1     106.911 126.909 146.994  0.00  0.00    +0.000 A 
ENDROOT
BRANCH  11  14
ATOM     13  O   UNL     1     107.902 124.095 149.316  0.00  0.00    +0.000 OA
ATOM     14  C   UNL     1     107.139 125.591 147.499  0.00  0.00    +0.000 A 
ATOM     15  C   UNL     1     106.591 125.269 148.026  0.00  0.00    +0.000 A 
ATOM     16  C   UNL     1     107.941 125.415 147.578  0.00  0.00    +0.000 A 
ATOM     17  C   UNL     1     106.846 124.771 148.632  0.00  0.00    +0.000 A 
ATOM     18  C   UNL     1     108.195 124.916 148.184  0.00  0.00    +0.000 A 
ATOM     19  C   UNL     1     107.647 124.594 148.711  0.00  0.00    +0.000 A 
BRANCH  17  20
ATOM     20  O   UNL     1     106.298 124.448 149.158  0.00  0.00    +0.000 OA
ATOM     21  C   UNL     1     105.600 124.854 149.327  0.00  0.00    +0.000 C 
ENDBRANCH  17  20
ENDBRANCH  11  14
BRANCH   4  22
ATOM     22  O   UNL     1     105.508 126.117 143.510  0.00  0.00    +0.000 OA
BRANCH  22  31
ATOM     23  O   UNL     1     106.631 126.441 142.688  0.00  0.00    +0.000 OA
ATOM     24  O   UNL     1     106.431 124.251 141.552  0.00  0.00    +0.000 OA
ATOM     25  O   UNL     1     107.620 125.305 141.109  0.00  0.00    +0.000 OA
ATOM     26  O   UNL     1     105.374 124.657 142.752  0.00  0.00    +0.000 OA
ATOM     27  C   UNL     1     106.498 124.981 141.930  0.00  0.00    +0.000 C 
ATOM     28  C   UNL     1     107.092 125.509 141.709  0.00  0.00    +0.000 C 
ATOM     29  C   UNL     1     105.969 125.185 142.531  0.00  0.00    +0.000 C 
ATOM     30  C   UNL     1     107.159 126.238 142.088  0.00  0.00    +0.000 C 
ATOM     31  C   UNL     1     106.036 125.914 142.910  0.00  0.00    +0.000 C 
BRANCH  30  34
ATOM     32  O   UNL     1     107.605 127.338 141.292  0.00  0.00    +0.000 OA
ATOM     33  O   UNL     1     108.498 126.718 142.219  0.00  0.00    +0.000 OA
ATOM     34  C   UNL     1     107.753 126.765 141.867  0.00  0.00    +0.000 C 
ENDBRANCH  30  34
ENDBRANCH  22  31
ENDBRANCH   4  22
TORSDOF 5
ENDMDL
MODEL 5
REMARK VINA RESULT:      -9.4      1.546      2.535
REMARK  Name = 14630703
REMARK  5 active torsions:
REMARK  status: ('A' for Active; 'I' for Inactive)
REMARK    1  A    between atoms: O_2  and  C_17
REMARK    2  A    between atoms: O_2  and  C_19
REMARK    3  A    between atoms: O_11  and  C_31
REMARK    4  A    between atoms: C_16  and  C_18
REMARK    5  A    between atoms: C_26  and  C_28
REMARK                            x       y       z     vdW  Elec       q    Type
REMARK                         _______ _______ _______ _____ _____    ______ ____
ROOT
ATOM      1  O   UNL     1     112.675 127.216 137.096  0.00  0.00    +0.000 OA
ATOM      2  O   UNL     1     113.132 129.701 135.697  0.00  0.00    +0.000 OA
ATOM      3  O   UNL     1     114.028 128.583 135.538  0.00  0.00    +0.000 OA
ATOM      4  C   UNL     1     111.500 129.117 137.117  0.00  0.00    +0.000 A 
ATOM      5  C   UNL     1     111.742 128.311 137.292  0.00  0.00    +0.000 A 
ATOM      6  C   UNL     1     111.970 129.591 136.576  0.00  0.00    +0.000 A 
ATOM      7  C   UNL     1     112.449 127.990 136.924  0.00  0.00    +0.000 A 
ATOM      8  C   UNL     1     112.899 128.446 136.405  0.00  0.00    +0.000 A 
ATOM      9  C   UNL     1     112.674 129.253 136.217  0.00  0.00    +0.000 A 
ATOM     10  C   UNL     1     113.576 128.127 136.058  0.00  0.00    +0.000 A 
ATOM     11  C   UNL     1     113.352 126.897 136.749  0.00  0.00    +0.000 A 
ATOM     12  C   UNL     1     113.803 127.353 136.230  0.00  0.00    +0.000 A 
ENDROOT
BRANCH  11  14
ATOM     13  O   UNL     1     114.256 123.799 137.436  0.00  0.00    +0.000 OA
ATOM     14  C   UNL     1     113.578 126.122 136.921  0.00  0.00    +0.000 A 
ATOM     15  C   UNL     1     113.169 125.489 136.585  0.00  0.00    +0.000 A 
ATOM     16  C   UNL     1     114.213 125.981 137.428  0.00  0.00    +0.000 A 
ATOM     17  C   UNL     1     113.395 124.714 136.757  0.00  0.00    +0.000 A 
ATOM     18  C   UNL     1     114.439 125.207 137.599  0.00  0.00    +0.000 A 
ATOM     19  C   UNL     1     114.030 124.573 137.264  0.00  0.00    +0.000 A 
BRANCH  17  20
ATOM     20  O   UNL     1     112.986 124.081 136.422  0.00  0.00    +0.000 OA
ATOM     21  C   UNL     1     112.163 124.047 136.474  0.00  0.00    +0.000 C 
ENDBRANCH  17  20
ENDBRANCH  11  14
BRANCH   4  22
ATOM     22  O   UNL     1     110.823 129.433 137.465  0.00  0.00    +0.000 OA
BRANCH  22  31
ATOM     23  O   UNL     1     109.867 128.797 136.615  0.00  0.00    +0.000 OA
ATOM     24  O   UNL     1     108.485 130.850 136.632  0.00  0.00    +0.000 OA
ATOM     25  O   UNL     1     107.990 129.529 135.777  0.00  0.00    +0.000 OA
ATOM     26  O   UNL     1     109.901 130.802 137.476  0.00  0.00    +0.000 OA
ATOM     27  C   UNL     1     108.945 130.165 136.626  0.00  0.00    +0.000 C 
ATOM     28  C   UNL     1     108.698 129.505 136.199  0.00  0.00    +0.000 C 
ATOM     29  C   UNL     1     109.654 130.141 137.049  0.00  0.00    +0.000 C 
ATOM     30  C   UNL     1     109.159 128.820 136.193  0.00  0.00    +0.000 C 
ATOM     31  C   UNL     1     110.115 129.457 137.043  0.00  0.00    +0.000 C 
BRANCH  30  34
ATOM     32  O   UNL     1     109.164 128.053 134.988  0.00  0.00    +0.000 OA
ATOM     33  O   UNL     1     108.410 127.606 136.116  0.00  0.00    +0.000 OA
ATOM     34  C   UNL     1     108.911 128.160 135.766  0.00  0.00    +0.000 C 
ENDBRANCH  30  34
ENDBRANCH  22  31
ENDBRANCH   4  22
TORSDOF 5
ENDMDL
MODEL 6
REMARK VINA RESULT:      -9.4      2.594      4.189
REMARK  Name = 14630703
REMARK  5 active torsions:
REMARK  status: ('A' for Active; 'I' for Inactive)
REMARK    1  A    between atoms: O_2  and  C_17
REMARK    2  A    between atoms: O_2  and  C_19
REMARK    3  A    between atoms: O_11  and  C_31
REMARK    4  A    between atoms: C_16  and  C_18
REMARK    5  A    between atoms: C_26  and  C_28
REMARK                            x       y       z     vdW  Elec       q    Type
REMARK                         _______ _______ _______ _____ _____    ______ ____
ROOT
ATOM      1  O   UNL     1     112.570 128.336 135.554  0.00  0.00    +0.000 OA
ATOM      2  O   UNL     1     109.803 128.438 134.730  0.00  0.00    +0.000 OA
ATOM      3  O   UNL     1     110.655 129.597 134.622  0.00  0.00    +0.000 OA
ATOM      4  C   UNL     1     110.998 126.748 135.586  0.00  0.00    +0.000 A 
ATOM      5  C   UNL     1     111.757 127.140 135.684  0.00  0.00    +0.000 A 
ATOM      6  C   UNL     1     110.333 127.186 135.263  0.00  0.00    +0.000 A 
ATOM      7  C   UNL     1     111.840 127.964 135.457  0.00  0.00    +0.000 A 
ATOM      8  C   UNL     1     111.201 128.385 135.147  0.00  0.00    +0.000 A 
ATOM      9  C   UNL     1     110.436 128.010 135.042  0.00  0.00    +0.000 A 
ATOM     10  C   UNL     1     111.293 129.176 134.932  0.00  0.00    +0.000 A 
ATOM     11  C   UNL     1     112.662 129.127 135.339  0.00  0.00    +0.000 A 
ATOM     12  C   UNL     1     112.024 129.547 135.029  0.00  0.00    +0.000 A 
ENDROOT
BRANCH  11  14
ATOM     13  O   UNL     1     115.584 130.612 135.725  0.00  0.00    +0.000 OA
ATOM     14  C   UNL     1     113.393 129.498 135.436  0.00  0.00    +0.000 A 
ATOM     15  C   UNL     1     113.535 129.962 136.104  0.00  0.00    +0.000 A 
ATOM     16  C   UNL     1     113.981 129.406 134.864  0.00  0.00    +0.000 A 
ATOM     17  C   UNL     1     114.265 130.333 136.200  0.00  0.00    +0.000 A 
ATOM     18  C   UNL     1     114.711 129.778 134.961  0.00  0.00    +0.000 A 
ATOM     19  C   UNL     1     114.853 130.241 135.629  0.00  0.00    +0.000 A 
BRANCH  17  20
ATOM     20  O   UNL     1     114.408 130.796 136.868  0.00  0.00    +0.000 OA
ATOM     21  C   UNL     1     114.157 130.538 137.610  0.00  0.00    +0.000 C 
ENDBRANCH  17  20
ENDBRANCH  11  14
BRANCH   4  22
ATOM     22  O   UNL     1     110.909 125.956 135.801  0.00  0.00    +0.000 OA
BRANCH  22  31
ATOM     23  O   UNL     1     110.425 126.206 137.123  0.00  0.00    +0.000 OA
ATOM     24  O   UNL     1     111.631 124.205 137.942  0.00  0.00    +0.000 OA
ATOM     25  O   UNL     1     110.745 125.121 138.989  0.00  0.00    +0.000 OA
ATOM     26  O   UNL     1     111.712 124.623 136.347  0.00  0.00    +0.000 OA
ATOM     27  C   UNL     1     111.229 124.872 137.669  0.00  0.00    +0.000 C 
ATOM     28  C   UNL     1     110.786 125.330 138.192  0.00  0.00    +0.000 C 
ATOM     29  C   UNL     1     111.270 125.081 136.871  0.00  0.00    +0.000 C 
ATOM     30  C   UNL     1     110.384 125.997 137.919  0.00  0.00    +0.000 C 
ATOM     31  C   UNL     1     110.868 125.748 136.598  0.00  0.00    +0.000 C 
BRANCH  30  34
ATOM     32  O   UNL     1     110.313 127.025 138.909  0.00  0.00    +0.000 OA
ATOM     33  O   UNL     1     109.126 126.342 138.502  0.00  0.00    +0.000 OA
ATOM     34  C   UNL     1     109.942 126.455 138.443  0.00  0.00    +0.000 C 
ENDBRANCH  30  34
ENDBRANCH  22  31
ENDBRANCH   4  22
TORSDOF 5
ENDMDL
MODEL 7
REMARK VINA RESULT:      -9.3      2.938      4.335
REMARK  Name = 14630703
REMARK  5 active torsions:
REMARK  status: ('A' for Active; 'I' for Inactive)
REMARK    1  A    between atoms: O_2  and  C_17
REMARK    2  A    between atoms: O_2  and  C_19
REMARK    3  A    between atoms: O_11  and  C_31
REMARK    4  A    between atoms: C_16  and  C_18
REMARK    5  A    between atoms: C_26  and  C_28
REMARK                            x       y       z     vdW  Elec       q    Type
REMARK                         _______ _______ _______ _____ _____    ______ ____
ROOT
ATOM      1  O   UNL     1     113.000 127.503 137.354  0.00  0.00    +0.000 OA
ATOM      2  O   UNL     1     113.890 129.975 136.151  0.00  0.00    +0.000 OA
ATOM      3  O   UNL     1     114.236 128.699 135.573  0.00  0.00    +0.000 OA
ATOM      4  C   UNL     1     112.649 129.620 137.982  0.00  0.00    +0.000 A 
ATOM      5  C   UNL     1     112.624 128.760 137.976  0.00  0.00    +0.000 A 
ATOM      6  C   UNL     1     113.078 130.034 137.363  0.00  0.00    +0.000 A 
ATOM      7  C   UNL     1     113.028 128.328 137.353  0.00  0.00    +0.000 A 
ATOM      8  C   UNL     1     113.440 128.727 136.760  0.00  0.00    +0.000 A 
ATOM      9  C   UNL     1     113.476 129.585 136.748  0.00  0.00    +0.000 A 
ATOM     10  C   UNL     1     113.824 128.301 136.167  0.00  0.00    +0.000 A 
ATOM     11  C   UNL     1     113.384 127.077 136.761  0.00  0.00    +0.000 A 
ATOM     12  C   UNL     1     113.796 127.476 136.167  0.00  0.00    +0.000 A 
ENDROOT
BRANCH  11  14
ATOM     13  O   UNL     1     113.273 123.779 136.761  0.00  0.00    +0.000 OA
ATOM     14  C   UNL     1     113.357 126.253 136.761  0.00  0.00    +0.000 A 
ATOM     15  C   UNL     1     112.693 125.863 136.463  0.00  0.00    +0.000 A 
ATOM     16  C   UNL     1     113.992 125.819 137.058  0.00  0.00    +0.000 A 
ATOM     17  C   UNL     1     112.665 125.038 136.464  0.00  0.00    +0.000 A 
ATOM     18  C   UNL     1     113.964 124.995 137.058  0.00  0.00    +0.000 A 
ATOM     19  C   UNL     1     113.301 124.604 136.761  0.00  0.00    +0.000 A 
BRANCH  17  20
ATOM     20  O   UNL     1     112.002 124.647 136.166  0.00  0.00    +0.000 OA
ATOM     21  C   UNL     1     111.253 124.985 136.248  0.00  0.00    +0.000 C 
ENDBRANCH  17  20
ENDBRANCH  11  14
BRANCH   4  22
ATOM     22  O   UNL     1     112.264 130.043 138.576  0.00  0.00    +0.000 OA
BRANCH  22  31
ATOM     23  O   UNL     1     113.397 130.258 139.421  0.00  0.00    +0.000 OA
ATOM     24  O   UNL     1     111.981 129.879 141.415  0.00  0.00    +0.000 OA
ATOM     25  O   UNL     1     113.584 130.220 141.594  0.00  0.00    +0.000 OA
ATOM     26  O   UNL     1     111.320 129.791 139.906  0.00  0.00    +0.000 OA
ATOM     27  C   UNL     1     112.453 130.005 140.750  0.00  0.00    +0.000 C 
ATOM     28  C   UNL     1     113.255 130.176 140.840  0.00  0.00    +0.000 C 
ATOM     29  C   UNL     1     112.123 129.961 139.995  0.00  0.00    +0.000 C 
ATOM     30  C   UNL     1     113.727 130.302 140.175  0.00  0.00    +0.000 C 
ATOM     31  C   UNL     1     112.595 130.087 139.330  0.00  0.00    +0.000 C 
BRANCH  30  34
ATOM     32  O   UNL     1     115.074 129.859 140.355  0.00  0.00    +0.000 OA
ATOM     33  O   UNL     1     114.786 131.256 140.265  0.00  0.00    +0.000 OA
ATOM     34  C   UNL     1     114.528 130.472 140.265  0.00  0.00    +0.000 C 
ENDBRANCH  30  34
ENDBRANCH  22  31
ENDBRANCH   4  22
TORSDOF 5
ENDMDL
MODEL 8
REMARK VINA RESULT:      -9.3      1.606      2.180
REMARK  Name = 14630703
REMARK  5 active torsions:
REMARK  status: ('A' for Active; 'I' for Inactive)
REMARK    1  A    between atoms: O_2  and  C_17
REMARK    2  A    between atoms: O_2  and  C_19
REMARK    3  A    between atoms: O_11  and  C_31
REMARK    4  A    between atoms: C_16  and  C_18
REMARK    5  A    between atoms: C_26  and  C_28
REMARK                            x       y       z     vdW  Elec       q    Type
REMARK                         _______ _______ _______ _____ _____    ______ ____
ROOT
ATOM      1  O   UNL     1     111.511 127.160 136.150  0.00  0.00    +0.000 OA
ATOM      2  O   UNL     1     113.313 129.358 135.633  0.00  0.00    +0.000 OA
ATOM      3  O   UNL     1     113.799 128.106 136.158  0.00  0.00    +0.000 OA
ATOM      4  C   UNL     1     111.096 129.205 135.349  0.00  0.00    +0.000 A 
ATOM      5  C   UNL     1     110.969 128.399 135.621  0.00  0.00    +0.000 A 
ATOM      6  C   UNL     1     111.890 129.533 135.353  0.00  0.00    +0.000 A 
ATOM      7  C   UNL     1     111.639 127.933 135.891  0.00  0.00    +0.000 A 
ATOM      8  C   UNL     1     112.401 128.248 135.893  0.00  0.00    +0.000 A 
ATOM      9  C   UNL     1     112.547 129.051 135.626  0.00  0.00    +0.000 A 
ATOM     10  C   UNL     1     113.036 127.791 136.155  0.00  0.00    +0.000 A 
ATOM     11  C   UNL     1     112.146 126.702 136.411  0.00  0.00    +0.000 A 
ATOM     12  C   UNL     1     112.908 127.018 136.414  0.00  0.00    +0.000 A 
ENDROOT
BRANCH  11  14
ATOM     13  O   UNL     1     111.636 123.611 137.448  0.00  0.00    +0.000 OA
ATOM     14  C   UNL     1     112.018 125.929 136.670  0.00  0.00    +0.000 A 
ATOM     15  C   UNL     1     111.695 125.793 137.417  0.00  0.00    +0.000 A 
ATOM     16  C   UNL     1     112.214 125.293 136.183  0.00  0.00    +0.000 A 
ATOM     17  C   UNL     1     111.567 125.020 137.676  0.00  0.00    +0.000 A 
ATOM     18  C   UNL     1     112.087 124.521 136.442  0.00  0.00    +0.000 A 
ATOM     19  C   UNL     1     111.763 124.384 137.189  0.00  0.00    +0.000 A 
BRANCH  17  20
ATOM     20  O   UNL     1     111.244 124.883 138.423  0.00  0.00    +0.000 OA
ATOM     21  C   UNL     1     110.778 125.462 138.783  0.00  0.00    +0.000 C 
ENDBRANCH  17  20
ENDBRANCH  11  14
BRANCH   4  22
ATOM     22  O   UNL     1     110.459 129.660 135.088  0.00  0.00    +0.000 OA
BRANCH  22  31
ATOM     23  O   UNL     1     110.218 130.376 136.301  0.00  0.00    +0.000 OA
ATOM     24  O   UNL     1     107.778 130.168 135.939  0.00  0.00    +0.000 OA
ATOM     25  O   UNL     1     108.350 130.953 137.271  0.00  0.00    +0.000 OA
ATOM     26  O   UNL     1     108.833 129.522 134.847  0.00  0.00    +0.000 OA
ATOM     27  C   UNL     1     108.592 130.238 136.059  0.00  0.00    +0.000 C 
ATOM     28  C   UNL     1     108.878 130.630 136.726  0.00  0.00    +0.000 C 
ATOM     29  C   UNL     1     109.119 129.914 135.513  0.00  0.00    +0.000 C 
ATOM     30  C   UNL     1     109.691 130.699 136.847  0.00  0.00    +0.000 C 
ATOM     31  C   UNL     1     109.933 129.983 135.634  0.00  0.00    +0.000 C 
BRANCH  30  34
ATOM     32  O   UNL     1     110.083 130.681 138.221  0.00  0.00    +0.000 OA
ATOM     33  O   UNL     1     110.157 131.896 137.473  0.00  0.00    +0.000 OA
ATOM     34  C   UNL     1     109.977 131.092 137.513  0.00  0.00    +0.000 C 
ENDBRANCH  30  34
ENDBRANCH  22  31
ENDBRANCH   4  22
TORSDOF 5
ENDMDL
MODEL 9
REMARK VINA RESULT:      -9.2      1.810      5.255
REMARK  Name = 14630703
REMARK  5 active torsions:
REMARK  status: ('A' for Active; 'I' for Inactive)
REMARK    1  A    between atoms: O_2  and  C_17
REMARK    2  A    between atoms: O_2  and  C_19
REMARK    3  A    between atoms: O_11  and  C_31
REMARK    4  A    between atoms: C_16  and  C_18
REMARK    5  A    between atoms: C_26  and  C_28
REMARK                            x       y       z     vdW  Elec       q    Type
REMARK                         _______ _______ _______ _____ _____    ______ ____
ROOT
ATOM      1  O   UNL     1     110.095 130.098 136.631  0.00  0.00    +0.000 OA
ATOM      2  O   UNL     1     108.041 128.362 135.575  0.00  0.00    +0.000 OA
ATOM      3  O   UNL     1     107.716 129.664 136.104  0.00  0.00    +0.000 OA
ATOM      4  C   UNL     1     110.253 128.050 135.750  0.00  0.00    +0.000 A 
ATOM      5  C   UNL     1     110.478 128.797 136.111  0.00  0.00    +0.000 A 
ATOM      6  C   UNL     1     109.427 127.900 135.567  0.00  0.00    +0.000 A 
ATOM      7  C   UNL     1     109.873 129.383 136.284  0.00  0.00    +0.000 A 
ATOM      8  C   UNL     1     109.081 129.238 136.108  0.00  0.00    +0.000 A 
ATOM      9  C   UNL     1     108.837 128.498 135.747  0.00  0.00    +0.000 A 
ATOM     10  C   UNL     1     108.509 129.808 136.279  0.00  0.00    +0.000 A 
ATOM     11  C   UNL     1     109.524 130.668 136.802  0.00  0.00    +0.000 A 
ATOM     12  C   UNL     1     108.731 130.524 136.626  0.00  0.00    +0.000 A 
ENDROOT
BRANCH  11  14
ATOM     13  O   UNL     1     110.411 133.528 138.189  0.00  0.00    +0.000 OA
ATOM     14  C   UNL     1     109.746 131.384 137.149  0.00  0.00    +0.000 A 
ATOM     15  C   UNL     1     109.821 131.438 137.969  0.00  0.00    +0.000 A 
ATOM     16  C   UNL     1     109.892 132.043 136.676  0.00  0.00    +0.000 A 
ATOM     17  C   UNL     1     110.042 132.153 138.316  0.00  0.00    +0.000 A 
ATOM     18  C   UNL     1     110.114 132.758 137.023  0.00  0.00    +0.000 A 
ATOM     19  C   UNL     1     110.189 132.813 137.843  0.00  0.00    +0.000 A 
BRANCH  17  20
ATOM     20  O   UNL     1     110.117 132.208 139.135  0.00  0.00    +0.000 OA
ATOM     21  C   UNL     1     110.141 131.523 139.594  0.00  0.00    +0.000 C 
ENDBRANCH  17  20
ENDBRANCH  11  14
BRANCH   4  22
ATOM     22  O   UNL     1     110.826 127.482 135.580  0.00  0.00    +0.000 OA
BRANCH  22  31
ATOM     23  O   UNL     1     110.913 126.895 136.880  0.00  0.00    +0.000 OA
ATOM     24  O   UNL     1     111.093 124.649 135.854  0.00  0.00    +0.000 OA
ATOM     25  O   UNL     1     111.120 124.811 137.495  0.00  0.00    +0.000 OA
ATOM     26  O   UNL     1     110.946 125.985 134.896  0.00  0.00    +0.000 OA
ATOM     27  C   UNL     1     111.033 125.398 136.196  0.00  0.00    +0.000 C 
ATOM     28  C   UNL     1     111.046 125.479 137.017  0.00  0.00    +0.000 C 
ATOM     29  C   UNL     1     110.959 126.066 135.717  0.00  0.00    +0.000 C 
ATOM     30  C   UNL     1     110.986 126.228 137.359  0.00  0.00    +0.000 C 
ATOM     31  C   UNL     1     110.899 126.815 136.059  0.00  0.00    +0.000 C 
BRANCH  30  34
ATOM     32  O   UNL     1     110.301 126.240 138.612  0.00  0.00    +0.000 OA
ATOM     33  O   UNL     1     111.712 126.457 138.567  0.00  0.00    +0.000 OA
ATOM     34  C   UNL     1     110.999 126.308 138.179  0.00  0.00    +0.000 C 
ENDBRANCH  30  34
ENDBRANCH  22  31
ENDBRANCH   4  22
TORSDOF 5
ENDMDL
MODEL 10
REMARK VINA RESULT:      -9.2      2.949      5.596
REMARK  Name = 14630703
REMARK  5 active torsions:
REMARK  status: ('A' for Active; 'I' for Inactive)
REMARK    1  A    between atoms: O_2  and  C_17
REMARK    2  A    between atoms: O_2  and  C_19
REMARK    3  A    between atoms: O_11  and  C_31
REMARK    4  A    between atoms: C_16  and  C_18
REMARK    5  A    between atoms: C_26  and  C_28
REMARK                            x       y       z     vdW  Elec       q    Type
REMARK                         _______ _______ _______ _____ _____    ______ ____
ROOT
ATOM      1  O   UNL     1     113.163 128.786 139.369  0.00  0.00    +0.000 OA
ATOM      2  O   UNL     1     111.582 128.629 136.957  0.00  0.00    +0.000 OA
ATOM      3  O   UNL     1     112.141 129.882 137.400  0.00  0.00    +0.000 OA
ATOM      4  C   UNL     1     112.164 127.030 138.413  0.00  0.00    +0.000 A 
ATOM      5  C   UNL     1     112.624 127.498 138.969  0.00  0.00    +0.000 A 
ATOM      6  C   UNL     1     111.810 127.411 137.730  0.00  0.00    +0.000 A 
ATOM      7  C   UNL     1     112.722 128.341 138.833  0.00  0.00    +0.000 A 
ATOM      8  C   UNL     1     112.381 128.706 138.176  0.00  0.00    +0.000 A 
ATOM      9  C   UNL     1     111.919 128.254 137.611  0.00  0.00    +0.000 A 
ATOM     10  C   UNL     1     112.482 129.516 138.056  0.00  0.00    +0.000 A 
ATOM     11  C   UNL     1     113.264 129.596 139.249  0.00  0.00    +0.000 A 
ATOM     12  C   UNL     1     112.924 129.961 138.593  0.00  0.00    +0.000 A 
ENDROOT
BRANCH  11  14
ATOM     13  O   UNL     1     115.031 131.374 141.395  0.00  0.00    +0.000 OA
ATOM     14  C   UNL     1     113.706 130.040 139.786  0.00  0.00    +0.000 A 
ATOM     15  C   UNL     1     113.381 130.247 140.516  0.00  0.00    +0.000 A 
ATOM     16  C   UNL     1     114.472 130.278 139.592  0.00  0.00    +0.000 A 
ATOM     17  C   UNL     1     113.823 130.691 141.052  0.00  0.00    +0.000 A 
ATOM     18  C   UNL     1     114.913 130.723 140.129  0.00  0.00    +0.000 A 
ATOM     19  C   UNL     1     114.589 130.930 140.859  0.00  0.00    +0.000 A 
BRANCH  17  20
ATOM     20  O   UNL     1     113.499 130.898 141.782  0.00  0.00    +0.000 OA
ATOM     21  C   UNL     1     112.759 130.607 142.002  0.00  0.00    +0.000 C 
ENDBRANCH  17  20
ENDBRANCH  11  14
BRANCH   4  22
ATOM     22  O   UNL     1     112.065 126.220 138.536  0.00  0.00    +0.000 OA
BRANCH  22  31
ATOM     23  O   UNL     1     113.247 125.763 137.875  0.00  0.00    +0.000 OA
ATOM     24  O   UNL     1     111.970 123.885 136.890  0.00  0.00    +0.000 OA
ATOM     25  O   UNL     1     113.576 124.054 136.558  0.00  0.00    +0.000 OA
ATOM     26  O   UNL     1     111.214 124.968 137.879  0.00  0.00    +0.000 OA
ATOM     27  C   UNL     1     112.395 124.511 137.218  0.00  0.00    +0.000 C 
ATOM     28  C   UNL     1     113.199 124.596 137.053  0.00  0.00    +0.000 C 
ATOM     29  C   UNL     1     112.017 125.053 137.713  0.00  0.00    +0.000 C 
ATOM     30  C   UNL     1     113.625 125.222 137.381  0.00  0.00    +0.000 C 
ATOM     31  C   UNL     1     112.443 125.679 138.042  0.00  0.00    +0.000 C 
BRANCH  30  34
ATOM     32  O   UNL     1     114.991 124.993 137.730  0.00  0.00    +0.000 OA
ATOM     33  O   UNL     1     114.668 125.703 136.533  0.00  0.00    +0.000 OA
ATOM     34  C   UNL     1     114.428 125.306 137.215  0.00  0.00    +0.000 C 
ENDBRANCH  30  34
ENDBRANCH  22  31
ENDBRANCH   4  22
TORSDOF 5
ENDMDL
