MODEL 1
REMARK VINA RESULT:      -9.1      0.000      0.000
REMARK  Name = 14187088
REMARK  4 active torsions:
REMARK  status: ('A' for Active; 'I' for Inactive)
REMARK    1  A    between atoms: O_2  and  C_16
REMARK    2  A    between atoms: O_2  and  C_18
REMARK    3  A    between atoms: C_17  and  C_20
REMARK    4  A    between atoms: C_19  and  C_22
REMARK                            x       y       z     vdW  Elec       q    Type
REMARK                         _______ _______ _______ _____ _____    ______ ____
ROOT
ATOM      1  O   UNL     1     111.138 126.242 136.302  0.00  0.00    +0.000 OA
ATOM      2  O   UNL     1     114.027 127.044 136.381  0.00  0.00    +0.000 OA
ATOM      3  O   UNL     1     114.506 125.409 136.778  0.00  0.00    +0.000 OA
ATOM      4  O   UNL     1     112.013 122.916 137.101  0.00  0.00    +0.000 OA
ATOM      5  C   UNL     1     112.362 127.457 136.145  0.00  0.00    +0.000 C 
ATOM      6  C   UNL     1     111.399 127.190 136.119  0.00  0.00    +0.000 C 
ATOM      7  C   UNL     1     113.064 126.776 136.355  0.00  0.00    +0.000 C 
ATOM      8  C   UNL     1     112.803 125.829 136.538  0.00  0.00    +0.000 A 
ATOM      9  C   UNL     1     111.840 125.561 136.511  0.00  0.00    +0.000 A 
ATOM     10  C   UNL     1     113.546 125.131 136.754  0.00  0.00    +0.000 A 
ATOM     11  C   UNL     1     111.552 124.577 136.700  0.00  0.00    +0.000 A 
ATOM     12  C   UNL     1     113.281 124.141 136.946  0.00  0.00    +0.000 A 
ATOM     13  C   UNL     1     112.278 123.863 136.919  0.00  0.00    +0.000 A 
ENDROOT
BRANCH   6  16
ATOM     14  O   UNL     1     108.842 129.281 137.162  0.00  0.00    +0.000 OA
ATOM     15  O   UNL     1     108.590 129.911 135.281  0.00  0.00    +0.000 OA
ATOM     16  C   UNL     1     110.696 127.870 135.909  0.00  0.00    +0.000 A 
ATOM     17  C   UNL     1     110.120 128.235 136.641  0.00  0.00    +0.000 A 
ATOM     18  C   UNL     1     110.570 128.185 134.969  0.00  0.00    +0.000 A 
ATOM     19  C   UNL     1     109.418 128.916 136.431  0.00  0.00    +0.000 A 
ATOM     20  C   UNL     1     109.868 128.866 134.759  0.00  0.00    +0.000 A 
ATOM     21  C   UNL     1     109.292 129.231 135.491  0.00  0.00    +0.000 A 
ENDBRANCH   6  16
BRANCH   5  22
ATOM     22  O   UNL     1     112.623 128.405 135.962  0.00  0.00    +0.000 OA
BRANCH  22  30
ATOM     23  O   UNL     1     112.786 128.712 137.659  0.00  0.00    +0.000 OA
ATOM     24  O   UNL     1     114.160 131.309 137.057  0.00  0.00    +0.000 OA
ATOM     25  O   UNL     1     113.539 130.137 135.561  0.00  0.00    +0.000 OA
ATOM     26  O   UNL     1     113.865 130.750 138.955  0.00  0.00    +0.000 OA
ATOM     27  C   UNL     1     113.702 130.443 137.258  0.00  0.00    +0.000 C 
ATOM     28  C   UNL     1     113.392 129.857 136.510  0.00  0.00    +0.000 C 
ATOM     29  C   UNL     1     113.555 130.164 138.207  0.00  0.00    +0.000 C 
ATOM     30  C   UNL     1     112.933 128.991 136.710  0.00  0.00    +0.000 C 
ATOM     31  C   UNL     1     113.096 129.298 138.407  0.00  0.00    +0.000 C 
BRANCH  31  33
ATOM     32  O   UNL     1     112.457 128.171 139.557  0.00  0.00    +0.000 OA
ATOM     33  C   UNL     1     112.949 129.019 139.356  0.00  0.00    +0.000 C 
ENDBRANCH  31  33
ENDBRANCH  22  30
ENDBRANCH   5  22
TORSDOF 4
ENDMDL
MODEL 2
REMARK VINA RESULT:      -8.9      1.195      3.428
REMARK  Name = 14187088
REMARK  4 active torsions:
REMARK  status: ('A' for Active; 'I' for Inactive)
REMARK    1  A    between atoms: O_2  and  C_16
REMARK    2  A    between atoms: O_2  and  C_18
REMARK    3  A    between atoms: C_17  and  C_20
REMARK    4  A    between atoms: C_19  and  C_22
REMARK                            x       y       z     vdW  Elec       q    Type
REMARK                         _______ _______ _______ _____ _____    ______ ____
ROOT
ATOM      1  O   UNL     1     113.379 126.943 136.479  0.00  0.00    +0.000 OA
ATOM      2  O   UNL     1     110.561 126.738 135.473  0.00  0.00    +0.000 OA
ATOM      3  O   UNL     1     110.526 125.024 135.816  0.00  0.00    +0.000 OA
ATOM      4  O   UNL     1     113.397 123.488 137.205  0.00  0.00    +0.000 OA
ATOM      5  C   UNL     1     111.971 127.689 135.800  0.00  0.00    +0.000 C 
ATOM      6  C   UNL     1     112.911 127.757 136.135  0.00  0.00    +0.000 C 
ATOM      7  C   UNL     1     111.500 126.806 135.808  0.00  0.00    +0.000 C 
ATOM      8  C   UNL     1     111.969 125.993 136.152  0.00  0.00    +0.000 A 
ATOM      9  C   UNL     1     112.908 126.061 136.487  0.00  0.00    +0.000 A 
ATOM     10  C   UNL     1     111.465 125.081 136.154  0.00  0.00    +0.000 A 
ATOM     11  C   UNL     1     113.409 125.222 136.849  0.00  0.00    +0.000 A 
ATOM     12  C   UNL     1     111.947 124.228 136.511  0.00  0.00    +0.000 A 
ATOM     13  C   UNL     1     112.926 124.299 136.861  0.00  0.00    +0.000 A 
ENDROOT
BRANCH   6  16
ATOM     14  O   UNL     1     114.010 130.586 137.804  0.00  0.00    +0.000 OA
ATOM     15  O   UNL     1     114.795 131.285 136.102  0.00  0.00    +0.000 OA
ATOM     16  C   UNL     1     113.382 128.639 136.127  0.00  0.00    +0.000 A 
ATOM     17  C   UNL     1     113.461 129.171 136.970  0.00  0.00    +0.000 A 
ATOM     18  C   UNL     1     113.774 128.988 135.276  0.00  0.00    +0.000 A 
ATOM     19  C   UNL     1     113.931 130.054 136.962  0.00  0.00    +0.000 A 
ATOM     20  C   UNL     1     114.245 129.870 135.268  0.00  0.00    +0.000 A 
ATOM     21  C   UNL     1     114.324 130.403 136.111  0.00  0.00    +0.000 A 
ENDBRANCH   6  16
BRANCH   5  22
ATOM     22  O   UNL     1     111.503 128.502 135.456  0.00  0.00    +0.000 OA
BRANCH  22  30
ATOM     23  O   UNL     1     110.652 128.674 136.955  0.00  0.00    +0.000 OA
ATOM     24  O   UNL     1     108.828 130.691 135.689  0.00  0.00    +0.000 OA
ATOM     25  O   UNL     1     110.287 129.847 134.612  0.00  0.00    +0.000 OA
ATOM     26  O   UNL     1     108.585 130.190 137.610  0.00  0.00    +0.000 OA
ATOM     27  C   UNL     1     109.436 130.019 136.111  0.00  0.00    +0.000 C 
ATOM     28  C   UNL     1     110.165 129.597 135.572  0.00  0.00    +0.000 C 
ATOM     29  C   UNL     1     109.315 129.768 137.071  0.00  0.00    +0.000 C 
ATOM     30  C   UNL     1     110.773 128.924 135.994  0.00  0.00    +0.000 C 
ATOM     31  C   UNL     1     109.923 129.096 137.493  0.00  0.00    +0.000 C 
BRANCH  31  33
ATOM     32  O   UNL     1     110.438 128.209 138.889  0.00  0.00    +0.000 OA
ATOM     33  C   UNL     1     109.801 128.845 138.454  0.00  0.00    +0.000 C 
ENDBRANCH  31  33
ENDBRANCH  22  30
ENDBRANCH   5  22
TORSDOF 4
ENDMDL
MODEL 3
REMARK VINA RESULT:      -8.8      1.763      4.391
REMARK  Name = 14187088
REMARK  4 active torsions:
REMARK  status: ('A' for Active; 'I' for Inactive)
REMARK    1  A    between atoms: O_2  and  C_16
REMARK    2  A    between atoms: O_2  and  C_18
REMARK    3  A    between atoms: C_17  and  C_20
REMARK    4  A    between atoms: C_19  and  C_22
REMARK                            x       y       z     vdW  Elec       q    Type
REMARK                         _______ _______ _______ _____ _____    ______ ____
ROOT
ATOM      1  O   UNL     1     112.937 128.552 135.263  0.00  0.00    +0.000 OA
ATOM      2  O   UNL     1     112.842 129.527 138.098  0.00  0.00    +0.000 OA
ATOM      3  O   UNL     1     114.213 130.576 137.820  0.00  0.00    +0.000 OA
ATOM      4  O   UNL     1     115.710 130.639 134.612  0.00  0.00    +0.000 OA
ATOM      5  C   UNL     1     112.210 128.525 136.835  0.00  0.00    +0.000 C 
ATOM      6  C   UNL     1     112.241 128.200 135.889  0.00  0.00    +0.000 C 
ATOM      7  C   UNL     1     112.873 129.202 137.153  0.00  0.00    +0.000 C 
ATOM      8  C   UNL     1     113.569 129.553 136.527  0.00  0.00    +0.000 A 
ATOM      9  C   UNL     1     113.601 129.228 135.582  0.00  0.00    +0.000 A 
ATOM     10  C   UNL     1     114.254 130.258 136.873  0.00  0.00    +0.000 A 
ATOM     11  C   UNL     1     114.320 129.585 134.917  0.00  0.00    +0.000 A 
ATOM     12  C   UNL     1     114.982 130.629 136.226  0.00  0.00    +0.000 A 
ATOM     13  C   UNL     1     115.015 130.290 135.242  0.00  0.00    +0.000 A 
ENDROOT
BRANCH   6  16
ATOM     14  O   UNL     1     111.049 124.948 135.864  0.00  0.00    +0.000 OA
ATOM     15  O   UNL     1     109.586 125.494 134.615  0.00  0.00    +0.000 OA
ATOM     16  C   UNL     1     111.578 127.524 135.571  0.00  0.00    +0.000 A 
ATOM     17  C   UNL     1     111.645 126.574 135.877  0.00  0.00    +0.000 A 
ATOM     18  C   UNL     1     110.846 127.797 134.946  0.00  0.00    +0.000 A 
ATOM     19  C   UNL     1     110.981 125.898 135.558  0.00  0.00    +0.000 A 
ATOM     20  C   UNL     1     110.182 127.120 134.628  0.00  0.00    +0.000 A 
ATOM     21  C   UNL     1     110.250 126.171 134.934  0.00  0.00    +0.000 A 
ENDBRANCH   6  16
BRANCH   5  22
ATOM     22  O   UNL     1     111.514 128.174 137.461  0.00  0.00    +0.000 OA
BRANCH  22  30
ATOM     23  O   UNL     1     110.544 129.592 137.239  0.00  0.00    +0.000 OA
ATOM     24  O   UNL     1     108.949 128.883 139.679  0.00  0.00    +0.000 OA
ATOM     25  O   UNL     1     110.451 127.702 139.088  0.00  0.00    +0.000 OA
ATOM     26  O   UNL     1     108.511 130.537 138.643  0.00  0.00    +0.000 OA
ATOM     27  C   UNL     1     109.481 129.119 138.865  0.00  0.00    +0.000 C 
ATOM     28  C   UNL     1     110.231 128.529 138.570  0.00  0.00    +0.000 C 
ATOM     29  C   UNL     1     109.261 129.946 138.347  0.00  0.00    +0.000 C 
ATOM     30  C   UNL     1     110.763 128.765 137.757  0.00  0.00    +0.000 C 
ATOM     31  C   UNL     1     109.793 130.182 137.534  0.00  0.00    +0.000 C 
BRANCH  31  33
ATOM     32  O   UNL     1     110.157 131.291 136.255  0.00  0.00    +0.000 OA
ATOM     33  C   UNL     1     109.574 131.009 137.016  0.00  0.00    +0.000 C 
ENDBRANCH  31  33
ENDBRANCH  22  30
ENDBRANCH   5  22
TORSDOF 4
ENDMDL
MODEL 4
REMARK VINA RESULT:      -8.8      2.044      4.865
REMARK  Name = 14187088
REMARK  4 active torsions:
REMARK  status: ('A' for Active; 'I' for Inactive)
REMARK    1  A    between atoms: O_2  and  C_16
REMARK    2  A    between atoms: O_2  and  C_18
REMARK    3  A    between atoms: C_17  and  C_20
REMARK    4  A    between atoms: C_19  and  C_22
REMARK                            x       y       z     vdW  Elec       q    Type
REMARK                         _______ _______ _______ _____ _____    ______ ____
ROOT
ATOM      1  O   UNL     1     113.748 127.964 136.225  0.00  0.00    +0.000 OA
ATOM      2  O   UNL     1     112.195 129.424 138.337  0.00  0.00    +0.000 OA
ATOM      3  O   UNL     1     112.881 130.952 137.834  0.00  0.00    +0.000 OA
ATOM      4  O   UNL     1     115.182 131.004 135.144  0.00  0.00    +0.000 OA
ATOM      5  C   UNL     1     112.622 127.945 137.542  0.00  0.00    +0.000 C 
ATOM      6  C   UNL     1     113.140 127.459 136.838  0.00  0.00    +0.000 C 
ATOM      7  C   UNL     1     112.712 128.937 137.633  0.00  0.00    +0.000 C 
ATOM      8  C   UNL     1     113.320 129.443 137.020  0.00  0.00    +0.000 A 
ATOM      9  C   UNL     1     113.838 128.956 136.316  0.00  0.00    +0.000 A 
ATOM     10  C   UNL     1     113.403 130.475 137.127  0.00  0.00    +0.000 A 
ATOM     11  C   UNL     1     114.475 129.469 135.670  0.00  0.00    +0.000 A 
ATOM     12  C   UNL     1     114.034 131.009 136.492  0.00  0.00    +0.000 A 
ATOM     13  C   UNL     1     114.573 130.502 135.759  0.00  0.00    +0.000 A 
ENDROOT
BRANCH   6  16
ATOM     14  O   UNL     1     111.289 124.689 135.889  0.00  0.00    +0.000 OA
ATOM     15  O   UNL     1     112.781 123.492 136.474  0.00  0.00    +0.000 OA
ATOM     16  C   UNL     1     113.050 126.467 136.747  0.00  0.00    +0.000 A 
ATOM     17  C   UNL     1     112.215 126.074 136.364  0.00  0.00    +0.000 A 
ATOM     18  C   UNL     1     113.796 125.869 137.040  0.00  0.00    +0.000 A 
ATOM     19  C   UNL     1     112.125 125.082 136.273  0.00  0.00    +0.000 A 
ATOM     20  C   UNL     1     113.706 124.877 136.948  0.00  0.00    +0.000 A 
ATOM     21  C   UNL     1     112.871 124.484 136.565  0.00  0.00    +0.000 A 
ENDBRANCH   6  16
BRANCH   5  22
ATOM     22  O   UNL     1     112.015 127.440 138.155  0.00  0.00    +0.000 OA
BRANCH  22  30
ATOM     23  O   UNL     1     113.181 127.579 139.428  0.00  0.00    +0.000 OA
ATOM     24  O   UNL     1     111.285 126.217 141.313  0.00  0.00    +0.000 OA
ATOM     25  O   UNL     1     110.751 126.532 139.411  0.00  0.00    +0.000 OA
ATOM     26  O   UNL     1     113.083 126.811 141.958  0.00  0.00    +0.000 OA
ATOM     27  C   UNL     1     111.917 126.671 140.684  0.00  0.00    +0.000 C 
ATOM     28  C   UNL     1     111.650 126.829 139.734  0.00  0.00    +0.000 C 
ATOM     29  C   UNL     1     112.816 126.968 141.007  0.00  0.00    +0.000 C 
ATOM     30  C   UNL     1     112.282 127.283 139.105  0.00  0.00    +0.000 C 
ATOM     31  C   UNL     1     113.448 127.422 140.379  0.00  0.00    +0.000 C 
BRANCH  31  33
ATOM     32  O   UNL     1     114.625 128.673 140.596  0.00  0.00    +0.000 OA
ATOM     33  C   UNL     1     114.346 127.719 140.701  0.00  0.00    +0.000 C 
ENDBRANCH  31  33
ENDBRANCH  22  30
ENDBRANCH   5  22
TORSDOF 4
ENDMDL
MODEL 5
REMARK VINA RESULT:      -8.7      1.630      4.758
REMARK  Name = 14187088
REMARK  4 active torsions:
REMARK  status: ('A' for Active; 'I' for Inactive)
REMARK    1  A    between atoms: O_2  and  C_16
REMARK    2  A    between atoms: O_2  and  C_18
REMARK    3  A    between atoms: C_17  and  C_20
REMARK    4  A    between atoms: C_19  and  C_22
REMARK                            x       y       z     vdW  Elec       q    Type
REMARK                         _______ _______ _______ _____ _____    ______ ____
ROOT
ATOM      1  O   UNL     1     113.485 127.734 136.029  0.00  0.00    +0.000 OA
ATOM      2  O   UNL     1     113.235 129.062 138.707  0.00  0.00    +0.000 OA
ATOM      3  O   UNL     1     113.927 130.539 138.077  0.00  0.00    +0.000 OA
ATOM      4  O   UNL     1     114.890 130.675 134.674  0.00  0.00    +0.000 OA
ATOM      5  C   UNL     1     113.015 127.674 137.695  0.00  0.00    +0.000 C 
ATOM      6  C   UNL     1     113.099 127.231 136.802  0.00  0.00    +0.000 C 
ATOM      7  C   UNL     1     113.318 128.619 137.814  0.00  0.00    +0.000 C 
ATOM      8  C   UNL     1     113.704 129.122 137.041  0.00  0.00    +0.000 A 
ATOM      9  C   UNL     1     113.787 128.679 136.148  0.00  0.00    +0.000 A 
ATOM     10  C   UNL     1     114.015 130.106 137.181  0.00  0.00    +0.000 A 
ATOM     11  C   UNL     1     114.187 129.190 135.333  0.00  0.00    +0.000 A 
ATOM     12  C   UNL     1     114.418 130.637 136.379  0.00  0.00    +0.000 A 
ATOM     13  C   UNL     1     114.505 130.176 135.449  0.00  0.00    +0.000 A 
ENDROOT
BRANCH   6  16
ATOM     14  O   UNL     1     110.752 124.954 135.659  0.00  0.00    +0.000 OA
ATOM     15  O   UNL     1     111.888 123.448 136.325  0.00  0.00    +0.000 OA
ATOM     16  C   UNL     1     112.796 126.285 136.683  0.00  0.00    +0.000 A 
ATOM     17  C   UNL     1     111.925 126.092 136.230  0.00  0.00    +0.000 A 
ATOM     18  C   UNL     1     113.364 125.533 137.016  0.00  0.00    +0.000 A 
ATOM     19  C   UNL     1     111.623 125.147 136.111  0.00  0.00    +0.000 A 
ATOM     20  C   UNL     1     113.062 124.587 136.896  0.00  0.00    +0.000 A 
ATOM     21  C   UNL     1     112.191 124.394 136.444  0.00  0.00    +0.000 A 
ENDBRANCH   6  16
BRANCH   5  22
ATOM     22  O   UNL     1     112.629 127.171 138.468  0.00  0.00    +0.000 OA
BRANCH  22  30
ATOM     23  O   UNL     1     111.146 128.051 138.311  0.00  0.00    +0.000 OA
ATOM     24  O   UNL     1     110.145 126.819 140.857  0.00  0.00    +0.000 OA
ATOM     25  O   UNL     1     111.962 126.349 140.165  0.00  0.00    +0.000 OA
ATOM     26  O   UNL     1     108.996 128.110 139.852  0.00  0.00    +0.000 OA
ATOM     27  C   UNL     1     110.479 127.229 140.009  0.00  0.00    +0.000 C 
ATOM     28  C   UNL     1     111.387 126.995 139.663  0.00  0.00    +0.000 C 
ATOM     29  C   UNL     1     109.904 127.875 139.506  0.00  0.00    +0.000 C 
ATOM     30  C   UNL     1     111.721 127.405 138.814  0.00  0.00    +0.000 C 
ATOM     31  C   UNL     1     110.238 128.286 138.657  0.00  0.00    +0.000 C 
BRANCH  31  33
ATOM     32  O   UNL     1     109.922 129.219 137.233  0.00  0.00    +0.000 OA
ATOM     33  C   UNL     1     109.663 128.931 138.155  0.00  0.00    +0.000 C 
ENDBRANCH  31  33
ENDBRANCH  22  30
ENDBRANCH   5  22
TORSDOF 4
ENDMDL
MODEL 6
REMARK VINA RESULT:      -8.7      1.787      4.285
REMARK  Name = 14187088
REMARK  4 active torsions:
REMARK  status: ('A' for Active; 'I' for Inactive)
REMARK    1  A    between atoms: O_2  and  C_16
REMARK    2  A    between atoms: O_2  and  C_18
REMARK    3  A    between atoms: C_17  and  C_20
REMARK    4  A    between atoms: C_19  and  C_22
REMARK                            x       y       z     vdW  Elec       q    Type
REMARK                         _______ _______ _______ _____ _____    ______ ____
ROOT
ATOM      1  O   UNL     1     112.748 128.483 135.408  0.00  0.00    +0.000 OA
ATOM      2  O   UNL     1     112.296 129.805 138.063  0.00  0.00    +0.000 OA
ATOM      3  O   UNL     1     113.741 130.771 137.867  0.00  0.00    +0.000 OA
ATOM      4  O   UNL     1     115.679 130.392 134.929  0.00  0.00    +0.000 OA
ATOM      5  C   UNL     1     111.804 128.673 136.848  0.00  0.00    +0.000 C 
ATOM      6  C   UNL     1     111.954 128.233 135.963  0.00  0.00    +0.000 C 
ATOM      7  C   UNL     1     112.447 129.365 137.178  0.00  0.00    +0.000 C 
ATOM      8  C   UNL     1     113.240 129.615 136.624  0.00  0.00    +0.000 A 
ATOM      9  C   UNL     1     113.390 129.175 135.739  0.00  0.00    +0.000 A 
ATOM     10  C   UNL     1     113.901 130.337 136.981  0.00  0.00    +0.000 A 
ATOM     11  C   UNL     1     114.213 129.425 135.149  0.00  0.00    +0.000 A 
ATOM     12  C   UNL     1     114.730 130.603 136.408  0.00  0.00    +0.000 A 
ATOM     13  C   UNL     1     114.887 130.144 135.486  0.00  0.00    +0.000 A 
ENDROOT
BRANCH   6  16
ATOM     14  O   UNL     1     111.087 124.908 135.525  0.00  0.00    +0.000 OA
ATOM     15  O   UNL     1     109.382 125.469 134.642  0.00  0.00    +0.000 OA
ATOM     16  C   UNL     1     111.311 127.542 135.633  0.00  0.00    +0.000 A 
ATOM     17  C   UNL     1     111.521 126.570 135.744  0.00  0.00    +0.000 A 
ATOM     18  C   UNL     1     110.459 127.822 135.191  0.00  0.00    +0.000 A 
ATOM     19  C   UNL     1     110.878 125.879 135.414  0.00  0.00    +0.000 A 
ATOM     20  C   UNL     1     109.816 127.131 134.861  0.00  0.00    +0.000 A 
ATOM     21  C   UNL     1     110.025 126.160 134.972  0.00  0.00    +0.000 A 
ENDBRANCH   6  16
BRANCH   5  22
ATOM     22  O   UNL     1     111.010 128.423 137.403  0.00  0.00    +0.000 OA
BRANCH  22  30
ATOM     23  O   UNL     1     112.017 127.456 138.429  0.00  0.00    +0.000 OA
ATOM     24  O   UNL     1     109.731 127.103 140.339  0.00  0.00    +0.000 OA
ATOM     25  O   UNL     1     109.486 128.187 138.676  0.00  0.00    +0.000 OA
ATOM     26  O   UNL     1     111.499 126.254 140.728  0.00  0.00    +0.000 OA
ATOM     27  C   UNL     1     110.493 127.221 139.702  0.00  0.00    +0.000 C 
ATOM     28  C   UNL     1     110.370 127.763 138.871  0.00  0.00    +0.000 C 
ATOM     29  C   UNL     1     111.377 126.796 139.897  0.00  0.00    +0.000 C 
ATOM     30  C   UNL     1     111.132 127.881 138.234  0.00  0.00    +0.000 C 
ATOM     31  C   UNL     1     112.139 126.914 139.260  0.00  0.00    +0.000 C 
BRANCH  31  33
ATOM     32  O   UNL     1     113.681 126.344 138.716  0.00  0.00    +0.000 OA
ATOM     33  C   UNL     1     113.023 126.490 139.454  0.00  0.00    +0.000 C 
ENDBRANCH  31  33
ENDBRANCH  22  30
ENDBRANCH   5  22
TORSDOF 4
ENDMDL
MODEL 7
REMARK VINA RESULT:      -8.5      1.343      3.941
REMARK  Name = 14187088
REMARK  4 active torsions:
REMARK  status: ('A' for Active; 'I' for Inactive)
REMARK    1  A    between atoms: O_2  and  C_16
REMARK    2  A    between atoms: O_2  and  C_18
REMARK    3  A    between atoms: C_17  and  C_20
REMARK    4  A    between atoms: C_19  and  C_22
REMARK                            x       y       z     vdW  Elec       q    Type
REMARK                         _______ _______ _______ _____ _____    ______ ____
ROOT
ATOM      1  O   UNL     1     113.238 127.087 138.391  0.00  0.00    +0.000 OA
ATOM      2  O   UNL     1     110.863 126.282 136.744  0.00  0.00    +0.000 OA
ATOM      3  O   UNL     1     111.707 124.868 136.155  0.00  0.00    +0.000 OA
ATOM      4  O   UNL     1     115.017 124.257 137.252  0.00  0.00    +0.000 OA
ATOM      5  C   UNL     1     111.618 127.380 137.850  0.00  0.00    +0.000 C 
ATOM      6  C   UNL     1     112.410 127.648 138.399  0.00  0.00    +0.000 C 
ATOM      7  C   UNL     1     111.654 126.550 137.293  0.00  0.00    +0.000 C 
ATOM      8  C   UNL     1     112.482 125.988 137.285  0.00  0.00    +0.000 A 
ATOM      9  C   UNL     1     113.273 126.257 137.834  0.00  0.00    +0.000 A 
ATOM     10  C   UNL     1     112.504 125.127 136.700  0.00  0.00    +0.000 A 
ATOM     11  C   UNL     1     114.143 125.682 137.836  0.00  0.00    +0.000 A 
ATOM     12  C   UNL     1     113.363 124.537 136.686  0.00  0.00    +0.000 A 
ATOM     13  C   UNL     1     114.188 124.816 137.258  0.00  0.00    +0.000 A 
ENDROOT
BRANCH   6  16
ATOM     14  O   UNL     1     113.299 130.956 138.914  0.00  0.00    +0.000 OA
ATOM     15  O   UNL     1     112.267 130.967 140.627  0.00  0.00    +0.000 OA
ATOM     16  C   UNL     1     112.374 128.478 138.956  0.00  0.00    +0.000 A 
ATOM     17  C   UNL     1     112.855 129.302 138.657  0.00  0.00    +0.000 A 
ATOM     18  C   UNL     1     111.858 128.483 139.812  0.00  0.00    +0.000 A 
ATOM     19  C   UNL     1     112.819 130.132 139.214  0.00  0.00    +0.000 A 
ATOM     20  C   UNL     1     111.822 129.313 140.369  0.00  0.00    +0.000 A 
ATOM     21  C   UNL     1     112.303 130.137 140.070  0.00  0.00    +0.000 A 
ENDBRANCH   6  16
BRANCH   5  22
ATOM     22  O   UNL     1     110.791 127.941 137.858  0.00  0.00    +0.000 OA
BRANCH  22  30
ATOM     23  O   UNL     1     111.209 128.634 136.327  0.00  0.00    +0.000 OA
ATOM     24  O   UNL     1     108.421 129.708 136.052  0.00  0.00    +0.000 OA
ATOM     25  O   UNL     1     108.932 128.657 137.675  0.00  0.00    +0.000 OA
ATOM     26  O   UNL     1     109.768 130.043 134.612  0.00  0.00    +0.000 OA
ATOM     27  C   UNL     1     109.350 129.350 136.144  0.00  0.00    +0.000 C 
ATOM     28  C   UNL     1     109.606 128.824 136.955  0.00  0.00    +0.000 C 
ATOM     29  C   UNL     1     110.024 129.518 135.424  0.00  0.00    +0.000 C 
ATOM     30  C   UNL     1     110.535 128.467 137.047  0.00  0.00    +0.000 C 
ATOM     31  C   UNL     1     110.953 129.160 135.516  0.00  0.00    +0.000 C 
BRANCH  31  33
ATOM     32  O   UNL     1     112.576 129.040 134.923  0.00  0.00    +0.000 OA
ATOM     33  C   UNL     1     111.627 129.328 134.796  0.00  0.00    +0.000 C 
ENDBRANCH  31  33
ENDBRANCH  22  30
ENDBRANCH   5  22
TORSDOF 4
ENDMDL
MODEL 8
REMARK VINA RESULT:      -8.5      1.676      4.764
REMARK  Name = 14187088
REMARK  4 active torsions:
REMARK  status: ('A' for Active; 'I' for Inactive)
REMARK    1  A    between atoms: O_2  and  C_16
REMARK    2  A    between atoms: O_2  and  C_18
REMARK    3  A    between atoms: C_17  and  C_20
REMARK    4  A    between atoms: C_19  and  C_22
REMARK                            x       y       z     vdW  Elec       q    Type
REMARK                         _______ _______ _______ _____ _____    ______ ____
ROOT
ATOM      1  O   UNL     1     112.541 126.902 139.969  0.00  0.00    +0.000 OA
ATOM      2  O   UNL     1     113.155 129.652 138.938  0.00  0.00    +0.000 OA
ATOM      3  O   UNL     1     112.739 130.361 140.481  0.00  0.00    +0.000 OA
ATOM      4  O   UNL     1     111.680 128.249 143.117  0.00  0.00    +0.000 OA
ATOM      5  C   UNL     1     113.058 127.941 138.683  0.00  0.00    +0.000 C 
ATOM      6  C   UNL     1     112.853 127.025 139.027  0.00  0.00    +0.000 C 
ATOM      7  C   UNL     1     112.951 128.735 139.281  0.00  0.00    +0.000 C 
ATOM      8  C   UNL     1     112.638 128.613 140.223  0.00  0.00    +0.000 A 
ATOM      9  C   UNL     1     112.433 127.696 140.567  0.00  0.00    +0.000 A 
ATOM     10  C   UNL     1     112.531 129.449 140.835  0.00  0.00    +0.000 A 
ATOM     11  C   UNL     1     112.107 127.553 141.546  0.00  0.00    +0.000 A 
ATOM     12  C   UNL     1     112.206 129.330 141.817  0.00  0.00    +0.000 A 
ATOM     13  C   UNL     1     111.992 128.375 142.176  0.00  0.00    +0.000 A 
ENDROOT
BRANCH   6  16
ATOM     14  O   UNL     1     114.897 124.768 137.375  0.00  0.00    +0.000 OA
ATOM     15  O   UNL     1     113.283 123.849 136.634  0.00  0.00    +0.000 OA
ATOM     16  C   UNL     1     112.961 126.231 138.429  0.00  0.00    +0.000 A 
ATOM     17  C   UNL     1     113.875 125.897 138.201  0.00  0.00    +0.000 A 
ATOM     18  C   UNL     1     112.154 125.771 138.058  0.00  0.00    +0.000 A 
ATOM     19  C   UNL     1     113.983 125.103 137.603  0.00  0.00    +0.000 A 
ATOM     20  C   UNL     1     112.261 124.977 137.460  0.00  0.00    +0.000 A 
ATOM     21  C   UNL     1     113.176 124.643 137.232  0.00  0.00    +0.000 A 
ENDBRANCH   6  16
BRANCH   5  22
ATOM     22  O   UNL     1     113.370 128.064 137.741  0.00  0.00    +0.000 OA
BRANCH  22  30
ATOM     23  O   UNL     1     111.786 128.573 137.262  0.00  0.00    +0.000 OA
ATOM     24  O   UNL     1     112.873 129.466 134.613  0.00  0.00    +0.000 OA
ATOM     25  O   UNL     1     114.096 128.659 135.975  0.00  0.00    +0.000 OA
ATOM     26  O   UNL     1     110.926 129.678 135.017  0.00  0.00    +0.000 OA
ATOM     27  C   UNL     1     112.511 129.168 135.496  0.00  0.00    +0.000 C 
ATOM     28  C   UNL     1     113.122 128.765 136.177  0.00  0.00    +0.000 C 
ATOM     29  C   UNL     1     111.537 129.274 135.698  0.00  0.00    +0.000 C 
ATOM     30  C   UNL     1     112.759 128.467 137.060  0.00  0.00    +0.000 C 
ATOM     31  C   UNL     1     111.175 128.977 136.581  0.00  0.00    +0.000 C 
BRANCH  31  33
ATOM     32  O   UNL     1     109.811 128.658 137.601  0.00  0.00    +0.000 OA
ATOM     33  C   UNL     1     110.201 129.083 136.784  0.00  0.00    +0.000 C 
ENDBRANCH  31  33
ENDBRANCH  22  30
ENDBRANCH   5  22
TORSDOF 4
ENDMDL
MODEL 9
REMARK VINA RESULT:      -8.5      1.699      4.964
REMARK  Name = 14187088
REMARK  4 active torsions:
REMARK  status: ('A' for Active; 'I' for Inactive)
REMARK    1  A    between atoms: O_2  and  C_16
REMARK    2  A    between atoms: O_2  and  C_18
REMARK    3  A    between atoms: C_17  and  C_20
REMARK    4  A    between atoms: C_19  and  C_22
REMARK                            x       y       z     vdW  Elec       q    Type
REMARK                         _______ _______ _______ _____ _____    ______ ____
ROOT
ATOM      1  O   UNL     1     110.943 128.042 135.933  0.00  0.00    +0.000 OA
ATOM      2  O   UNL     1     109.379 128.350 138.474  0.00  0.00    +0.000 OA
ATOM      3  O   UNL     1     108.629 129.812 137.876  0.00  0.00    +0.000 OA
ATOM      4  O   UNL     1     109.475 130.983 134.644  0.00  0.00    +0.000 OA
ATOM      5  C   UNL     1     110.524 127.474 137.514  0.00  0.00    +0.000 C 
ATOM      6  C   UNL     1     111.045 127.371 136.667  0.00  0.00    +0.000 C 
ATOM      7  C   UNL     1     109.901 128.247 137.627  0.00  0.00    +0.000 C 
ATOM      8  C   UNL     1     109.798 128.918 136.892  0.00  0.00    +0.000 A 
ATOM      9  C   UNL     1     110.319 128.815 136.045  0.00  0.00    +0.000 A 
ATOM     10  C   UNL     1     109.145 129.719 137.024  0.00  0.00    +0.000 A 
ATOM     11  C   UNL     1     110.223 129.506 135.271  0.00  0.00    +0.000 A 
ATOM     12  C   UNL     1     109.033 130.421 136.263  0.00  0.00    +0.000 A 
ATOM     13  C   UNL     1     109.575 130.315 135.381  0.00  0.00    +0.000 A 
ENDROOT
BRANCH   6  16
ATOM     14  O   UNL     1     111.563 123.990 136.117  0.00  0.00    +0.000 OA
ATOM     15  O   UNL     1     113.540 124.277 136.217  0.00  0.00    +0.000 OA
ATOM     16  C   UNL     1     111.669 126.597 136.555  0.00  0.00    +0.000 A 
ATOM     17  C   UNL     1     111.304 125.681 136.392  0.00  0.00    +0.000 A 
ATOM     18  C   UNL     1     112.657 126.741 136.605  0.00  0.00    +0.000 A 
ATOM     19  C   UNL     1     111.928 124.907 136.279  0.00  0.00    +0.000 A 
ATOM     20  C   UNL     1     113.281 125.967 136.492  0.00  0.00    +0.000 A 
ATOM     21  C   UNL     1     112.916 125.050 136.329  0.00  0.00    +0.000 A 
ENDBRANCH   6  16
BRANCH   5  22
ATOM     22  O   UNL     1     110.627 126.803 138.249  0.00  0.00    +0.000 OA
BRANCH  22  30
ATOM     23  O   UNL     1     111.673 127.880 139.112  0.00  0.00    +0.000 OA
ATOM     24  O   UNL     1     111.501 126.111 141.529  0.00  0.00    +0.000 OA
ATOM     25  O   UNL     1     110.512 125.624 139.860  0.00  0.00    +0.000 OA
ATOM     26  O   UNL     1     112.605 127.778 141.586  0.00  0.00    +0.000 OA
ATOM     27  C   UNL     1     111.559 126.701 140.723  0.00  0.00    +0.000 C 
ATOM     28  C   UNL     1     111.064 126.457 139.889  0.00  0.00    +0.000 C 
ATOM     29  C   UNL     1     112.111 127.534 140.752  0.00  0.00    +0.000 C 
ATOM     30  C   UNL     1     111.121 127.047 139.083  0.00  0.00    +0.000 C 
ATOM     31  C   UNL     1     112.168 128.124 139.946  0.00  0.00    +0.000 C 
BRANCH  31  33
ATOM     32  O   UNL     1     112.813 129.524 139.156  0.00  0.00    +0.000 OA
ATOM     33  C   UNL     1     112.720 128.957 139.975  0.00  0.00    +0.000 C 
ENDBRANCH  31  33
ENDBRANCH  22  30
ENDBRANCH   5  22
TORSDOF 4
ENDMDL
MODEL 10
REMARK VINA RESULT:      -8.5      2.980      4.256
REMARK  Name = 14187088
REMARK  4 active torsions:
REMARK  status: ('A' for Active; 'I' for Inactive)
REMARK    1  A    between atoms: O_2  and  C_16
REMARK    2  A    between atoms: O_2  and  C_18
REMARK    3  A    between atoms: C_17  and  C_20
REMARK    4  A    between atoms: C_19  and  C_22
REMARK                            x       y       z     vdW  Elec       q    Type
REMARK                         _______ _______ _______ _____ _____    ______ ____
ROOT
ATOM      1  O   UNL     1     111.597 130.173 135.800  0.00  0.00    +0.000 OA
ATOM      2  O   UNL     1     112.757 131.150 138.388  0.00  0.00    +0.000 OA
ATOM      3  O   UNL     1     114.352 130.607 137.918  0.00  0.00    +0.000 OA
ATOM      4  O   UNL     1     114.780 129.046 134.769  0.00  0.00    +0.000 OA
ATOM      5  C   UNL     1     111.394 130.936 137.342  0.00  0.00    +0.000 C 
ATOM      6  C   UNL     1     111.007 130.610 136.479  0.00  0.00    +0.000 C 
ATOM      7  C   UNL     1     112.370 130.824 137.525  0.00  0.00    +0.000 C 
ATOM      8  C   UNL     1     112.960 130.387 136.846  0.00  0.00    +0.000 A 
ATOM      9  C   UNL     1     112.573 130.061 135.984  0.00  0.00    +0.000 A 
ATOM     10  C   UNL     1     113.976 130.278 137.052  0.00  0.00    +0.000 A 
ATOM     11  C   UNL     1     113.175 129.604 135.267  0.00  0.00    +0.000 A 
ATOM     12  C   UNL     1     114.596 129.823 136.349  0.00  0.00    +0.000 A 
ATOM     13  C   UNL     1     114.193 129.484 135.451  0.00  0.00    +0.000 A 
ENDROOT
BRANCH   6  16
ATOM     14  O   UNL     1     107.855 129.234 136.068  0.00  0.00    +0.000 OA
ATOM     15  O   UNL     1     107.101 131.057 135.744  0.00  0.00    +0.000 OA
ATOM     16  C   UNL     1     110.030 130.722 136.295  0.00  0.00    +0.000 A 
ATOM     17  C   UNL     1     109.431 129.922 136.274  0.00  0.00    +0.000 A 
ATOM     18  C   UNL     1     109.653 131.634 136.133  0.00  0.00    +0.000 A 
ATOM     19  C   UNL     1     108.454 130.034 136.090  0.00  0.00    +0.000 A 
ATOM     20  C   UNL     1     108.677 131.746 135.949  0.00  0.00    +0.000 A 
ATOM     21  C   UNL     1     108.077 130.946 135.928  0.00  0.00    +0.000 A 
ENDBRANCH   6  16
BRANCH   5  22
ATOM     22  O   UNL     1     110.804 131.374 138.021  0.00  0.00    +0.000 OA
BRANCH  22  30
ATOM     23  O   UNL     1     110.707 129.902 138.929  0.00  0.00    +0.000 OA
ATOM     24  O   UNL     1     109.587 131.418 141.264  0.00  0.00    +0.000 OA
ATOM     25  O   UNL     1     110.058 132.384 139.577  0.00  0.00    +0.000 OA
ATOM     26  O   UNL     1     109.863 129.441 141.394  0.00  0.00    +0.000 OA
ATOM     27  C   UNL     1     109.961 130.912 140.485  0.00  0.00    +0.000 C 
ATOM     28  C   UNL     1     110.196 131.396 139.642  0.00  0.00    +0.000 C 
ATOM     29  C   UNL     1     110.098 129.924 140.551  0.00  0.00    +0.000 C 
ATOM     30  C   UNL     1     110.569 130.890 138.864  0.00  0.00    +0.000 C 
ATOM     31  C   UNL     1     110.472 129.419 139.772  0.00  0.00    +0.000 C 
BRANCH  31  33
ATOM     32  O   UNL     1     111.004 127.929 139.068  0.00  0.00    +0.000 OA
ATOM     33  C   UNL     1     110.609 128.431 139.838  0.00  0.00    +0.000 C 
ENDBRANCH  31  33
ENDBRANCH  22  30
ENDBRANCH   5  22
TORSDOF 4
ENDMDL
