MODEL 1
REMARK VINA RESULT:      -9.7      0.000      0.000
REMARK  Name = 
REMARK  11 active torsions:
REMARK  status: ('A' for Active; 'I' for Inactive)
REMARK    1  A    between atoms: C_1  and  O_28
REMARK    2  A    between atoms: C_4  and  C_7
REMARK    3  A    between atoms: C_7  and  C_8
REMARK    4  A    between atoms: C_9  and  C_10
REMARK    5  A    between atoms: C_13  and  O_29
REMARK    6  A    between atoms: C_20  and  O_28
REMARK    7  A    between atoms: C_22  and  C_23
REMARK    8  A    between atoms: C_23  and  O_32
REMARK    9  A    between atoms: O_32  and  C_33
REMARK   10  A    between atoms: C_33  and  C_35
REMARK   11  A    between atoms: C_36  and  C_37
REMARK                            x       y       z     vdW  Elec       q    Type
REMARK                         _______ _______ _______ _____ _____    ______ ____
ROOT
ATOM      1  C   UNL     1     107.722 126.568 141.991  0.00  0.00    +0.000 C 
ATOM      2  C   UNL     1     107.298 127.384 142.470  0.00  0.00    +0.000 C 
ATOM      3  C   UNL     1     106.326 127.438 142.111  0.00  0.00    +0.000 C 
ATOM      4  C   UNL     1     105.402 127.908 142.106  0.00  0.00    +0.000 C 
ATOM      5  O   UNL     1     105.826 127.091 141.626  0.00  0.00    +0.000 OA
ATOM      6  C   UNL     1     106.798 127.038 141.985  0.00  0.00    +0.000 C 
ATOM      7  O   UNL     1     108.344 126.877 142.496  0.00  0.00    +0.000 OA
ATOM      8  O   UNL     1     107.809 126.993 142.368  0.00  0.00    +0.000 OA
ATOM      9  O   UNL     1     106.591 127.997 142.669  0.00  0.00    +0.000 OA
ENDROOT
BRANCH   6  10
ATOM     10  C   UNL     1     106.929 126.427 141.549  0.00  0.00    +0.000 C 
BRANCH  10  11
ATOM     11  O   UNL     1     106.655 125.550 141.437  0.00  0.00    +0.000 OA
BRANCH  11  12
ATOM     12  C   UNL     1     106.592 124.689 140.866  0.00  0.00    +0.000 C 
ATOM     13  O   UNL     1     107.222 123.891 141.062  0.00  0.00    +0.000 OA
BRANCH  12  14
ATOM     14  C   UNL     1     105.900 124.626 140.098  0.00  0.00    +0.000 C 
ATOM     15  C   UNL     1     105.196 123.867 140.096  0.00  0.00    +0.000 C 
BRANCH  15  16
ATOM     16  C   UNL     1     104.505 123.804 139.329  0.00  0.00    +0.000 A 
ATOM     17  C   UNL     1     104.788 123.431 138.404  0.00  0.00    +0.000 A 
ATOM     18  C   UNL     1     104.095 123.368 137.635  0.00  0.00    +0.000 A 
ATOM     19  C   UNL     1     103.118 123.678 137.792  0.00  0.00    +0.000 A 
ATOM     20  C   UNL     1     102.834 124.052 138.716  0.00  0.00    +0.000 A 
ATOM     21  C   UNL     1     103.527 124.115 139.485  0.00  0.00    +0.000 A 
ATOM     22  O   UNL     1     102.426 123.615 137.025  0.00  0.00    +0.000 OA
ENDBRANCH  15  16
ENDBRANCH  12  14
ENDBRANCH  11  12
ENDBRANCH  10  11
ENDBRANCH   6  10
BRANCH   4  23
ATOM     23  O   UNL     1     104.576 127.847 141.715  0.00  0.00    +0.000 OA
BRANCH  23  24
ATOM     24  C   UNL     1     103.988 128.615 141.650  0.00  0.00    +0.000 A 
ATOM     25  C   UNL     1     103.422 128.762 140.794  0.00  0.00    +0.000 A 
ATOM     26  C   UNL     1     102.792 129.583 140.722  0.00  0.00    +0.000 A 
ATOM     27  C   UNL     1     102.731 130.258 141.508  0.00  0.00    +0.000 A 
ATOM     28  C   UNL     1     103.297 130.111 142.364  0.00  0.00    +0.000 A 
ATOM     29  C   UNL     1     103.926 129.290 142.434  0.00  0.00    +0.000 A 
ATOM     30  O   UNL     1     102.304 129.709 139.985  0.00  0.00    +0.000 OA
ATOM     31  O   UNL     1     103.551 128.048 140.083  0.00  0.00    +0.000 OA
BRANCH  27  32
ATOM     32  C   UNL     1     102.101 131.079 141.436  0.00  0.00    +0.000 C 
ATOM     33  O   UNL     1     101.077 130.958 141.533  0.00  0.00    +0.000 OA
BRANCH  32  34
ATOM     34  C   UNL     1     102.498 132.022 141.268  0.00  0.00    +0.000 C 
ATOM     35  C   UNL     1     102.037 132.859 141.670  0.00  0.00    +0.000 C 
BRANCH  35  36
ATOM     36  C   UNL     1     102.433 133.801 141.501  0.00  0.00    +0.000 A 
ATOM     37  C   UNL     1     101.803 134.614 141.368  0.00  0.00    +0.000 A 
ATOM     38  C   UNL     1     102.199 135.557 141.199  0.00  0.00    +0.000 A 
ATOM     39  C   UNL     1     103.228 135.688 141.163  0.00  0.00    +0.000 A 
ATOM     40  C   UNL     1     103.858 134.876 141.296  0.00  0.00    +0.000 A 
ATOM     41  C   UNL     1     103.461 133.932 141.465  0.00  0.00    +0.000 A 
ATOM     42  O   UNL     1     104.763 134.991 141.264  0.00  0.00    +0.000 OA
BRANCH  39  43
ATOM     43  O   UNL     1     103.606 136.586 141.002  0.00  0.00    +0.000 OA
ATOM     44  C   UNL     1     103.011 137.380 140.990  0.00  0.00    +0.000 C 
ENDBRANCH  39  43
ENDBRANCH  35  36
ENDBRANCH  32  34
ENDBRANCH  27  32
ENDBRANCH  23  24
ENDBRANCH   4  23
TORSDOF 11
ENDMDL
MODEL 2
REMARK VINA RESULT:      -9.7      5.581      8.548
REMARK  Name = 
REMARK  11 active torsions:
REMARK  status: ('A' for Active; 'I' for Inactive)
REMARK    1  A    between atoms: C_1  and  O_28
REMARK    2  A    between atoms: C_4  and  C_7
REMARK    3  A    between atoms: C_7  and  C_8
REMARK    4  A    between atoms: C_9  and  C_10
REMARK    5  A    between atoms: C_13  and  O_29
REMARK    6  A    between atoms: C_20  and  O_28
REMARK    7  A    between atoms: C_22  and  C_23
REMARK    8  A    between atoms: C_23  and  O_32
REMARK    9  A    between atoms: O_32  and  C_33
REMARK   10  A    between atoms: C_33  and  C_35
REMARK   11  A    between atoms: C_36  and  C_37
REMARK                            x       y       z     vdW  Elec       q    Type
REMARK                         _______ _______ _______ _____ _____    ______ ____
ROOT
ATOM      1  C   UNL     1     111.895 128.626 142.223  0.00  0.00    +0.000 C 
ATOM      2  C   UNL     1     110.944 128.434 142.591  0.00  0.00    +0.000 C 
ATOM      3  C   UNL     1     110.549 127.710 141.961  0.00  0.00    +0.000 C 
ATOM      4  C   UNL     1     109.762 127.087 141.701  0.00  0.00    +0.000 C 
ATOM      5  O   UNL     1     110.713 127.280 141.334  0.00  0.00    +0.000 OA
ATOM      6  C   UNL     1     111.108 128.003 141.964  0.00  0.00    +0.000 C 
ATOM      7  O   UNL     1     111.811 129.143 142.905  0.00  0.00    +0.000 OA
ATOM      8  O   UNL     1     111.508 128.758 142.628  0.00  0.00    +0.000 OA
ATOM      9  O   UNL     1     110.094 127.996 142.597  0.00  0.00    +0.000 OA
ENDROOT
BRANCH   6  10
ATOM     10  C   UNL     1     111.754 128.008 141.560  0.00  0.00    +0.000 C 
BRANCH  10  11
ATOM     11  O   UNL     1     112.457 127.455 141.320  0.00  0.00    +0.000 OA
BRANCH  11  12
ATOM     12  C   UNL     1     113.359 127.300 140.837  0.00  0.00    +0.000 C 
ATOM     13  O   UNL     1     114.187 127.869 141.092  0.00  0.00    +0.000 OA
BRANCH  12  14
ATOM     14  C   UNL     1     113.435 126.577 140.101  0.00  0.00    +0.000 C 
ATOM     15  C   UNL     1     113.228 126.817 139.116  0.00  0.00    +0.000 C 
BRANCH  15  16
ATOM     16  C   UNL     1     113.303 126.093 138.379  0.00  0.00    +0.000 A 
ATOM     17  C   UNL     1     112.447 125.723 137.926  0.00  0.00    +0.000 A 
ATOM     18  C   UNL     1     112.523 124.998 137.188  0.00  0.00    +0.000 A 
ATOM     19  C   UNL     1     113.455 124.644 136.904  0.00  0.00    +0.000 A 
ATOM     20  C   UNL     1     114.311 125.014 137.357  0.00  0.00    +0.000 A 
ATOM     21  C   UNL     1     114.235 125.738 138.095  0.00  0.00    +0.000 A 
ATOM     22  O   UNL     1     113.531 123.921 136.167  0.00  0.00    +0.000 OA
ENDBRANCH  15  16
ENDBRANCH  12  14
ENDBRANCH  11  12
ENDBRANCH  10  11
ENDBRANCH   6  10
BRANCH   4  23
ATOM     23  O   UNL     1     109.531 126.456 141.080  0.00  0.00    +0.000 OA
BRANCH  23  24
ATOM     24  C   UNL     1     108.652 126.046 141.077  0.00  0.00    +0.000 A 
ATOM     25  C   UNL     1     108.564 125.013 141.079  0.00  0.00    +0.000 A 
ATOM     26  C   UNL     1     107.625 124.572 141.075  0.00  0.00    +0.000 A 
ATOM     27  C   UNL     1     106.774 125.166 141.071  0.00  0.00    +0.000 A 
ATOM     28  C   UNL     1     106.863 126.199 141.069  0.00  0.00    +0.000 A 
ATOM     29  C   UNL     1     107.802 126.639 141.072  0.00  0.00    +0.000 A 
ATOM     30  O   UNL     1     107.549 123.682 141.077  0.00  0.00    +0.000 OA
ATOM     31  O   UNL     1     109.452 124.520 141.083  0.00  0.00    +0.000 OA
BRANCH  27  32
ATOM     32  C   UNL     1     105.835 124.726 141.067  0.00  0.00    +0.000 C 
ATOM     33  O   UNL     1     105.383 124.462 141.961  0.00  0.00    +0.000 OA
BRANCH  32  34
ATOM     34  C   UNL     1     105.349 124.549 140.168  0.00  0.00    +0.000 C 
ATOM     35  C   UNL     1     104.525 123.921 140.139  0.00  0.00    +0.000 C 
BRANCH  35  36
ATOM     36  C   UNL     1     104.040 123.745 139.241  0.00  0.00    +0.000 A 
ATOM     37  C   UNL     1     104.587 123.508 138.392  0.00  0.00    +0.000 A 
ATOM     38  C   UNL     1     104.102 123.332 137.493  0.00  0.00    +0.000 A 
ATOM     39  C   UNL     1     103.068 123.393 137.441  0.00  0.00    +0.000 A 
ATOM     40  C   UNL     1     102.520 123.629 138.289  0.00  0.00    +0.000 A 
ATOM     41  C   UNL     1     103.006 123.806 139.189  0.00  0.00    +0.000 A 
ATOM     42  O   UNL     1     101.610 123.683 138.244  0.00  0.00    +0.000 OA
BRANCH  39  43
ATOM     43  O   UNL     1     102.605 123.225 136.585  0.00  0.00    +0.000 OA
ATOM     44  C   UNL     1     103.131 123.028 135.767  0.00  0.00    +0.000 C 
ENDBRANCH  39  43
ENDBRANCH  35  36
ENDBRANCH  32  34
ENDBRANCH  27  32
ENDBRANCH  23  24
ENDBRANCH   4  23
TORSDOF 11
ENDMDL
MODEL 3
REMARK VINA RESULT:      -9.4      5.294      7.793
REMARK  Name = 
REMARK  11 active torsions:
REMARK  status: ('A' for Active; 'I' for Inactive)
REMARK    1  A    between atoms: C_1  and  O_28
REMARK    2  A    between atoms: C_4  and  C_7
REMARK    3  A    between atoms: C_7  and  C_8
REMARK    4  A    between atoms: C_9  and  C_10
REMARK    5  A    between atoms: C_13  and  O_29
REMARK    6  A    between atoms: C_20  and  O_28
REMARK    7  A    between atoms: C_22  and  C_23
REMARK    8  A    between atoms: C_23  and  O_32
REMARK    9  A    between atoms: O_32  and  C_33
REMARK   10  A    between atoms: C_33  and  C_35
REMARK   11  A    between atoms: C_36  and  C_37
REMARK                            x       y       z     vdW  Elec       q    Type
REMARK                         _______ _______ _______ _____ _____    ______ ____
ROOT
ATOM      1  C   UNL     1     113.648 126.879 140.220  0.00  0.00    +0.000 C 
ATOM      2  C   UNL     1     113.075 126.997 141.077  0.00  0.00    +0.000 C 
ATOM      3  C   UNL     1     112.098 126.815 140.779  0.00  0.00    +0.000 C 
ATOM      4  C   UNL     1     111.091 126.747 141.017  0.00  0.00    +0.000 C 
ATOM      5  O   UNL     1     111.665 126.628 140.160  0.00  0.00    +0.000 OA
ATOM      6  C   UNL     1     112.641 126.810 140.458  0.00  0.00    +0.000 C 
ATOM      7  O   UNL     1     114.210 127.081 140.838  0.00  0.00    +0.000 OA
ATOM      8  O   UNL     1     113.656 127.002 140.782  0.00  0.00    +0.000 OA
ATOM      9  O   UNL     1     112.258 127.008 141.573  0.00  0.00    +0.000 OA
ENDROOT
BRANCH   6  10
ATOM     10  C   UNL     1     112.885 126.684 139.747  0.00  0.00    +0.000 C 
BRANCH  10  11
ATOM     11  O   UNL     1     112.945 127.100 138.922  0.00  0.00    +0.000 OA
BRANCH  11  12
ATOM     12  C   UNL     1     113.036 127.053 137.892  0.00  0.00    +0.000 C 
ATOM     13  O   UNL     1     112.538 126.316 137.362  0.00  0.00    +0.000 OA
BRANCH  12  14
ATOM     14  C   UNL     1     113.624 127.743 137.392  0.00  0.00    +0.000 C 
ATOM     15  C   UNL     1     113.188 128.418 136.740  0.00  0.00    +0.000 C 
BRANCH  15  16
ATOM     16  C   UNL     1     113.776 129.108 136.240  0.00  0.00    +0.000 A 
ATOM     17  C   UNL     1     114.172 128.875 135.310  0.00  0.00    +0.000 A 
ATOM     18  C   UNL     1     114.761 129.567 134.809  0.00  0.00    +0.000 A 
ATOM     19  C   UNL     1     114.954 130.491 135.238  0.00  0.00    +0.000 A 
ATOM     20  C   UNL     1     114.558 130.724 136.167  0.00  0.00    +0.000 A 
ATOM     21  C   UNL     1     113.969 130.033 136.668  0.00  0.00    +0.000 A 
ATOM     22  O   UNL     1     115.541 131.180 134.738  0.00  0.00    +0.000 OA
ENDBRANCH  15  16
ENDBRANCH  12  14
ENDBRANCH  11  12
ENDBRANCH  10  11
ENDBRANCH   6  10
BRANCH   4  23
ATOM     23  O   UNL     1     110.281 126.566 140.631  0.00  0.00    +0.000 OA
BRANCH  23  24
ATOM     24  C   UNL     1     109.449 126.713 141.107  0.00  0.00    +0.000 A 
ATOM     25  C   UNL     1     108.784 125.929 141.242  0.00  0.00    +0.000 A 
ATOM     26  C   UNL     1     107.894 126.085 141.751  0.00  0.00    +0.000 A 
ATOM     27  C   UNL     1     107.669 127.027 142.124  0.00  0.00    +0.000 A 
ATOM     28  C   UNL     1     108.334 127.811 141.990  0.00  0.00    +0.000 A 
ATOM     29  C   UNL     1     109.224 127.654 141.481  0.00  0.00    +0.000 A 
ATOM     30  O   UNL     1     107.321 125.410 141.867  0.00  0.00    +0.000 OA
ATOM     31  O   UNL     1     109.093 125.049 140.841  0.00  0.00    +0.000 OA
BRANCH  27  32
ATOM     32  C   UNL     1     106.779 127.183 142.633  0.00  0.00    +0.000 C 
ATOM     33  O   UNL     1     106.628 126.746 143.560  0.00  0.00    +0.000 OA
BRANCH  32  34
ATOM     34  C   UNL     1     106.040 127.778 142.213  0.00  0.00    +0.000 C 
ATOM     35  C   UNL     1     105.214 128.053 142.776  0.00  0.00    +0.000 C 
BRANCH  35  36
ATOM     36  C   UNL     1     104.476 128.647 142.356  0.00  0.00    +0.000 A 
ATOM     37  C   UNL     1     104.081 129.442 142.893  0.00  0.00    +0.000 A 
ATOM     38  C   UNL     1     103.343 130.037 142.474  0.00  0.00    +0.000 A 
ATOM     39  C   UNL     1     102.999 129.837 141.516  0.00  0.00    +0.000 A 
ATOM     40  C   UNL     1     103.394 129.043 140.979  0.00  0.00    +0.000 A 
ATOM     41  C   UNL     1     104.132 128.448 141.398  0.00  0.00    +0.000 A 
ATOM     42  O   UNL     1     103.091 128.868 140.136  0.00  0.00    +0.000 OA
BRANCH  39  43
ATOM     43  O   UNL     1     102.296 130.403 141.116  0.00  0.00    +0.000 OA
ATOM     44  C   UNL     1     102.245 131.368 141.344  0.00  0.00    +0.000 C 
ENDBRANCH  39  43
ENDBRANCH  35  36
ENDBRANCH  32  34
ENDBRANCH  27  32
ENDBRANCH  23  24
ENDBRANCH   4  23
TORSDOF 11
ENDMDL
MODEL 4
REMARK VINA RESULT:      -9.4      4.354      6.660
REMARK  Name = 
REMARK  11 active torsions:
REMARK  status: ('A' for Active; 'I' for Inactive)
REMARK    1  A    between atoms: C_1  and  O_28
REMARK    2  A    between atoms: C_4  and  C_7
REMARK    3  A    between atoms: C_7  and  C_8
REMARK    4  A    between atoms: C_9  and  C_10
REMARK    5  A    between atoms: C_13  and  O_29
REMARK    6  A    between atoms: C_20  and  O_28
REMARK    7  A    between atoms: C_22  and  C_23
REMARK    8  A    between atoms: C_23  and  O_32
REMARK    9  A    between atoms: O_32  and  C_33
REMARK   10  A    between atoms: C_33  and  C_35
REMARK   11  A    between atoms: C_36  and  C_37
REMARK                            x       y       z     vdW  Elec       q    Type
REMARK                         _______ _______ _______ _____ _____    ______ ____
ROOT
ATOM      1  C   UNL     1     113.042 129.484 141.488  0.00  0.00    +0.000 C 
ATOM      2  C   UNL     1     112.086 129.850 141.659  0.00  0.00    +0.000 C 
ATOM      3  C   UNL     1     111.487 129.009 141.764  0.00  0.00    +0.000 C 
ATOM      4  C   UNL     1     110.551 128.596 141.930  0.00  0.00    +0.000 C 
ATOM      5  O   UNL     1     111.507 128.231 141.758  0.00  0.00    +0.000 OA
ATOM      6  C   UNL     1     112.106 129.072 141.654  0.00  0.00    +0.000 C 
ATOM      7  O   UNL     1     113.125 130.340 141.475  0.00  0.00    +0.000 OA
ATOM      8  O   UNL     1     112.719 129.956 141.546  0.00  0.00    +0.000 OA
ATOM      9  O   UNL     1     111.148 129.767 141.826  0.00  0.00    +0.000 OA
ENDROOT
BRANCH   6  10
ATOM     10  C   UNL     1     112.715 128.628 141.544  0.00  0.00    +0.000 C 
BRANCH  10  11
ATOM     11  O   UNL     1     113.120 128.108 140.894  0.00  0.00    +0.000 OA
BRANCH  11  12
ATOM     12  C   UNL     1     113.750 127.334 140.619  0.00  0.00    +0.000 C 
ATOM     13  O   UNL     1     114.695 127.263 141.037  0.00  0.00    +0.000 OA
BRANCH  12  14
ATOM     14  C   UNL     1     113.436 126.632 139.927  0.00  0.00    +0.000 C 
ATOM     15  C   UNL     1     113.896 126.575 139.001  0.00  0.00    +0.000 C 
BRANCH  15  16
ATOM     16  C   UNL     1     113.582 125.873 138.309  0.00  0.00    +0.000 A 
ATOM     17  C   UNL     1     112.569 125.716 138.151  0.00  0.00    +0.000 A 
ATOM     18  C   UNL     1     112.254 125.012 137.458  0.00  0.00    +0.000 A 
ATOM     19  C   UNL     1     112.953 124.465 136.922  0.00  0.00    +0.000 A 
ATOM     20  C   UNL     1     113.966 124.621 137.079  0.00  0.00    +0.000 A 
ATOM     21  C   UNL     1     114.280 125.324 137.773  0.00  0.00    +0.000 A 
ATOM     22  O   UNL     1     112.639 123.762 136.230  0.00  0.00    +0.000 OA
ENDBRANCH  15  16
ENDBRANCH  12  14
ENDBRANCH  11  12
ENDBRANCH  10  11
ENDBRANCH   6  10
BRANCH   4  23
ATOM     23  O   UNL     1     110.135 127.784 142.002  0.00  0.00    +0.000 OA
BRANCH  23  24
ATOM     24  C   UNL     1     109.173 127.714 142.099  0.00  0.00    +0.000 A 
ATOM     25  C   UNL     1     108.645 127.026 141.531  0.00  0.00    +0.000 A 
ATOM     26  C   UNL     1     107.615 126.949 141.633  0.00  0.00    +0.000 A 
ATOM     27  C   UNL     1     107.115 127.562 142.304  0.00  0.00    +0.000 A 
ATOM     28  C   UNL     1     107.643 128.250 142.872  0.00  0.00    +0.000 A 
ATOM     29  C   UNL     1     108.672 128.326 142.769  0.00  0.00    +0.000 A 
ATOM     30  O   UNL     1     107.160 126.357 141.144  0.00  0.00    +0.000 OA
ATOM     31  O   UNL     1     109.223 126.473 140.904  0.00  0.00    +0.000 OA
BRANCH  27  32
ATOM     32  C   UNL     1     106.086 127.486 142.407  0.00  0.00    +0.000 C 
ATOM     33  O   UNL     1     105.668 126.634 142.823  0.00  0.00    +0.000 OA
BRANCH  32  34
ATOM     34  C   UNL     1     105.475 128.263 142.092  0.00  0.00    +0.000 C 
ATOM     35  C   UNL     1     104.476 128.284 142.371  0.00  0.00    +0.000 C 
BRANCH  35  36
ATOM     36  C   UNL     1     103.867 129.060 142.057  0.00  0.00    +0.000 A 
ATOM     37  C   UNL     1     103.593 129.808 142.722  0.00  0.00    +0.000 A 
ATOM     38  C   UNL     1     102.983 130.585 142.408  0.00  0.00    +0.000 A 
ATOM     39  C   UNL     1     102.646 130.615 141.428  0.00  0.00    +0.000 A 
ATOM     40  C   UNL     1     102.919 129.869 140.763  0.00  0.00    +0.000 A 
ATOM     41  C   UNL     1     103.530 129.091 141.076  0.00  0.00    +0.000 A 
ATOM     42  O   UNL     1     102.623 129.895 139.900  0.00  0.00    +0.000 OA
BRANCH  39  43
ATOM     43  O   UNL     1     102.065 131.355 141.128  0.00  0.00    +0.000 OA
ATOM     44  C   UNL     1     101.578 131.906 141.796  0.00  0.00    +0.000 C 
ENDBRANCH  39  43
ENDBRANCH  35  36
ENDBRANCH  32  34
ENDBRANCH  27  32
ENDBRANCH  23  24
ENDBRANCH   4  23
TORSDOF 11
ENDMDL
MODEL 5
REMARK VINA RESULT:      -9.4      4.198      8.415
REMARK  Name = 
REMARK  11 active torsions:
REMARK  status: ('A' for Active; 'I' for Inactive)
REMARK    1  A    between atoms: C_1  and  O_28
REMARK    2  A    between atoms: C_4  and  C_7
REMARK    3  A    between atoms: C_7  and  C_8
REMARK    4  A    between atoms: C_9  and  C_10
REMARK    5  A    between atoms: C_13  and  O_29
REMARK    6  A    between atoms: C_20  and  O_28
REMARK    7  A    between atoms: C_22  and  C_23
REMARK    8  A    between atoms: C_23  and  O_32
REMARK    9  A    between atoms: O_32  and  C_33
REMARK   10  A    between atoms: C_33  and  C_35
REMARK   11  A    between atoms: C_36  and  C_37
REMARK                            x       y       z     vdW  Elec       q    Type
REMARK                         _______ _______ _______ _____ _____    ______ ____
ROOT
ATOM      1  C   UNL     1     109.030 130.746 141.491  0.00  0.00    +0.000 C 
ATOM      2  C   UNL     1     108.139 130.319 141.178  0.00  0.00    +0.000 C 
ATOM      3  C   UNL     1     108.146 129.356 141.567  0.00  0.00    +0.000 C 
ATOM      4  C   UNL     1     107.681 128.437 141.681  0.00  0.00    +0.000 C 
ATOM      5  O   UNL     1     108.572 128.866 141.994  0.00  0.00    +0.000 OA
ATOM      6  C   UNL     1     108.565 129.827 141.606  0.00  0.00    +0.000 C 
ATOM      7  O   UNL     1     108.638 131.359 141.034  0.00  0.00    +0.000 OA
ATOM      8  O   UNL     1     108.544 130.828 141.195  0.00  0.00    +0.000 OA
ATOM      9  O   UNL     1     107.497 129.612 141.112  0.00  0.00    +0.000 OA
ENDROOT
BRANCH   6  10
ATOM     10  C   UNL     1     109.245 129.964 141.921  0.00  0.00    +0.000 C 
BRANCH  10  11
ATOM     11  O   UNL     1     110.150 129.878 141.746  0.00  0.00    +0.000 OA
BRANCH  11  12
ATOM     12  C   UNL     1     111.113 129.655 142.054  0.00  0.00    +0.000 C 
ATOM     13  O   UNL     1     111.434 129.944 142.996  0.00  0.00    +0.000 OA
BRANCH  12  14
ATOM     14  C   UNL     1     111.754 129.145 141.423  0.00  0.00    +0.000 C 
ATOM     15  C   UNL     1     111.823 128.114 141.477  0.00  0.00    +0.000 C 
BRANCH  15  16
ATOM     16  C   UNL     1     112.464 127.603 140.845  0.00  0.00    +0.000 A 
ATOM     17  C   UNL     1     112.081 126.994 140.099  0.00  0.00    +0.000 A 
ATOM     18  C   UNL     1     112.724 126.482 139.466  0.00  0.00    +0.000 A 
ATOM     19  C   UNL     1     113.750 126.580 139.579  0.00  0.00    +0.000 A 
ATOM     20  C   UNL     1     114.134 127.189 140.325  0.00  0.00    +0.000 A 
ATOM     21  C   UNL     1     113.491 127.701 140.958  0.00  0.00    +0.000 A 
ATOM     22  O   UNL     1     114.391 126.070 138.948  0.00  0.00    +0.000 OA
ENDBRANCH  15  16
ENDBRANCH  12  14
ENDBRANCH  11  12
ENDBRANCH  10  11
ENDBRANCH   6  10
BRANCH   4  23
ATOM     23  O   UNL     1     107.807 127.621 142.076  0.00  0.00    +0.000 OA
BRANCH  23  24
ATOM     24  C   UNL     1     107.243 126.862 141.863  0.00  0.00    +0.000 A 
ATOM     25  C   UNL     1     107.673 125.953 141.609  0.00  0.00    +0.000 A 
ATOM     26  C   UNL     1     107.070 125.140 141.381  0.00  0.00    +0.000 A 
ATOM     27  C   UNL     1     106.038 125.237 141.407  0.00  0.00    +0.000 A 
ATOM     28  C   UNL     1     105.608 126.146 141.660  0.00  0.00    +0.000 A 
ATOM     29  C   UNL     1     106.211 126.958 141.888  0.00  0.00    +0.000 A 
ATOM     30  O   UNL     1     107.440 124.357 141.163  0.00  0.00    +0.000 OA
ATOM     31  O   UNL     1     108.688 125.958 141.613  0.00  0.00    +0.000 OA
BRANCH  27  32
ATOM     32  C   UNL     1     105.435 124.424 141.178  0.00  0.00    +0.000 C 
ATOM     33  O   UNL     1     105.299 123.669 141.874  0.00  0.00    +0.000 OA
BRANCH  32  34
ATOM     34  C   UNL     1     104.969 124.369 140.253  0.00  0.00    +0.000 C 
ATOM     35  C   UNL     1     104.338 123.575 140.037  0.00  0.00    +0.000 C 
BRANCH  35  36
ATOM     36  C   UNL     1     103.873 123.520 139.114  0.00  0.00    +0.000 A 
ATOM     37  C   UNL     1     104.441 123.422 138.251  0.00  0.00    +0.000 A 
ATOM     38  C   UNL     1     103.976 123.367 137.326  0.00  0.00    +0.000 A 
ATOM     39  C   UNL     1     102.941 123.409 137.263  0.00  0.00    +0.000 A 
ATOM     40  C   UNL     1     102.373 123.506 138.125  0.00  0.00    +0.000 A 
ATOM     41  C   UNL     1     102.839 123.561 139.050  0.00  0.00    +0.000 A 
ATOM     42  O   UNL     1     101.463 123.543 138.069  0.00  0.00    +0.000 OA
BRANCH  39  43
ATOM     43  O   UNL     1     102.498 123.356 136.382  0.00  0.00    +0.000 OA
ATOM     44  C   UNL     1     102.987 122.988 135.601  0.00  0.00    +0.000 C 
ENDBRANCH  39  43
ENDBRANCH  35  36
ENDBRANCH  32  34
ENDBRANCH  27  32
ENDBRANCH  23  24
ENDBRANCH   4  23
TORSDOF 11
ENDMDL
MODEL 6
REMARK VINA RESULT:      -9.3      6.593      8.033
REMARK  Name = 
REMARK  11 active torsions:
REMARK  status: ('A' for Active; 'I' for Inactive)
REMARK    1  A    between atoms: C_1  and  O_28
REMARK    2  A    between atoms: C_4  and  C_7
REMARK    3  A    between atoms: C_7  and  C_8
REMARK    4  A    between atoms: C_9  and  C_10
REMARK    5  A    between atoms: C_13  and  O_29
REMARK    6  A    between atoms: C_20  and  O_28
REMARK    7  A    between atoms: C_22  and  C_23
REMARK    8  A    between atoms: C_23  and  O_32
REMARK    9  A    between atoms: O_32  and  C_33
REMARK   10  A    between atoms: C_33  and  C_35
REMARK   11  A    between atoms: C_36  and  C_37
REMARK                            x       y       z     vdW  Elec       q    Type
REMARK                         _______ _______ _______ _____ _____    ______ ____
ROOT
ATOM      1  C   UNL     1     110.064 132.958 136.374  0.00  0.00    +0.000 C 
ATOM      2  C   UNL     1     110.424 133.101 137.336  0.00  0.00    +0.000 C 
ATOM      3  C   UNL     1     109.981 132.355 137.907  0.00  0.00    +0.000 C 
ATOM      4  C   UNL     1     109.852 131.894 138.826  0.00  0.00    +0.000 C 
ATOM      5  O   UNL     1     109.493 131.752 137.863  0.00  0.00    +0.000 OA
ATOM      6  C   UNL     1     109.935 132.496 137.293  0.00  0.00    +0.000 C 
ATOM      7  O   UNL     1     110.587 133.638 136.318  0.00  0.00    +0.000 OA
ATOM      8  O   UNL     1     110.403 133.278 136.710  0.00  0.00    +0.000 OA
ATOM      9  O   UNL     1     110.501 132.897 138.267  0.00  0.00    +0.000 OA
ENDROOT
BRANCH   6  10
ATOM     10  C   UNL     1     109.574 132.241 136.673  0.00  0.00    +0.000 C 
BRANCH  10  11
ATOM     11  O   UNL     1     109.614 131.562 136.044  0.00  0.00    +0.000 OA
BRANCH  11  12
ATOM     12  C   UNL     1     109.157 130.953 135.343  0.00  0.00    +0.000 C 
ATOM     13  O   UNL     1     108.339 131.300 134.811  0.00  0.00    +0.000 OA
BRANCH  12  14
ATOM     14  C   UNL     1     109.519 129.998 135.173  0.00  0.00    +0.000 C 
ATOM     15  C   UNL     1     108.993 129.176 135.518  0.00  0.00    +0.000 C 
BRANCH  15  16
ATOM     16  C   UNL     1     109.354 128.221 135.348  0.00  0.00    +0.000 A 
ATOM     17  C   UNL     1     108.855 127.400 135.738  0.00  0.00    +0.000 A 
ATOM     18  C   UNL     1     109.217 126.444 135.568  0.00  0.00    +0.000 A 
ATOM     19  C   UNL     1     110.078 126.308 135.007  0.00  0.00    +0.000 A 
ATOM     20  C   UNL     1     110.577 127.128 134.616  0.00  0.00    +0.000 A 
ATOM     21  C   UNL     1     110.215 128.085 134.786  0.00  0.00    +0.000 A 
ATOM     22  O   UNL     1     110.439 125.353 134.836  0.00  0.00    +0.000 OA
ENDBRANCH  15  16
ENDBRANCH  12  14
ENDBRANCH  11  12
ENDBRANCH  10  11
ENDBRANCH   6  10
BRANCH   4  23
ATOM     23  O   UNL     1     109.402 131.198 139.214  0.00  0.00    +0.000 OA
BRANCH  23  24
ATOM     24  C   UNL     1     109.497 130.997 140.158  0.00  0.00    +0.000 A 
ATOM     25  C   UNL     1     108.656 130.813 140.735  0.00  0.00    +0.000 A 
ATOM     26  C   UNL     1     108.756 130.597 141.745  0.00  0.00    +0.000 A 
ATOM     27  C   UNL     1     109.698 130.566 142.177  0.00  0.00    +0.000 A 
ATOM     28  C   UNL     1     110.540 130.751 141.599  0.00  0.00    +0.000 A 
ATOM     29  C   UNL     1     110.439 130.966 140.590  0.00  0.00    +0.000 A 
ATOM     30  O   UNL     1     108.031 130.439 142.242  0.00  0.00    +0.000 OA
ATOM     31  O   UNL     1     107.781 130.866 140.222  0.00  0.00    +0.000 OA
BRANCH  27  32
ATOM     32  C   UNL     1     109.799 130.351 143.186  0.00  0.00    +0.000 C 
ATOM     33  O   UNL     1     110.067 129.397 143.489  0.00  0.00    +0.000 OA
BRANCH  32  34
ATOM     34  C   UNL     1     109.630 131.091 143.893  0.00  0.00    +0.000 C 
ATOM     35  C   UNL     1     110.115 131.055 144.809  0.00  0.00    +0.000 C 
BRANCH  35  36
ATOM     36  C   UNL     1     109.946 131.795 145.514  0.00  0.00    +0.000 A 
ATOM     37  C   UNL     1     108.985 131.973 145.860  0.00  0.00    +0.000 A 
ATOM     38  C   UNL     1     108.815 132.713 146.566  0.00  0.00    +0.000 A 
ATOM     39  C   UNL     1     109.608 133.276 146.927  0.00  0.00    +0.000 A 
ATOM     40  C   UNL     1     110.569 133.097 146.582  0.00  0.00    +0.000 A 
ATOM     41  C   UNL     1     110.739 132.357 145.876  0.00  0.00    +0.000 A 
ATOM     42  O   UNL     1     111.267 133.593 146.900  0.00  0.00    +0.000 OA
BRANCH  39  43
ATOM     43  O   UNL     1     109.447 133.981 147.599  0.00  0.00    +0.000 OA
ATOM     44  C   UNL     1     108.624 133.960 148.154  0.00  0.00    +0.000 C 
ENDBRANCH  39  43
ENDBRANCH  35  36
ENDBRANCH  32  34
ENDBRANCH  27  32
ENDBRANCH  23  24
ENDBRANCH   4  23
TORSDOF 11
ENDMDL
MODEL 7
REMARK VINA RESULT:      -9.3      7.111      8.935
REMARK  Name = 
REMARK  11 active torsions:
REMARK  status: ('A' for Active; 'I' for Inactive)
REMARK    1  A    between atoms: C_1  and  O_28
REMARK    2  A    between atoms: C_4  and  C_7
REMARK    3  A    between atoms: C_7  and  C_8
REMARK    4  A    between atoms: C_9  and  C_10
REMARK    5  A    between atoms: C_13  and  O_29
REMARK    6  A    between atoms: C_20  and  O_28
REMARK    7  A    between atoms: C_22  and  C_23
REMARK    8  A    between atoms: C_23  and  O_32
REMARK    9  A    between atoms: O_32  and  C_33
REMARK   10  A    between atoms: C_33  and  C_35
REMARK   11  A    between atoms: C_36  and  C_37
REMARK                            x       y       z     vdW  Elec       q    Type
REMARK                         _______ _______ _______ _____ _____    ______ ____
ROOT
ATOM      1  C   UNL     1     113.441 130.577 136.839  0.00  0.00    +0.000 C 
ATOM      2  C   UNL     1     112.968 131.012 137.653  0.00  0.00    +0.000 C 
ATOM      3  C   UNL     1     112.975 130.286 138.394  0.00  0.00    +0.000 C 
ATOM      4  C   UNL     1     112.731 129.992 139.358  0.00  0.00    +0.000 C 
ATOM      5  O   UNL     1     113.204 129.557 138.543  0.00  0.00    +0.000 OA
ATOM      6  C   UNL     1     113.197 130.283 137.802  0.00  0.00    +0.000 C 
ATOM      7  O   UNL     1     113.230 131.368 136.577  0.00  0.00    +0.000 OA
ATOM      8  O   UNL     1     113.182 131.050 137.039  0.00  0.00    +0.000 OA
ATOM      9  O   UNL     1     112.629 131.027 138.547  0.00  0.00    +0.000 OA
ENDROOT
BRANCH   6  10
ATOM     10  C   UNL     1     113.558 129.809 137.329  0.00  0.00    +0.000 C 
BRANCH  10  11
ATOM     11  O   UNL     1     113.391 129.123 136.730  0.00  0.00    +0.000 OA
BRANCH  11  12
ATOM     12  C   UNL     1     113.704 128.291 136.200  0.00  0.00    +0.000 C 
ATOM     13  O   UNL     1     114.498 128.367 135.539  0.00  0.00    +0.000 OA
BRANCH  12  14
ATOM     14  C   UNL     1     113.224 127.383 136.329  0.00  0.00    +0.000 C 
ATOM     15  C   UNL     1     113.775 126.528 136.519  0.00  0.00    +0.000 C 
BRANCH  15  16
ATOM     16  C   UNL     1     113.295 125.620 136.648  0.00  0.00    +0.000 A 
ATOM     17  C   UNL     1     112.280 125.538 136.452  0.00  0.00    +0.000 A 
ATOM     18  C   UNL     1     111.799 124.628 136.581  0.00  0.00    +0.000 A 
ATOM     19  C   UNL     1     112.333 123.801 136.907  0.00  0.00    +0.000 A 
ATOM     20  C   UNL     1     113.347 123.883 137.104  0.00  0.00    +0.000 A 
ATOM     21  C   UNL     1     113.828 124.793 136.974  0.00  0.00    +0.000 A 
ATOM     22  O   UNL     1     111.852 122.894 137.037  0.00  0.00    +0.000 OA
ENDBRANCH  15  16
ENDBRANCH  12  14
ENDBRANCH  11  12
ENDBRANCH  10  11
ENDBRANCH   6  10
BRANCH   4  23
ATOM     23  O   UNL     1     112.801 129.274 139.921  0.00  0.00    +0.000 OA
BRANCH  23  24
ATOM     24  C   UNL     1     112.501 129.320 140.841  0.00  0.00    +0.000 A 
ATOM     25  C   UNL     1     111.862 128.594 141.215  0.00  0.00    +0.000 A 
ATOM     26  C   UNL     1     111.541 128.643 142.200  0.00  0.00    +0.000 A 
ATOM     27  C   UNL     1     111.859 129.419 142.811  0.00  0.00    +0.000 A 
ATOM     28  C   UNL     1     112.498 130.145 142.437  0.00  0.00    +0.000 A 
ATOM     29  C   UNL     1     112.819 130.095 141.452  0.00  0.00    +0.000 A 
ATOM     30  O   UNL     1     110.990 128.018 142.522  0.00  0.00    +0.000 OA
ATOM     31  O   UNL     1     111.608 127.878 140.541  0.00  0.00    +0.000 OA
BRANCH  27  32
ATOM     32  C   UNL     1     111.538 129.468 143.796  0.00  0.00    +0.000 C 
ATOM     33  O   UNL     1     111.778 128.708 144.458  0.00  0.00    +0.000 OA
BRANCH  32  34
ATOM     34  C   UNL     1     110.976 130.278 144.118  0.00  0.00    +0.000 C 
ATOM     35  C   UNL     1     110.932 130.511 145.127  0.00  0.00    +0.000 C 
BRANCH  35  36
ATOM     36  C   UNL     1     110.370 131.320 145.448  0.00  0.00    +0.000 A 
ATOM     37  C   UNL     1     109.334 131.274 145.426  0.00  0.00    +0.000 A 
ATOM     38  C   UNL     1     108.771 132.083 145.747  0.00  0.00    +0.000 A 
ATOM     39  C   UNL     1     109.244 132.940 146.091  0.00  0.00    +0.000 A 
ATOM     40  C   UNL     1     110.280 132.986 146.113  0.00  0.00    +0.000 A 
ATOM     41  C   UNL     1     110.843 132.176 145.792  0.00  0.00    +0.000 A 
ATOM     42  O   UNL     1     110.697 133.740 146.415  0.00  0.00    +0.000 OA
BRANCH  39  43
ATOM     43  O   UNL     1     108.709 133.711 146.397  0.00  0.00    +0.000 OA
ATOM     44  C   UNL     1     107.757 133.586 146.647  0.00  0.00    +0.000 C 
ENDBRANCH  39  43
ENDBRANCH  35  36
ENDBRANCH  32  34
ENDBRANCH  27  32
ENDBRANCH  23  24
ENDBRANCH   4  23
TORSDOF 11
ENDMDL
MODEL 8
REMARK VINA RESULT:      -9.3      6.480      8.328
REMARK  Name = 
REMARK  11 active torsions:
REMARK  status: ('A' for Active; 'I' for Inactive)
REMARK    1  A    between atoms: C_1  and  O_28
REMARK    2  A    between atoms: C_4  and  C_7
REMARK    3  A    between atoms: C_7  and  C_8
REMARK    4  A    between atoms: C_9  and  C_10
REMARK    5  A    between atoms: C_13  and  O_29
REMARK    6  A    between atoms: C_20  and  O_28
REMARK    7  A    between atoms: C_22  and  C_23
REMARK    8  A    between atoms: C_23  and  O_32
REMARK    9  A    between atoms: O_32  and  C_33
REMARK   10  A    between atoms: C_33  and  C_35
REMARK   11  A    between atoms: C_36  and  C_37
REMARK                            x       y       z     vdW  Elec       q    Type
REMARK                         _______ _______ _______ _____ _____    ______ ____
ROOT
ATOM      1  C   UNL     1     109.157 125.551 140.470  0.00  0.00    +0.000 C 
ATOM      2  C   UNL     1     109.452 126.014 141.350  0.00  0.00    +0.000 C 
ATOM      3  C   UNL     1     109.780 126.957 141.067  0.00  0.00    +0.000 C 
ATOM      4  C   UNL     1     110.171 127.881 141.328  0.00  0.00    +0.000 C 
ATOM      5  O   UNL     1     109.876 127.417 140.447  0.00  0.00    +0.000 OA
ATOM      6  C   UNL     1     109.549 126.475 140.731  0.00  0.00    +0.000 C 
ATOM      7  O   UNL     1     109.014 124.970 141.087  0.00  0.00    +0.000 OA
ATOM      8  O   UNL     1     109.211 125.495 141.040  0.00  0.00    +0.000 OA
ATOM      9  O   UNL     1     109.801 126.738 141.870  0.00  0.00    +0.000 OA
ENDROOT
BRANCH   6  10
ATOM     10  C   UNL     1     109.389 126.308 140.005  0.00  0.00    +0.000 C 
BRANCH  10  11
ATOM     11  O   UNL     1     109.803 126.070 139.212  0.00  0.00    +0.000 OA
BRANCH  11  12
ATOM     12  C   UNL     1     109.897 126.145 138.184  0.00  0.00    +0.000 C 
ATOM     13  O   UNL     1     109.059 126.309 137.599  0.00  0.00    +0.000 OA
BRANCH  12  14
ATOM     14  C   UNL     1     110.828 126.055 137.741  0.00  0.00    +0.000 C 
ATOM     15  C   UNL     1     111.411 125.220 137.924  0.00  0.00    +0.000 C 
BRANCH  15  16
ATOM     16  C   UNL     1     112.342 125.130 137.481  0.00  0.00    +0.000 A 
ATOM     17  C   UNL     1     113.105 125.784 137.739  0.00  0.00    +0.000 A 
ATOM     18  C   UNL     1     114.038 125.694 137.295  0.00  0.00    +0.000 A 
ATOM     19  C   UNL     1     114.208 124.951 136.593  0.00  0.00    +0.000 A 
ATOM     20  C   UNL     1     113.446 124.297 136.334  0.00  0.00    +0.000 A 
ATOM     21  C   UNL     1     112.513 124.387 136.778  0.00  0.00    +0.000 A 
ATOM     22  O   UNL     1     115.139 124.862 136.150  0.00  0.00    +0.000 OA
ENDBRANCH  15  16
ENDBRANCH  12  14
ENDBRANCH  11  12
ENDBRANCH  10  11
ENDBRANCH   6  10
BRANCH   4  23
ATOM     23  O   UNL     1     110.428 128.675 140.952  0.00  0.00    +0.000 OA
BRANCH  23  24
ATOM     24  C   UNL     1     110.879 129.359 141.471  0.00  0.00    +0.000 A 
ATOM     25  C   UNL     1     110.645 130.358 141.324  0.00  0.00    +0.000 A 
ATOM     26  C   UNL     1     111.127 131.091 141.878  0.00  0.00    +0.000 A 
ATOM     27  C   UNL     1     111.842 130.823 142.580  0.00  0.00    +0.000 A 
ATOM     28  C   UNL     1     112.076 129.823 142.727  0.00  0.00    +0.000 A 
ATOM     29  C   UNL     1     111.594 129.092 142.172  0.00  0.00    +0.000 A 
ATOM     30  O   UNL     1     110.926 131.952 141.752  0.00  0.00    +0.000 OA
ATOM     31  O   UNL     1     109.934 130.519 140.617  0.00  0.00    +0.000 OA
BRANCH  27  32
ATOM     32  C   UNL     1     112.323 131.555 143.134  0.00  0.00    +0.000 C 
ATOM     33  O   UNL     1     113.165 132.024 142.754  0.00  0.00    +0.000 OA
BRANCH  32  34
ATOM     34  C   UNL     1     111.961 131.818 144.070  0.00  0.00    +0.000 C 
ATOM     35  C   UNL     1     112.543 132.390 144.710  0.00  0.00    +0.000 C 
BRANCH  35  36
ATOM     36  C   UNL     1     112.181 132.653 145.644  0.00  0.00    +0.000 A 
ATOM     37  C   UNL     1     112.743 132.455 146.494  0.00  0.00    +0.000 A 
ATOM     38  C   UNL     1     112.382 132.717 147.429  0.00  0.00    +0.000 A 
ATOM     39  C   UNL     1     111.457 133.178 147.516  0.00  0.00    +0.000 A 
ATOM     40  C   UNL     1     110.895 133.376 146.668  0.00  0.00    +0.000 A 
ATOM     41  C   UNL     1     111.256 133.114 145.731  0.00  0.00    +0.000 A 
ATOM     42  O   UNL     1     110.080 133.782 146.745  0.00  0.00    +0.000 OA
BRANCH  39  43
ATOM     43  O   UNL     1     111.111 133.428 148.407  0.00  0.00    +0.000 OA
ATOM     44  C   UNL     1     111.660 133.260 149.217  0.00  0.00    +0.000 C 
ENDBRANCH  39  43
ENDBRANCH  35  36
ENDBRANCH  32  34
ENDBRANCH  27  32
ENDBRANCH  23  24
ENDBRANCH   4  23
TORSDOF 11
ENDMDL
MODEL 9
REMARK VINA RESULT:      -9.3      7.651      9.688
REMARK  Name = 
REMARK  11 active torsions:
REMARK  status: ('A' for Active; 'I' for Inactive)
REMARK    1  A    between atoms: C_1  and  O_28
REMARK    2  A    between atoms: C_4  and  C_7
REMARK    3  A    between atoms: C_7  and  C_8
REMARK    4  A    between atoms: C_9  and  C_10
REMARK    5  A    between atoms: C_13  and  O_29
REMARK    6  A    between atoms: C_20  and  O_28
REMARK    7  A    between atoms: C_22  and  C_23
REMARK    8  A    between atoms: C_23  and  O_32
REMARK    9  A    between atoms: O_32  and  C_33
REMARK   10  A    between atoms: C_33  and  C_35
REMARK   11  A    between atoms: C_36  and  C_37
REMARK                            x       y       z     vdW  Elec       q    Type
REMARK                         _______ _______ _______ _____ _____    ______ ____
ROOT
ATOM      1  C   UNL     1     111.545 125.759 138.866  0.00  0.00    +0.000 C 
ATOM      2  C   UNL     1     111.072 126.175 139.690  0.00  0.00    +0.000 C 
ATOM      3  C   UNL     1     111.748 126.861 140.077  0.00  0.00    +0.000 C 
ATOM      4  C   UNL     1     111.986 127.574 140.791  0.00  0.00    +0.000 C 
ATOM      5  O   UNL     1     112.459 127.158 139.966  0.00  0.00    +0.000 OA
ATOM      6  C   UNL     1     111.783 126.473 139.580  0.00  0.00    +0.000 C 
ATOM      7  O   UNL     1     110.780 125.371 138.903  0.00  0.00    +0.000 OA
ATOM      8  O   UNL     1     111.068 125.762 139.187  0.00  0.00    +0.000 OA
ATOM      9  O   UNL     1     111.009 126.759 140.446  0.00  0.00    +0.000 OA
ENDROOT
BRANCH   6  10
ATOM     10  C   UNL     1     112.276 126.291 139.029  0.00  0.00    +0.000 C 
BRANCH  10  11
ATOM     11  O   UNL     1     112.629 126.623 138.239  0.00  0.00    +0.000 OA
BRANCH  11  12
ATOM     12  C   UNL     1     113.299 126.560 137.453  0.00  0.00    +0.000 C 
ATOM     13  O   UNL     1     113.479 125.647 136.999  0.00  0.00    +0.000 OA
BRANCH  12  14
ATOM     14  C   UNL     1     113.788 127.409 137.120  0.00  0.00    +0.000 C 
ATOM     15  C   UNL     1     113.329 128.038 136.438  0.00  0.00    +0.000 C 
BRANCH  15  16
ATOM     16  C   UNL     1     113.818 128.887 136.106  0.00  0.00    +0.000 A 
ATOM     17  C   UNL     1     113.729 129.777 136.631  0.00  0.00    +0.000 A 
ATOM     18  C   UNL     1     114.219 130.628 136.298  0.00  0.00    +0.000 A 
ATOM     19  C   UNL     1     114.799 130.589 135.439  0.00  0.00    +0.000 A 
ATOM     20  C   UNL     1     114.889 129.700 134.914  0.00  0.00    +0.000 A 
ATOM     21  C   UNL     1     114.399 128.849 135.247  0.00  0.00    +0.000 A 
ATOM     22  O   UNL     1     115.288 131.438 135.107  0.00  0.00    +0.000 OA
ENDBRANCH  15  16
ENDBRANCH  12  14
ENDBRANCH  11  12
ENDBRANCH  10  11
ENDBRANCH   6  10
BRANCH   4  23
ATOM     23  O   UNL     1     112.663 128.140 141.031  0.00  0.00    +0.000 OA
BRANCH  23  24
ATOM     24  C   UNL     1     112.485 128.987 141.468  0.00  0.00    +0.000 A 
ATOM     25  C   UNL     1     113.177 129.758 141.405  0.00  0.00    +0.000 A 
ATOM     26  C   UNL     1     112.987 130.664 141.872  0.00  0.00    +0.000 A 
ATOM     27  C   UNL     1     112.106 130.800 142.402  0.00  0.00    +0.000 A 
ATOM     28  C   UNL     1     111.414 130.029 142.464  0.00  0.00    +0.000 A 
ATOM     29  C   UNL     1     111.604 129.124 141.997  0.00  0.00    +0.000 A 
ATOM     30  O   UNL     1     113.583 131.328 141.818  0.00  0.00    +0.000 OA
ATOM     31  O   UNL     1     114.006 129.528 140.866  0.00  0.00    +0.000 OA
BRANCH  27  32
ATOM     32  C   UNL     1     111.917 131.706 142.869  0.00  0.00    +0.000 C 
ATOM     33  O   UNL     1     111.581 132.515 142.314  0.00  0.00    +0.000 OA
BRANCH  32  34
ATOM     34  C   UNL     1     112.063 131.803 143.891  0.00  0.00    +0.000 C 
ATOM     35  C   UNL     1     111.594 132.567 144.412  0.00  0.00    +0.000 C 
BRANCH  35  36
ATOM     36  C   UNL     1     111.741 132.663 145.433  0.00  0.00    +0.000 A 
ATOM     37  C   UNL     1     112.568 132.226 145.883  0.00  0.00    +0.000 A 
ATOM     38  C   UNL     1     112.715 132.322 146.905  0.00  0.00    +0.000 A 
ATOM     39  C   UNL     1     112.035 132.855 147.478  0.00  0.00    +0.000 A 
ATOM     40  C   UNL     1     111.209 133.292 147.029  0.00  0.00    +0.000 A 
ATOM     41  C   UNL     1     111.061 133.196 146.007  0.00  0.00    +0.000 A 
ATOM     42  O   UNL     1     110.610 133.762 147.534  0.00  0.00    +0.000 OA
BRANCH  39  43
ATOM     43  O   UNL     1     112.174 132.947 148.451  0.00  0.00    +0.000 OA
ATOM     44  C   UNL     1     112.818 132.353 148.919  0.00  0.00    +0.000 C 
ENDBRANCH  39  43
ENDBRANCH  35  36
ENDBRANCH  32  34
ENDBRANCH  27  32
ENDBRANCH  23  24
ENDBRANCH   4  23
TORSDOF 11
ENDMDL
MODEL 10
REMARK VINA RESULT:      -9.2      7.347      8.846
REMARK  Name = 
REMARK  11 active torsions:
REMARK  status: ('A' for Active; 'I' for Inactive)
REMARK    1  A    between atoms: C_1  and  O_28
REMARK    2  A    between atoms: C_4  and  C_7
REMARK    3  A    between atoms: C_7  and  C_8
REMARK    4  A    between atoms: C_9  and  C_10
REMARK    5  A    between atoms: C_13  and  O_29
REMARK    6  A    between atoms: C_20  and  O_28
REMARK    7  A    between atoms: C_22  and  C_23
REMARK    8  A    between atoms: C_23  and  O_32
REMARK    9  A    between atoms: O_32  and  C_33
REMARK   10  A    between atoms: C_33  and  C_35
REMARK   11  A    between atoms: C_36  and  C_37
REMARK                            x       y       z     vdW  Elec       q    Type
REMARK                         _______ _______ _______ _____ _____    ______ ____
ROOT
ATOM      1  C   UNL     1     108.599 128.432 135.628  0.00  0.00    +0.000 C 
ATOM      2  C   UNL     1     108.691 129.149 136.372  0.00  0.00    +0.000 C 
ATOM      3  C   UNL     1     109.661 129.052 136.728  0.00  0.00    +0.000 C 
ATOM      4  C   UNL     1     110.409 129.361 137.376  0.00  0.00    +0.000 C 
ATOM      5  O   UNL     1     110.316 128.643 136.632  0.00  0.00    +0.000 OA
ATOM      6  C   UNL     1     109.347 128.741 136.277  0.00  0.00    +0.000 C 
ATOM      7  O   UNL     1     107.835 128.824 135.656  0.00  0.00    +0.000 OA
ATOM      8  O   UNL     1     108.333 128.853 135.916  0.00  0.00    +0.000 OA
ATOM      9  O   UNL     1     109.158 129.628 137.056  0.00  0.00    +0.000 OA
ENDROOT
BRANCH   6  10
ATOM     10  C   UNL     1     109.468 128.176 135.781  0.00  0.00    +0.000 C 
BRANCH  10  11
ATOM     11  O   UNL     1     109.529 127.253 135.742  0.00  0.00    +0.000 OA
BRANCH  11  12
ATOM     12  C   UNL     1     109.953 126.391 135.354  0.00  0.00    +0.000 C 
ATOM     13  O   UNL     1     109.412 125.797 134.702  0.00  0.00    +0.000 OA
BRANCH  12  14
ATOM     14  C   UNL     1     110.918 126.125 135.619  0.00  0.00    +0.000 C 
ATOM     15  C   UNL     1     111.080 125.513 136.437  0.00  0.00    +0.000 C 
BRANCH  15  16
ATOM     16  C   UNL     1     112.044 125.246 136.702  0.00  0.00    +0.000 A 
ATOM     17  C   UNL     1     112.641 125.911 137.228  0.00  0.00    +0.000 A 
ATOM     18  C   UNL     1     113.608 125.644 137.493  0.00  0.00    +0.000 A 
ATOM     19  C   UNL     1     113.977 124.711 137.232  0.00  0.00    +0.000 A 
ATOM     20  C   UNL     1     113.381 124.046 136.706  0.00  0.00    +0.000 A 
ATOM     21  C   UNL     1     112.415 124.313 136.441  0.00  0.00    +0.000 A 
ATOM     22  O   UNL     1     114.942 124.445 137.496  0.00  0.00    +0.000 OA
ENDBRANCH  15  16
ENDBRANCH  12  14
ENDBRANCH  11  12
ENDBRANCH  10  11
ENDBRANCH   6  10
BRANCH   4  23
ATOM     23  O   UNL     1     111.277 129.176 137.599  0.00  0.00    +0.000 OA
BRANCH  23  24
ATOM     24  C   UNL     1     111.630 129.384 138.478  0.00  0.00    +0.000 A 
ATOM     25  C   UNL     1     112.440 130.024 138.572  0.00  0.00    +0.000 A 
ATOM     26  C   UNL     1     112.819 130.248 139.511  0.00  0.00    +0.000 A 
ATOM     27  C   UNL     1     112.387 129.830 140.356  0.00  0.00    +0.000 A 
ATOM     28  C   UNL     1     111.577 129.189 140.262  0.00  0.00    +0.000 A 
ATOM     29  C   UNL     1     111.199 128.967 139.323  0.00  0.00    +0.000 A 
ATOM     30  O   UNL     1     113.516 130.799 139.592  0.00  0.00    +0.000 OA
ATOM     31  O   UNL     1     112.792 130.381 137.688  0.00  0.00    +0.000 OA
BRANCH  27  32
ATOM     32  C   UNL     1     112.765 130.053 141.296  0.00  0.00    +0.000 C 
ATOM     33  O   UNL     1     113.635 129.597 141.626  0.00  0.00    +0.000 OA
BRANCH  32  34
ATOM     34  C   UNL     1     112.273 130.733 141.905  0.00  0.00    +0.000 C 
ATOM     35  C   UNL     1     112.537 130.821 142.904  0.00  0.00    +0.000 C 
BRANCH  35  36
ATOM     36  C   UNL     1     112.045 131.500 143.511  0.00  0.00    +0.000 A 
ATOM     37  C   UNL     1     111.174 131.222 144.003  0.00  0.00    +0.000 A 
ATOM     38  C   UNL     1     110.681 131.901 144.611  0.00  0.00    +0.000 A 
ATOM     39  C   UNL     1     111.058 132.860 144.729  0.00  0.00    +0.000 A 
ATOM     40  C   UNL     1     111.928 133.139 144.238  0.00  0.00    +0.000 A 
ATOM     41  C   UNL     1     112.421 132.459 143.629  0.00  0.00    +0.000 A 
ATOM     42  O   UNL     1     112.259 133.983 144.342  0.00  0.00    +0.000 OA
BRANCH  39  43
ATOM     43  O   UNL     1     110.589 133.508 145.308  0.00  0.00    +0.000 OA
ATOM     44  C   UNL     1     109.842 133.205 145.889  0.00  0.00    +0.000 C 
ENDBRANCH  39  43
ENDBRANCH  35  36
ENDBRANCH  32  34
ENDBRANCH  27  32
ENDBRANCH  23  24
ENDBRANCH   4  23
TORSDOF 11
ENDMDL
