MODEL 1
REMARK VINA RESULT:      -9.6      0.000      0.000
REMARK  Name = ormeloxifene
REMARK  7 active torsions:
REMARK  status: ('A' for Active; 'I' for Inactive)
REMARK    1  A    between atoms: C_2  and  C_5
REMARK    2  A    between atoms: C_4  and  C_8
REMARK    3  A    between atoms: C_17  and  O_22
REMARK    4  A    between atoms: C_23  and  O_25
REMARK    5  A    between atoms: O_25  and  C_26
REMARK    6  A    between atoms: C_26  and  C_27
REMARK    7  A    between atoms: C_27  and  N_28
REMARK                            x       y       z     vdW  Elec       q    Type
REMARK                         _______ _______ _______ _____ _____    ______ ____
ROOT
ATOM      1  C   UNL     1     112.171 124.673 136.344  0.00  0.00    +0.000 C 
ATOM      2  C   UNL     1     112.477 125.402 136.599  0.00  0.00    +0.000 C 
ATOM      3  O   UNL     1     111.466 124.644 135.918  0.00  0.00    +0.000 OA
ATOM      4  C   UNL     1     112.077 126.103 136.429  0.00  0.00    +0.000 C 
ATOM      5  C   UNL     1     111.065 125.345 135.747  0.00  0.00    +0.000 A 
ATOM      6  C   UNL     1     111.372 126.074 136.002  0.00  0.00    +0.000 A 
ATOM      7  C   UNL     1     110.360 125.317 135.321  0.00  0.00    +0.000 A 
ATOM      8  C   UNL     1     110.972 126.775 135.832  0.00  0.00    +0.000 A 
ATOM      9  C   UNL     1     109.960 126.018 135.150  0.00  0.00    +0.000 A 
ATOM     10  C   UNL     1     110.266 126.747 135.406  0.00  0.00    +0.000 A 
ATOM     11  C   UNL     1     112.044 123.872 136.188  0.00  0.00    +0.000 C 
ATOM     12  C   UNL     1     112.868 124.484 136.743  0.00  0.00    +0.000 C 
ENDROOT
BRANCH   2  13
ATOM     13  C   UNL     1     113.182 125.426 137.025  0.00  0.00    +0.000 A 
ATOM     14  C   UNL     1     113.167 125.416 137.849  0.00  0.00    +0.000 A 
ATOM     15  C   UNL     1     113.907 125.460 136.627  0.00  0.00    +0.000 A 
ATOM     16  C   UNL     1     113.874 125.440 138.277  0.00  0.00    +0.000 A 
ATOM     17  C   UNL     1     114.610 125.484 137.054  0.00  0.00    +0.000 A 
ATOM     18  C   UNL     1     114.594 125.474 137.878  0.00  0.00    +0.000 A 
ENDBRANCH   2  13
BRANCH   4  19
ATOM     19  C   UNL     1     112.381 126.827 136.682  0.00  0.00    +0.000 A 
ATOM     20  C   UNL     1     112.916 127.238 136.205  0.00  0.00    +0.000 A 
ATOM     21  C   UNL     1     112.150 127.138 137.408  0.00  0.00    +0.000 A 
ATOM     22  C   UNL     1     113.219 127.962 136.459  0.00  0.00    +0.000 A 
ATOM     23  C   UNL     1     112.454 127.862 137.661  0.00  0.00    +0.000 A 
ATOM     24  C   UNL     1     112.987 128.275 137.189  0.00  0.00    +0.000 A 
BRANCH  24  25
ATOM     25  O   UNL     1     113.291 128.999 137.443  0.00  0.00    +0.000 OA
BRANCH  25  26
ATOM     26  C   UNL     1     113.413 129.135 138.246  0.00  0.00    +0.000 C 
BRANCH  26  27
ATOM     27  C   UNL     1     113.748 129.846 138.498  0.00  0.00    +0.000 C 
BRANCH  27  28
ATOM     28  N   UNL     1     113.990 129.934 139.282  0.00  0.00    +0.000 NA
ATOM     29  C   UNL     1     114.441 130.616 139.395  0.00  0.00    +0.000 C 
ATOM     30  C   UNL     1     113.919 129.548 139.999  0.00  0.00    +0.000 C 
ATOM     31  C   UNL     1     114.643 130.626 140.221  0.00  0.00    +0.000 C 
ATOM     32  C   UNL     1     114.325 129.978 140.582  0.00  0.00    +0.000 C 
ENDBRANCH  27  28
ENDBRANCH  26  27
ENDBRANCH  25  26
ENDBRANCH  24  25
ENDBRANCH   4  19
BRANCH   9  33
ATOM     33  O   UNL     1     109.254 125.992 134.724  0.00  0.00    +0.000 OA
ATOM     34  C   UNL     1     108.570 126.335 135.037  0.00  0.00    +0.000 C 
ENDBRANCH   9  33
TORSDOF 7
ENDMDL
MODEL 2
REMARK VINA RESULT:      -9.3      2.464      4.175
REMARK  Name = ormeloxifene
REMARK  7 active torsions:
REMARK  status: ('A' for Active; 'I' for Inactive)
REMARK    1  A    between atoms: C_2  and  C_5
REMARK    2  A    between atoms: C_4  and  C_8
REMARK    3  A    between atoms: C_17  and  O_22
REMARK    4  A    between atoms: C_23  and  O_25
REMARK    5  A    between atoms: O_25  and  C_26
REMARK    6  A    between atoms: C_26  and  C_27
REMARK    7  A    between atoms: C_27  and  N_28
REMARK                            x       y       z     vdW  Elec       q    Type
REMARK                         _______ _______ _______ _____ _____    ______ ____
ROOT
ATOM      1  C   UNL     1     113.413 126.799 136.407  0.00  0.00    +0.000 C 
ATOM      2  C   UNL     1     112.709 127.226 136.291  0.00  0.00    +0.000 C 
ATOM      3  O   UNL     1     113.396 125.977 136.463  0.00  0.00    +0.000 OA
ATOM      4  C   UNL     1     111.988 126.830 136.230  0.00  0.00    +0.000 C 
ATOM      5  C   UNL     1     112.675 125.580 136.402  0.00  0.00    +0.000 A 
ATOM      6  C   UNL     1     111.971 126.007 136.286  0.00  0.00    +0.000 A 
ATOM      7  C   UNL     1     112.657 124.758 136.458  0.00  0.00    +0.000 A 
ATOM      8  C   UNL     1     111.250 125.611 136.225  0.00  0.00    +0.000 A 
ATOM      9  C   UNL     1     111.936 124.361 136.397  0.00  0.00    +0.000 A 
ATOM     10  C   UNL     1     111.233 124.788 136.280  0.00  0.00    +0.000 A 
ATOM     11  C   UNL     1     114.198 126.573 136.520  0.00  0.00    +0.000 C 
ATOM     12  C   UNL     1     113.644 127.590 136.380  0.00  0.00    +0.000 C 
ENDROOT
BRANCH   2  13
ATOM     13  C   UNL     1     112.731 128.048 136.236  0.00  0.00    +0.000 A 
ATOM     14  C   UNL     1     112.658 128.509 136.916  0.00  0.00    +0.000 A 
ATOM     15  C   UNL     1     112.825 128.413 135.500  0.00  0.00    +0.000 A 
ATOM     16  C   UNL     1     112.680 129.334 136.862  0.00  0.00    +0.000 A 
ATOM     17  C   UNL     1     112.847 129.234 135.447  0.00  0.00    +0.000 A 
ATOM     18  C   UNL     1     112.774 129.694 136.127  0.00  0.00    +0.000 A 
ENDBRANCH   2  13
BRANCH   4  19
ATOM     19  C   UNL     1     111.290 127.253 136.114  0.00  0.00    +0.000 A 
ATOM     20  C   UNL     1     111.023 127.405 135.347  0.00  0.00    +0.000 A 
ATOM     21  C   UNL     1     110.860 127.523 136.762  0.00  0.00    +0.000 A 
ATOM     22  C   UNL     1     110.324 127.829 135.232  0.00  0.00    +0.000 A 
ATOM     23  C   UNL     1     110.162 127.946 136.646  0.00  0.00    +0.000 A 
ATOM     24  C   UNL     1     109.893 128.100 135.883  0.00  0.00    +0.000 A 
BRANCH  24  25
ATOM     25  O   UNL     1     109.193 128.523 135.767  0.00  0.00    +0.000 OA
BRANCH  25  26
ATOM     26  C   UNL     1     109.220 129.341 135.665  0.00  0.00    +0.000 C 
BRANCH  26  27
ATOM     27  C   UNL     1     108.527 129.785 135.715  0.00  0.00    +0.000 C 
BRANCH  27  28
ATOM     28  N   UNL     1     108.537 130.590 135.530  0.00  0.00    +0.000 NA
ATOM     29  C   UNL     1     108.004 131.022 135.988  0.00  0.00    +0.000 C 
ATOM     30  C   UNL     1     108.920 131.103 135.021  0.00  0.00    +0.000 C 
ATOM     31  C   UNL     1     108.082 131.830 135.733  0.00  0.00    +0.000 C 
ATOM     32  C   UNL     1     108.636 131.874 135.148  0.00  0.00    +0.000 C 
ENDBRANCH  27  28
ENDBRANCH  26  27
ENDBRANCH  25  26
ENDBRANCH  24  25
ENDBRANCH   4  19
BRANCH   9  33
ATOM     33  O   UNL     1     111.917 123.538 136.452  0.00  0.00    +0.000 OA
ATOM     34  C   UNL     1     111.910 123.174 137.195  0.00  0.00    +0.000 C 
ENDBRANCH   9  33
TORSDOF 7
ENDMDL
MODEL 3
REMARK VINA RESULT:      -9.3      0.999      2.912
REMARK  Name = ormeloxifene
REMARK  7 active torsions:
REMARK  status: ('A' for Active; 'I' for Inactive)
REMARK    1  A    between atoms: C_2  and  C_5
REMARK    2  A    between atoms: C_4  and  C_8
REMARK    3  A    between atoms: C_17  and  O_22
REMARK    4  A    between atoms: C_23  and  O_25
REMARK    5  A    between atoms: O_25  and  C_26
REMARK    6  A    between atoms: C_26  and  C_27
REMARK    7  A    between atoms: C_27  and  N_28
REMARK                            x       y       z     vdW  Elec       q    Type
REMARK                         _______ _______ _______ _____ _____    ______ ____
ROOT
ATOM      1  C   UNL     1     110.394 126.198 135.116  0.00  0.00    +0.000 C 
ATOM      2  C   UNL     1     110.744 126.843 135.506  0.00  0.00    +0.000 C 
ATOM      3  O   UNL     1     110.652 125.430 135.266  0.00  0.00    +0.000 OA
ATOM      4  C   UNL     1     111.354 126.719 136.047  0.00  0.00    +0.000 C 
ATOM      5  C   UNL     1     111.263 125.305 135.807  0.00  0.00    +0.000 A 
ATOM      6  C   UNL     1     111.614 125.950 136.197  0.00  0.00    +0.000 A 
ATOM      7  C   UNL     1     111.522 124.538 135.957  0.00  0.00    +0.000 A 
ATOM      8  C   UNL     1     112.224 125.826 136.738  0.00  0.00    +0.000 A 
ATOM      9  C   UNL     1     112.133 124.413 136.498  0.00  0.00    +0.000 A 
ATOM     10  C   UNL     1     112.484 125.058 136.889  0.00  0.00    +0.000 A 
ATOM     11  C   UNL     1     109.927 125.714 134.637  0.00  0.00    +0.000 C 
ATOM     12  C   UNL     1     109.998 126.863 134.830  0.00  0.00    +0.000 C 
ENDROOT
BRANCH   2  13
ATOM     13  C   UNL     1     110.482 127.609 135.353  0.00  0.00    +0.000 A 
ATOM     14  C   UNL     1     109.856 127.925 135.788  0.00  0.00    +0.000 A 
ATOM     15  C   UNL     1     110.844 128.062 134.764  0.00  0.00    +0.000 A 
ATOM     16  C   UNL     1     109.592 128.693 135.635  0.00  0.00    +0.000 A 
ATOM     17  C   UNL     1     110.580 128.827 134.612  0.00  0.00    +0.000 A 
ATOM     18  C   UNL     1     109.955 129.142 135.048  0.00  0.00    +0.000 A 
ENDBRANCH   2  13
BRANCH   4  19
ATOM     19  C   UNL     1     111.702 127.358 136.435  0.00  0.00    +0.000 A 
ATOM     20  C   UNL     1     112.362 127.731 136.104  0.00  0.00    +0.000 A 
ATOM     21  C   UNL     1     111.393 127.623 137.150  0.00  0.00    +0.000 A 
ATOM     22  C   UNL     1     112.709 128.370 136.492  0.00  0.00    +0.000 A 
ATOM     23  C   UNL     1     111.741 128.263 137.537  0.00  0.00    +0.000 A 
ATOM     24  C   UNL     1     112.398 128.637 137.210  0.00  0.00    +0.000 A 
BRANCH  24  25
ATOM     25  O   UNL     1     112.747 129.277 137.599  0.00  0.00    +0.000 OA
BRANCH  25  26
ATOM     26  C   UNL     1     113.074 129.174 138.348  0.00  0.00    +0.000 C 
BRANCH  26  27
ATOM     27  C   UNL     1     113.475 129.797 138.712  0.00  0.00    +0.000 C 
BRANCH  27  28
ATOM     28  N   UNL     1     113.812 129.693 139.458  0.00  0.00    +0.000 NA
ATOM     29  C   UNL     1     114.212 130.367 139.716  0.00  0.00    +0.000 C 
ATOM     30  C   UNL     1     113.875 129.116 140.033  0.00  0.00    +0.000 C 
ATOM     31  C   UNL     1     114.524 130.171 140.483  0.00  0.00    +0.000 C 
ATOM     32  C   UNL     1     114.317 129.414 140.670  0.00  0.00    +0.000 C 
ENDBRANCH  27  28
ENDBRANCH  26  27
ENDBRANCH  25  26
ENDBRANCH  24  25
ENDBRANCH   4  19
BRANCH   9  33
ATOM     33  O   UNL     1     112.394 123.646 136.651  0.00  0.00    +0.000 OA
ATOM     34  C   UNL     1     112.026 123.192 137.236  0.00  0.00    +0.000 C 
ENDBRANCH   9  33
TORSDOF 7
ENDMDL
MODEL 4
REMARK VINA RESULT:      -9.3      2.048      3.696
REMARK  Name = ormeloxifene
REMARK  7 active torsions:
REMARK  status: ('A' for Active; 'I' for Inactive)
REMARK    1  A    between atoms: C_2  and  C_5
REMARK    2  A    between atoms: C_4  and  C_8
REMARK    3  A    between atoms: C_17  and  O_22
REMARK    4  A    between atoms: C_23  and  O_25
REMARK    5  A    between atoms: O_25  and  C_26
REMARK    6  A    between atoms: C_26  and  C_27
REMARK    7  A    between atoms: C_27  and  N_28
REMARK                            x       y       z     vdW  Elec       q    Type
REMARK                         _______ _______ _______ _____ _____    ______ ____
ROOT
ATOM      1  C   UNL     1     110.926 125.947 135.572  0.00  0.00    +0.000 C 
ATOM      2  C   UNL     1     111.065 126.743 135.769  0.00  0.00    +0.000 C 
ATOM      3  O   UNL     1     111.469 125.365 135.785  0.00  0.00    +0.000 OA
ATOM      4  C   UNL     1     111.748 126.956 136.179  0.00  0.00    +0.000 C 
ATOM      5  C   UNL     1     112.153 125.578 136.196  0.00  0.00    +0.000 A 
ATOM      6  C   UNL     1     112.292 126.373 136.392  0.00  0.00    +0.000 A 
ATOM      7  C   UNL     1     112.696 124.996 136.409  0.00  0.00    +0.000 A 
ATOM      8  C   UNL     1     112.975 126.586 136.802  0.00  0.00    +0.000 A 
ATOM      9  C   UNL     1     113.380 125.208 136.819  0.00  0.00    +0.000 A 
ATOM     10  C   UNL     1     113.519 126.004 137.016  0.00  0.00    +0.000 A 
ATOM     11  C   UNL     1     110.608 125.241 135.290  0.00  0.00    +0.000 C 
ATOM     12  C   UNL     1     110.276 126.359 135.274  0.00  0.00    +0.000 C 
ENDROOT
BRANCH   2  13
ATOM     13  C   UNL     1     110.520 127.322 135.554  0.00  0.00    +0.000 A 
ATOM     14  C   UNL     1     109.897 127.510 136.061  0.00  0.00    +0.000 A 
ATOM     15  C   UNL     1     110.594 127.715 134.831  0.00  0.00    +0.000 A 
ATOM     16  C   UNL     1     109.349 128.091 135.846  0.00  0.00    +0.000 A 
ATOM     17  C   UNL     1     110.048 128.293 134.618  0.00  0.00    +0.000 A 
ATOM     18  C   UNL     1     109.426 128.480 135.125  0.00  0.00    +0.000 A 
ENDBRANCH   2  13
BRANCH   4  19
ATOM     19  C   UNL     1     111.887 127.745 136.374  0.00  0.00    +0.000 A 
ATOM     20  C   UNL     1     111.621 128.043 137.098  0.00  0.00    +0.000 A 
ATOM     21  C   UNL     1     112.290 128.234 135.849  0.00  0.00    +0.000 A 
ATOM     22  C   UNL     1     111.760 128.832 137.293  0.00  0.00    +0.000 A 
ATOM     23  C   UNL     1     112.429 129.024 136.045  0.00  0.00    +0.000 A 
ATOM     24  C   UNL     1     112.165 129.324 136.765  0.00  0.00    +0.000 A 
BRANCH  24  25
ATOM     25  O   UNL     1     112.304 130.114 136.960  0.00  0.00    +0.000 OA
BRANCH  25  26
ATOM     26  C   UNL     1     111.669 130.623 137.089  0.00  0.00    +0.000 C 
BRANCH  26  27
ATOM     27  C   UNL     1     111.800 131.435 137.164  0.00  0.00    +0.000 C 
BRANCH  27  28
ATOM     28  N   UNL     1     111.173 131.940 137.345  0.00  0.00    +0.000 NA
ATOM     29  C   UNL     1     111.174 132.619 136.875  0.00  0.00    +0.000 C 
ATOM     30  C   UNL     1     110.536 131.978 137.856  0.00  0.00    +0.000 C 
ATOM     31  C   UNL     1     110.502 133.076 137.128  0.00  0.00    +0.000 C 
ATOM     32  C   UNL     1     110.120 132.684 137.720  0.00  0.00    +0.000 C 
ENDBRANCH  27  28
ENDBRANCH  26  27
ENDBRANCH  25  26
ENDBRANCH  24  25
ENDBRANCH   4  19
BRANCH   9  33
ATOM     33  O   UNL     1     113.925 124.628 137.034  0.00  0.00    +0.000 OA
ATOM     34  C   UNL     1     114.683 124.845 137.284  0.00  0.00    +0.000 C 
ENDBRANCH   9  33
TORSDOF 7
ENDMDL
MODEL 5
REMARK VINA RESULT:      -9.3     10.192     11.635
REMARK  Name = ormeloxifene
REMARK  7 active torsions:
REMARK  status: ('A' for Active; 'I' for Inactive)
REMARK    1  A    between atoms: C_2  and  C_5
REMARK    2  A    between atoms: C_4  and  C_8
REMARK    3  A    between atoms: C_17  and  O_22
REMARK    4  A    between atoms: C_23  and  O_25
REMARK    5  A    between atoms: O_25  and  C_26
REMARK    6  A    between atoms: C_26  and  C_27
REMARK    7  A    between atoms: C_27  and  N_28
REMARK                            x       y       z     vdW  Elec       q    Type
REMARK                         _______ _______ _______ _____ _____    ______ ____
ROOT
ATOM      1  C   UNL     1     102.711 129.689 140.683  0.00  0.00    +0.000 C 
ATOM      2  C   UNL     1     102.896 130.164 141.340  0.00  0.00    +0.000 C 
ATOM      3  O   UNL     1     103.108 128.977 140.560  0.00  0.00    +0.000 OA
ATOM      4  C   UNL     1     103.479 129.927 141.873  0.00  0.00    +0.000 C 
ATOM      5  C   UNL     1     103.691 128.739 141.092  0.00  0.00    +0.000 A 
ATOM      6  C   UNL     1     103.877 129.214 141.749  0.00  0.00    +0.000 A 
ATOM      7  C   UNL     1     104.088 128.028 140.969  0.00  0.00    +0.000 A 
ATOM      8  C   UNL     1     104.460 128.977 142.282  0.00  0.00    +0.000 A 
ATOM      9  C   UNL     1     104.672 127.790 141.502  0.00  0.00    +0.000 A 
ATOM     10  C   UNL     1     104.858 128.265 142.158  0.00  0.00    +0.000 A 
ATOM     11  C   UNL     1     102.385 129.376 139.993  0.00  0.00    +0.000 C 
ATOM     12  C   UNL     1     102.210 130.342 140.624  0.00  0.00    +0.000 C 
ENDROOT
BRANCH   2  13
ATOM     13  C   UNL     1     102.497 130.874 141.460  0.00  0.00    +0.000 A 
ATOM     14  C   UNL     1     101.800 130.886 141.901  0.00  0.00    +0.000 A 
ATOM     15  C   UNL     1     102.792 131.577 141.139  0.00  0.00    +0.000 A 
ATOM     16  C   UNL     1     101.398 131.599 142.022  0.00  0.00    +0.000 A 
ATOM     17  C   UNL     1     102.391 132.285 141.259  0.00  0.00    +0.000 A 
ATOM     18  C   UNL     1     101.695 132.296 141.700  0.00  0.00    +0.000 A 
ENDBRANCH   2  13
BRANCH   4  19
ATOM     19  C   UNL     1     103.664 130.397 142.524  0.00  0.00    +0.000 A 
ATOM     20  C   UNL     1     104.257 130.970 142.464  0.00  0.00    +0.000 A 
ATOM     21  C   UNL     1     103.257 130.297 143.232  0.00  0.00    +0.000 A 
ATOM     22  C   UNL     1     104.441 131.440 143.116  0.00  0.00    +0.000 A 
ATOM     23  C   UNL     1     103.442 130.768 143.884  0.00  0.00    +0.000 A 
ATOM     24  C   UNL     1     104.032 131.339 143.827  0.00  0.00    +0.000 A 
BRANCH  24  25
ATOM     25  O   UNL     1     104.217 131.811 144.480  0.00  0.00    +0.000 OA
BRANCH  25  26
ATOM     26  C   UNL     1     103.927 132.581 144.525  0.00  0.00    +0.000 C 
BRANCH  26  27
ATOM     27  C   UNL     1     104.110 133.052 145.178  0.00  0.00    +0.000 C 
BRANCH  27  28
ATOM     28  N   UNL     1     103.827 133.826 145.221  0.00  0.00    +0.000 NA
ATOM     29  C   UNL     1     104.254 134.285 145.759  0.00  0.00    +0.000 C 
ATOM     30  C   UNL     1     103.243 134.291 144.889  0.00  0.00    +0.000 C 
ATOM     31  C   UNL     1     103.898 135.057 145.738  0.00  0.00    +0.000 C 
ATOM     32  C   UNL     1     103.288 135.056 145.211  0.00  0.00    +0.000 C 
ENDBRANCH  27  28
ENDBRANCH  26  27
ENDBRANCH  25  26
ENDBRANCH  24  25
ENDBRANCH   4  19
BRANCH   9  33
ATOM     33  O   UNL     1     105.071 127.078 141.380  0.00  0.00    +0.000 OA
ATOM     34  C   UNL     1     105.610 126.805 141.945  0.00  0.00    +0.000 C 
ENDBRANCH   9  33
TORSDOF 7
ENDMDL
MODEL 6
REMARK VINA RESULT:      -9.2      2.102      2.757
REMARK  Name = ormeloxifene
REMARK  7 active torsions:
REMARK  status: ('A' for Active; 'I' for Inactive)
REMARK    1  A    between atoms: C_2  and  C_5
REMARK    2  A    between atoms: C_4  and  C_8
REMARK    3  A    between atoms: C_17  and  O_22
REMARK    4  A    between atoms: C_23  and  O_25
REMARK    5  A    between atoms: O_25  and  C_26
REMARK    6  A    between atoms: C_26  and  C_27
REMARK    7  A    between atoms: C_27  and  N_28
REMARK                            x       y       z     vdW  Elec       q    Type
REMARK                         _______ _______ _______ _____ _____    ______ ____
ROOT
ATOM      1  C   UNL     1     110.632 125.628 135.454  0.00  0.00    +0.000 C 
ATOM      2  C   UNL     1     110.966 125.646 136.215  0.00  0.00    +0.000 C 
ATOM      3  O   UNL     1     110.053 126.174 135.241  0.00  0.00    +0.000 OA
ATOM      4  C   UNL     1     110.721 126.212 136.762  0.00  0.00    +0.000 C 
ATOM      5  C   UNL     1     109.807 126.740 135.788  0.00  0.00    +0.000 A 
ATOM      6  C   UNL     1     110.142 126.759 136.549  0.00  0.00    +0.000 A 
ATOM      7  C   UNL     1     109.228 127.287 135.576  0.00  0.00    +0.000 A 
ATOM      8  C   UNL     1     109.896 127.325 137.097  0.00  0.00    +0.000 A 
ATOM      9  C   UNL     1     108.983 127.854 136.123  0.00  0.00    +0.000 A 
ATOM     10  C   UNL     1     109.317 127.872 136.884  0.00  0.00    +0.000 A 
ATOM     11  C   UNL     1     110.435 125.443 134.674  0.00  0.00    +0.000 C 
ATOM     12  C   UNL     1     111.179 125.010 135.462  0.00  0.00    +0.000 C 
ENDROOT
BRANCH   2  13
ATOM     13  C   UNL     1     111.544 125.098 136.423  0.00  0.00    +0.000 A 
ATOM     14  C   UNL     1     112.341 125.270 136.297  0.00  0.00    +0.000 A 
ATOM     15  C   UNL     1     111.329 124.374 136.760  0.00  0.00    +0.000 A 
ATOM     16  C   UNL     1     112.922 124.720 136.506  0.00  0.00    +0.000 A 
ATOM     17  C   UNL     1     111.908 123.827 136.967  0.00  0.00    +0.000 A 
ATOM     18  C   UNL     1     112.704 124.001 136.840  0.00  0.00    +0.000 A 
ENDBRANCH   2  13
BRANCH   4  19
ATOM     19  C   UNL     1     111.052 126.230 137.517  0.00  0.00    +0.000 A 
ATOM     20  C   UNL     1     111.735 126.675 137.656  0.00  0.00    +0.000 A 
ATOM     21  C   UNL     1     110.703 125.807 138.130  0.00  0.00    +0.000 A 
ATOM     22  C   UNL     1     112.066 126.693 138.412  0.00  0.00    +0.000 A 
ATOM     23  C   UNL     1     111.035 125.826 138.886  0.00  0.00    +0.000 A 
ATOM     24  C   UNL     1     111.715 126.268 139.028  0.00  0.00    +0.000 A 
BRANCH  24  25
ATOM     25  O   UNL     1     112.047 126.286 139.784  0.00  0.00    +0.000 OA
BRANCH  25  26
ATOM     26  C   UNL     1     111.755 126.812 140.347  0.00  0.00    +0.000 C 
BRANCH  26  27
ATOM     27  C   UNL     1     112.145 126.899 141.070  0.00  0.00    +0.000 C 
BRANCH  27  28
ATOM     28  N   UNL     1     111.891 127.469 141.610  0.00  0.00    +0.000 NA
ATOM     29  C   UNL     1     112.490 128.001 141.808  0.00  0.00    +0.000 C 
ATOM     30  C   UNL     1     111.214 127.675 142.020  0.00  0.00    +0.000 C 
ATOM     31  C   UNL     1     112.143 128.544 142.362  0.00  0.00    +0.000 C 
ATOM     32  C   UNL     1     111.372 128.344 142.488  0.00  0.00    +0.000 C 
ENDBRANCH  27  28
ENDBRANCH  26  27
ENDBRANCH  25  26
ENDBRANCH  24  25
ENDBRANCH   4  19
BRANCH   9  33
ATOM     33  O   UNL     1     108.403 128.402 135.913  0.00  0.00    +0.000 OA
ATOM     34  C   UNL     1     108.587 129.208 135.890  0.00  0.00    +0.000 C 
ENDBRANCH   9  33
TORSDOF 7
ENDMDL
MODEL 7
REMARK VINA RESULT:      -9.2      1.319      2.113
REMARK  Name = ormeloxifene
REMARK  7 active torsions:
REMARK  status: ('A' for Active; 'I' for Inactive)
REMARK    1  A    between atoms: C_2  and  C_5
REMARK    2  A    between atoms: C_4  and  C_8
REMARK    3  A    between atoms: C_17  and  O_22
REMARK    4  A    between atoms: C_23  and  O_25
REMARK    5  A    between atoms: O_25  and  C_26
REMARK    6  A    between atoms: C_26  and  C_27
REMARK    7  A    between atoms: C_27  and  N_28
REMARK                            x       y       z     vdW  Elec       q    Type
REMARK                         _______ _______ _______ _____ _____    ______ ____
ROOT
ATOM      1  C   UNL     1     110.611 126.045 135.280  0.00  0.00    +0.000 C 
ATOM      2  C   UNL     1     111.078 126.210 135.948  0.00  0.00    +0.000 C 
ATOM      3  O   UNL     1     110.230 126.656 134.879  0.00  0.00    +0.000 OA
ATOM      4  C   UNL     1     111.163 126.985 136.215  0.00  0.00    +0.000 C 
ATOM      5  C   UNL     1     110.314 127.432 135.145  0.00  0.00    +0.000 A 
ATOM      6  C   UNL     1     110.780 127.597 135.814  0.00  0.00    +0.000 A 
ATOM      7  C   UNL     1     109.932 128.043 134.745  0.00  0.00    +0.000 A 
ATOM      8  C   UNL     1     110.865 128.372 136.080  0.00  0.00    +0.000 A 
ATOM      9  C   UNL     1     110.017 128.820 135.011  0.00  0.00    +0.000 A 
ATOM     10  C   UNL     1     110.483 128.984 135.680  0.00  0.00    +0.000 A 
ATOM     11  C   UNL     1     110.209 125.679 134.660  0.00  0.00    +0.000 C 
ATOM     12  C   UNL     1     110.898 125.312 135.527  0.00  0.00    +0.000 C 
ENDROOT
BRANCH   2  13
ATOM     13  C   UNL     1     111.458 125.596 136.346  0.00  0.00    +0.000 A 
ATOM     14  C   UNL     1     111.076 125.209 136.966  0.00  0.00    +0.000 A 
ATOM     15  C   UNL     1     112.221 125.367 136.125  0.00  0.00    +0.000 A 
ATOM     16  C   UNL     1     111.456 124.592 137.365  0.00  0.00    +0.000 A 
ATOM     17  C   UNL     1     112.598 124.754 136.523  0.00  0.00    +0.000 A 
ATOM     18  C   UNL     1     112.216 124.367 137.143  0.00  0.00    +0.000 A 
ENDBRANCH   2  13
BRANCH   4  19
ATOM     19  C   UNL     1     111.625 127.149 136.877  0.00  0.00    +0.000 A 
ATOM     20  C   UNL     1     111.281 127.154 137.629  0.00  0.00    +0.000 A 
ATOM     21  C   UNL     1     112.428 127.306 136.790  0.00  0.00    +0.000 A 
ATOM     22  C   UNL     1     111.744 127.318 138.291  0.00  0.00    +0.000 A 
ATOM     23  C   UNL     1     112.891 127.470 137.453  0.00  0.00    +0.000 A 
ATOM     24  C   UNL     1     112.551 127.476 138.203  0.00  0.00    +0.000 A 
BRANCH  24  25
ATOM     25  O   UNL     1     113.015 127.640 138.867  0.00  0.00    +0.000 OA
BRANCH  25  26
ATOM     26  C   UNL     1     113.192 128.420 139.061  0.00  0.00    +0.000 C 
BRANCH  26  27
ATOM     27  C   UNL     1     113.516 128.598 139.799  0.00  0.00    +0.000 C 
BRANCH  27  28
ATOM     28  N   UNL     1     113.883 129.326 139.926  0.00  0.00    +0.000 NA
ATOM     29  C   UNL     1     114.346 129.328 140.609  0.00  0.00    +0.000 C 
ATOM     30  C   UNL     1     113.932 130.064 139.576  0.00  0.00    +0.000 C 
ATOM     31  C   UNL     1     114.681 130.108 140.659  0.00  0.00    +0.000 C 
ATOM     32  C   UNL     1     114.429 130.549 140.033  0.00  0.00    +0.000 C 
ENDBRANCH  27  28
ENDBRANCH  26  27
ENDBRANCH  25  26
ENDBRANCH  24  25
ENDBRANCH   4  19
BRANCH   9  33
ATOM     33  O   UNL     1     109.636 129.433 134.612  0.00  0.00    +0.000 OA
ATOM     34  C   UNL     1     109.926 130.205 134.668  0.00  0.00    +0.000 C 
ENDBRANCH   9  33
TORSDOF 7
ENDMDL
MODEL 8
REMARK VINA RESULT:      -8.9     11.355     12.353
REMARK  Name = ormeloxifene
REMARK  7 active torsions:
REMARK  status: ('A' for Active; 'I' for Inactive)
REMARK    1  A    between atoms: C_2  and  C_5
REMARK    2  A    between atoms: C_4  and  C_8
REMARK    3  A    between atoms: C_17  and  O_22
REMARK    4  A    between atoms: C_23  and  O_25
REMARK    5  A    between atoms: O_25  and  C_26
REMARK    6  A    between atoms: C_26  and  C_27
REMARK    7  A    between atoms: C_27  and  N_28
REMARK                            x       y       z     vdW  Elec       q    Type
REMARK                         _______ _______ _______ _____ _____    ______ ____
ROOT
ATOM      1  C   UNL     1     104.995 125.015 148.317  0.00  0.00    +0.000 C 
ATOM      2  C   UNL     1     105.323 125.155 147.566  0.00  0.00    +0.000 C 
ATOM      3  O   UNL     1     104.243 124.686 148.388  0.00  0.00    +0.000 OA
ATOM      4  C   UNL     1     104.898 124.965 146.885  0.00  0.00    +0.000 C 
ATOM      5  C   UNL     1     103.817 124.496 147.707  0.00  0.00    +0.000 A 
ATOM      6  C   UNL     1     104.145 124.636 146.956  0.00  0.00    +0.000 A 
ATOM      7  C   UNL     1     103.065 124.167 147.777  0.00  0.00    +0.000 A 
ATOM      8  C   UNL     1     103.720 124.446 146.275  0.00  0.00    +0.000 A 
ATOM      9  C   UNL     1     102.639 123.977 147.096  0.00  0.00    +0.000 A 
ATOM     10  C   UNL     1     102.966 124.117 146.345  0.00  0.00    +0.000 A 
ATOM     11  C   UNL     1     104.858 124.959 149.129  0.00  0.00    +0.000 C 
ATOM     12  C   UNL     1     105.738 125.341 148.465  0.00  0.00    +0.000 C 
ENDROOT
BRANCH   2  13
ATOM     13  C   UNL     1     106.076 125.484 147.500  0.00  0.00    +0.000 A 
ATOM     14  C   UNL     1     106.740 124.995 147.488  0.00  0.00    +0.000 A 
ATOM     15  C   UNL     1     106.168 126.304 147.447  0.00  0.00    +0.000 A 
ATOM     16  C   UNL     1     107.495 125.325 147.422  0.00  0.00    +0.000 A 
ATOM     17  C   UNL     1     106.920 126.631 147.381  0.00  0.00    +0.000 A 
ATOM     18  C   UNL     1     107.583 126.142 147.369  0.00  0.00    +0.000 A 
ENDBRANCH   2  13
BRANCH   4  19
ATOM     19  C   UNL     1     105.222 125.104 146.140  0.00  0.00    +0.000 A 
ATOM     20  C   UNL     1     105.671 124.516 145.771  0.00  0.00    +0.000 A 
ATOM     21  C   UNL     1     105.100 125.827 145.766  0.00  0.00    +0.000 A 
ATOM     22  C   UNL     1     105.995 124.655 145.025  0.00  0.00    +0.000 A 
ATOM     23  C   UNL     1     105.425 125.965 145.021  0.00  0.00    +0.000 A 
ATOM     24  C   UNL     1     105.872 125.382 144.649  0.00  0.00    +0.000 A 
BRANCH  24  25
ATOM     25  O   UNL     1     106.197 125.521 143.903  0.00  0.00    +0.000 OA
BRANCH  25  26
ATOM     26  C   UNL     1     105.879 125.148 143.240  0.00  0.00    +0.000 C 
BRANCH  26  27
ATOM     27  C   UNL     1     106.155 125.341 142.487  0.00  0.00    +0.000 C 
BRANCH  27  28
ATOM     28  N   UNL     1     105.863 124.944 141.825  0.00  0.00    +0.000 NA
ATOM     29  C   UNL     1     105.884 125.413 141.146  0.00  0.00    +0.000 C 
ATOM     30  C   UNL     1     105.552 124.214 141.629  0.00  0.00    +0.000 C 
ATOM     31  C   UNL     1     105.568 124.928 140.522  0.00  0.00    +0.000 C 
ATOM     32  C   UNL     1     105.369 124.205 140.818  0.00  0.00    +0.000 C 
ENDBRANCH  27  28
ENDBRANCH  26  27
ENDBRANCH  25  26
ENDBRANCH  24  25
ENDBRANCH   4  19
BRANCH   9  33
ATOM     33  O   UNL     1     101.885 123.647 147.164  0.00  0.00    +0.000 OA
ATOM     34  C   UNL     1     101.254 123.969 146.738  0.00  0.00    +0.000 C 
ENDBRANCH   9  33
TORSDOF 7
ENDMDL
MODEL 9
REMARK VINA RESULT:      -8.9      2.805      4.667
REMARK  Name = ormeloxifene
REMARK  7 active torsions:
REMARK  status: ('A' for Active; 'I' for Inactive)
REMARK    1  A    between atoms: C_2  and  C_5
REMARK    2  A    between atoms: C_4  and  C_8
REMARK    3  A    between atoms: C_17  and  O_22
REMARK    4  A    between atoms: C_23  and  O_25
REMARK    5  A    between atoms: O_25  and  C_26
REMARK    6  A    between atoms: C_26  and  C_27
REMARK    7  A    between atoms: C_27  and  N_28
REMARK                            x       y       z     vdW  Elec       q    Type
REMARK                         _______ _______ _______ _____ _____    ______ ____
ROOT
ATOM      1  C   UNL     1     113.431 126.839 136.377  0.00  0.00    +0.000 C 
ATOM      2  C   UNL     1     112.653 127.132 136.341  0.00  0.00    +0.000 C 
ATOM      3  O   UNL     1     114.065 127.315 136.149  0.00  0.00    +0.000 OA
ATOM      4  C   UNL     1     112.510 127.900 136.077  0.00  0.00    +0.000 C 
ATOM      5  C   UNL     1     113.922 128.083 135.886  0.00  0.00    +0.000 A 
ATOM      6  C   UNL     1     113.145 128.376 135.850  0.00  0.00    +0.000 A 
ATOM      7  C   UNL     1     114.555 128.559 135.658  0.00  0.00    +0.000 A 
ATOM      8  C   UNL     1     113.001 129.144 135.587  0.00  0.00    +0.000 A 
ATOM      9  C   UNL     1     114.413 129.328 135.395  0.00  0.00    +0.000 A 
ATOM     10  C   UNL     1     113.635 129.620 135.359  0.00  0.00    +0.000 A 
ATOM     11  C   UNL     1     114.102 126.372 136.485  0.00  0.00    +0.000 C 
ATOM     12  C   UNL     1     112.956 126.219 136.642  0.00  0.00    +0.000 C 
ENDROOT
BRANCH   2  13
ATOM     13  C   UNL     1     112.023 126.653 136.569  0.00  0.00    +0.000 A 
ATOM     14  C   UNL     1     111.650 126.169 136.014  0.00  0.00    +0.000 A 
ATOM     15  C   UNL     1     111.762 126.655 137.353  0.00  0.00    +0.000 A 
ATOM     16  C   UNL     1     111.018 125.688 136.242  0.00  0.00    +0.000 A 
ATOM     17  C   UNL     1     111.132 126.176 137.580  0.00  0.00    +0.000 A 
ATOM     18  C   UNL     1     110.760 125.693 137.024  0.00  0.00    +0.000 A 
ENDBRANCH   2  13
BRANCH   4  19
ATOM     19  C   UNL     1     111.739 128.190 136.042  0.00  0.00    +0.000 A 
ATOM     20  C   UNL     1     111.295 128.096 135.351  0.00  0.00    +0.000 A 
ATOM     21  C   UNL     1     111.413 128.573 136.694  0.00  0.00    +0.000 A 
ATOM     22  C   UNL     1     110.524 128.387 135.316  0.00  0.00    +0.000 A 
ATOM     23  C   UNL     1     110.642 128.863 136.657  0.00  0.00    +0.000 A 
ATOM     24  C   UNL     1     110.197 128.771 135.971  0.00  0.00    +0.000 A 
BRANCH  24  25
ATOM     25  O   UNL     1     109.425 129.062 135.936  0.00  0.00    +0.000 OA
BRANCH  25  26
ATOM     26  C   UNL     1     109.287 129.829 135.669  0.00  0.00    +0.000 C 
BRANCH  26  27
ATOM     27  C   UNL     1     108.542 130.172 135.767  0.00  0.00    +0.000 C 
BRANCH  27  28
ATOM     28  N   UNL     1     108.378 130.908 135.433  0.00  0.00    +0.000 NA
ATOM     29  C   UNL     1     107.773 131.304 135.830  0.00  0.00    +0.000 C 
ATOM     30  C   UNL     1     108.636 131.379 134.816  0.00  0.00    +0.000 C 
ATOM     31  C   UNL     1     107.673 132.043 135.423  0.00  0.00    +0.000 C 
ATOM     32  C   UNL     1     108.197 132.085 134.811  0.00  0.00    +0.000 C 
ENDBRANCH  27  28
ENDBRANCH  26  27
ENDBRANCH  25  26
ENDBRANCH  24  25
ENDBRANCH   4  19
BRANCH   9  33
ATOM     33  O   UNL     1     115.045 129.806 135.167  0.00  0.00    +0.000 OA
ATOM     34  C   UNL     1     115.132 130.561 135.494  0.00  0.00    +0.000 C 
ENDBRANCH   9  33
TORSDOF 7
ENDMDL
MODEL 10
REMARK VINA RESULT:      -8.7      2.923      4.969
REMARK  Name = ormeloxifene
REMARK  7 active torsions:
REMARK  status: ('A' for Active; 'I' for Inactive)
REMARK    1  A    between atoms: C_2  and  C_5
REMARK    2  A    between atoms: C_4  and  C_8
REMARK    3  A    between atoms: C_17  and  O_22
REMARK    4  A    between atoms: C_23  and  O_25
REMARK    5  A    between atoms: O_25  and  C_26
REMARK    6  A    between atoms: C_26  and  C_27
REMARK    7  A    between atoms: C_27  and  N_28
REMARK                            x       y       z     vdW  Elec       q    Type
REMARK                         _______ _______ _______ _____ _____    ______ ____
ROOT
ATOM      1  C   UNL     1     111.276 131.581 136.861  0.00  0.00    +0.000 C 
ATOM      2  C   UNL     1     111.515 130.788 136.789  0.00  0.00    +0.000 C 
ATOM      3  O   UNL     1     110.558 131.830 136.542  0.00  0.00    +0.000 OA
ATOM      4  C   UNL     1     111.036 130.244 136.396  0.00  0.00    +0.000 C 
ATOM      5  C   UNL     1     110.078 131.286 136.148  0.00  0.00    +0.000 A 
ATOM      6  C   UNL     1     110.318 130.493 136.075  0.00  0.00    +0.000 A 
ATOM      7  C   UNL     1     109.361 131.533 135.828  0.00  0.00    +0.000 A 
ATOM      8  C   UNL     1     109.839 129.949 135.682  0.00  0.00    +0.000 A 
ATOM      9  C   UNL     1     108.881 130.989 135.435  0.00  0.00    +0.000 A 
ATOM     10  C   UNL     1     109.120 130.196 135.362  0.00  0.00    +0.000 A 
ATOM     11  C   UNL     1     111.226 132.385 137.039  0.00  0.00    +0.000 C 
ATOM     12  C   UNL     1     112.007 131.542 137.242  0.00  0.00    +0.000 C 
ENDROOT
BRANCH   2  13
ATOM     13  C   UNL     1     112.234 130.544 137.110  0.00  0.00    +0.000 A 
ATOM     14  C   UNL     1     112.266 130.273 137.888  0.00  0.00    +0.000 A 
ATOM     15  C   UNL     1     112.923 130.571 136.655  0.00  0.00    +0.000 A 
ATOM     16  C   UNL     1     112.987 130.028 138.212  0.00  0.00    +0.000 A 
ATOM     17  C   UNL     1     113.640 130.327 136.978  0.00  0.00    +0.000 A 
ATOM     18  C   UNL     1     113.672 130.056 137.756  0.00  0.00    +0.000 A 
ENDBRANCH   2  13
BRANCH   4  19
ATOM     19  C   UNL     1     111.274 129.458 136.323  0.00  0.00    +0.000 A 
ATOM     20  C   UNL     1     111.735 129.225 135.678  0.00  0.00    +0.000 A 
ATOM     21  C   UNL     1     111.051 128.907 136.893  0.00  0.00    +0.000 A 
ATOM     22  C   UNL     1     111.972 128.438 135.607  0.00  0.00    +0.000 A 
ATOM     23  C   UNL     1     111.288 128.120 136.820  0.00  0.00    +0.000 A 
ATOM     24  C   UNL     1     111.748 127.884 136.179  0.00  0.00    +0.000 A 
BRANCH  24  25
ATOM     25  O   UNL     1     111.985 127.097 136.106  0.00  0.00    +0.000 OA
BRANCH  25  26
ATOM     26  C   UNL     1     112.618 126.816 136.553  0.00  0.00    +0.000 C 
BRANCH  26  27
ATOM     27  C   UNL     1     112.851 126.027 136.487  0.00  0.00    +0.000 C 
BRANCH  27  28
ATOM     28  N   UNL     1     113.497 125.748 136.919  0.00  0.00    +0.000 NA
ATOM     29  C   UNL     1     113.949 125.207 136.491  0.00  0.00    +0.000 C 
ATOM     30  C   UNL     1     113.835 125.844 137.657  0.00  0.00    +0.000 C 
ATOM     31  C   UNL     1     114.584 124.977 137.007  0.00  0.00    +0.000 C 
ATOM     32  C   UNL     1     114.511 125.364 137.711  0.00  0.00    +0.000 C 
ENDBRANCH  27  28
ENDBRANCH  26  27
ENDBRANCH  25  26
ENDBRANCH  24  25
ENDBRANCH   4  19
BRANCH   9  33
ATOM     33  O   UNL     1     108.162 131.235 135.114  0.00  0.00    +0.000 OA
ATOM     34  C   UNL     1     107.565 131.524 135.609  0.00  0.00    +0.000 C 
ENDBRANCH   9  33
TORSDOF 7
ENDMDL
