MODEL 1
REMARK VINA RESULT:     -10.5      0.000      0.000
REMARK  Name = 44257986
REMARK  9 active torsions:
REMARK  status: ('A' for Active; 'I' for Inactive)
REMARK    1  A    between atoms: O_2  and  C_19
REMARK    2  A    between atoms: O_2  and  C_37
REMARK    3  A    between atoms: O_7  and  C_30
REMARK    4  A    between atoms: O_7  and  C_39
REMARK    5  A    between atoms: C_21  and  C_24
REMARK    6  A    between atoms: C_23  and  C_25
REMARK    7  A    between atoms: C_29  and  C_33
REMARK    8  A    between atoms: C_37  and  C_41
REMARK    9  A    between atoms: C_40  and  C_43
REMARK                            x       y       z     vdW  Elec       q    Type
REMARK                         _______ _______ _______ _____ _____    ______ ____
ROOT
ATOM      1  O   UNL     1     106.269 127.054 146.848  0.00  0.00    +0.000 OA
ATOM      2  O   UNL     1     106.359 124.569 145.439  0.00  0.00    +0.000 OA
ATOM      3  O   UNL     1     105.568 126.960 144.042  0.00  0.00    +0.000 OA
ATOM      4  O   UNL     1     105.878 128.273 146.184  0.00  0.00    +0.000 OA
ATOM      5  C   UNL     1     106.314 125.811 146.144  0.00  0.00    +0.000 A 
ATOM      6  C   UNL     1     106.169 126.623 146.151  0.00  0.00    +0.000 A 
ATOM      7  C   UNL     1     106.213 125.381 145.446  0.00  0.00    +0.000 A 
ATOM      8  C   UNL     1     105.923 127.005 145.462  0.00  0.00    +0.000 A 
ATOM      9  C   UNL     1     105.968 125.763 144.757  0.00  0.00    +0.000 A 
ATOM     10  C   UNL     1     105.823 126.574 144.766  0.00  0.00    +0.000 A 
ATOM     11  C   UNL     1     105.775 127.851 145.483  0.00  0.00    +0.000 A 
ATOM     12  C   UNL     1     105.415 127.806 144.043  0.00  0.00    +0.000 A 
ATOM     13  C   UNL     1     105.520 128.254 144.769  0.00  0.00    +0.000 A 
ENDROOT
BRANCH   5  19
ATOM     14  O   UNL     1     107.353 125.448 147.054  0.00  0.00    +0.000 OA
ATOM     15  O   UNL     1     105.705 124.248 148.457  0.00  0.00    +0.000 OA
ATOM     16  O   UNL     1     107.295 124.284 148.900  0.00  0.00    +0.000 OA
ATOM     17  C   UNL     1     106.010 125.030 147.300  0.00  0.00    +0.000 C 
ATOM     18  C   UNL     1     106.254 124.648 147.989  0.00  0.00    +0.000 C 
ATOM     19  C   UNL     1     106.559 125.429 146.833  0.00  0.00    +0.000 C 
ATOM     20  C   UNL     1     107.049 124.666 148.211  0.00  0.00    +0.000 C 
ATOM     21  C   UNL     1     107.598 125.066 147.743  0.00  0.00    +0.000 C 
BRANCH  21  23
ATOM     22  O   UNL     1     108.981 125.117 147.386  0.00  0.00    +0.000 OA
ATOM     23  C   UNL     1     108.393 125.085 147.964  0.00  0.00    +0.000 C 
ENDBRANCH  21  23
BRANCH  17  24
ATOM     24  O   UNL     1     105.215 125.011 147.079  0.00  0.00    +0.000 OA
BRANCH  24  26
ATOM     25  O   UNL     1     104.818 125.254 148.431  0.00  0.00    +0.000 OA
ATOM     26  C   UNL     1     104.626 125.049 147.655  0.00  0.00    +0.000 C 
BRANCH  26  28
ATOM     27  O   UNL     1     101.495 124.375 146.858  0.00  0.00    +0.000 OA
ATOM     28  C   UNL     1     103.843 124.881 147.456  0.00  0.00    +0.000 A 
ATOM     29  C   UNL     1     103.251 125.434 147.609  0.00  0.00    +0.000 A 
ATOM     30  C   UNL     1     103.653 124.159 147.104  0.00  0.00    +0.000 A 
ATOM     31  C   UNL     1     102.468 125.265 147.409  0.00  0.00    +0.000 A 
ATOM     32  C   UNL     1     102.870 123.991 146.905  0.00  0.00    +0.000 A 
ATOM     33  C   UNL     1     102.277 124.544 147.057  0.00  0.00    +0.000 A 
ENDBRANCH  26  28
ENDBRANCH  24  26
ENDBRANCH  17  24
ENDBRANCH   5  19
BRANCH  12  36
ATOM     34  O   UNL     1     105.829 128.443 141.288  0.00  0.00    +0.000 OA
ATOM     35  C   UNL     1     104.679 128.943 141.972  0.00  0.00    +0.000 A 
ATOM     36  C   UNL     1     105.170 128.185 143.353  0.00  0.00    +0.000 A 
ATOM     37  C   UNL     1     105.376 128.504 141.975  0.00  0.00    +0.000 A 
ATOM     38  C   UNL     1     104.226 129.005 142.659  0.00  0.00    +0.000 A 
ATOM     39  C   UNL     1     105.622 128.125 142.667  0.00  0.00    +0.000 A 
ATOM     40  C   UNL     1     104.471 128.625 143.350  0.00  0.00    +0.000 A 
BRANCH  35  41
ATOM     41  O   UNL     1     104.433 129.322 141.281  0.00  0.00    +0.000 OA
BRANCH  41  50
ATOM     42  O   UNL     1     104.739 130.680 141.608  0.00  0.00    +0.000 OA
ATOM     43  O   UNL     1     102.526 131.384 140.752  0.00  0.00    +0.000 OA
ATOM     44  O   UNL     1     103.569 132.506 141.363  0.00  0.00    +0.000 OA
ATOM     45  O   UNL     1     102.958 129.792 140.711  0.00  0.00    +0.000 OA
ATOM     46  C   UNL     1     103.264 131.149 141.037  0.00  0.00    +0.000 C 
ATOM     47  C   UNL     1     103.786 131.710 141.343  0.00  0.00    +0.000 C 
ATOM     48  C   UNL     1     103.480 130.353 141.017  0.00  0.00    +0.000 C 
ATOM     49  C   UNL     1     104.523 131.475 141.628  0.00  0.00    +0.000 C 
ATOM     50  C   UNL     1     104.217 130.118 141.302  0.00  0.00    +0.000 C 
BRANCH  49  52
ATOM     51  O   UNL     1     105.845 132.008 141.731  0.00  0.00    +0.000 OA
ATOM     52  C   UNL     1     105.045 132.036 141.933  0.00  0.00    +0.000 C 
ENDBRANCH  49  52
ENDBRANCH  41  50
ENDBRANCH  35  41
ENDBRANCH  12  36
TORSDOF 9
ENDMDL
MODEL 2
REMARK VINA RESULT:     -10.5      7.654     10.817
REMARK  Name = 44257986
REMARK  9 active torsions:
REMARK  status: ('A' for Active; 'I' for Inactive)
REMARK    1  A    between atoms: O_2  and  C_19
REMARK    2  A    between atoms: O_2  and  C_37
REMARK    3  A    between atoms: O_7  and  C_30
REMARK    4  A    between atoms: O_7  and  C_39
REMARK    5  A    between atoms: C_21  and  C_24
REMARK    6  A    between atoms: C_23  and  C_25
REMARK    7  A    between atoms: C_29  and  C_33
REMARK    8  A    between atoms: C_37  and  C_41
REMARK    9  A    between atoms: C_40  and  C_43
REMARK                            x       y       z     vdW  Elec       q    Type
REMARK                         _______ _______ _______ _____ _____    ______ ____
ROOT
ATOM      1  O   UNL     1     111.061 128.266 136.650  0.00  0.00    +0.000 OA
ATOM      2  O   UNL     1     110.134 126.111 138.282  0.00  0.00    +0.000 OA
ATOM      3  O   UNL     1     111.416 128.374 139.520  0.00  0.00    +0.000 OA
ATOM      4  O   UNL     1     111.708 129.417 137.232  0.00  0.00    +0.000 OA
ATOM      5  C   UNL     1     110.598 127.188 137.466  0.00  0.00    +0.000 A 
ATOM      6  C   UNL     1     110.965 127.924 137.394  0.00  0.00    +0.000 A 
ATOM      7  C   UNL     1     110.501 126.846 138.211  0.00  0.00    +0.000 A 
ATOM      8  C   UNL     1     111.235 128.317 138.067  0.00  0.00    +0.000 A 
ATOM      9  C   UNL     1     110.772 127.239 138.884  0.00  0.00    +0.000 A 
ATOM     10  C   UNL     1     111.139 127.974 138.812  0.00  0.00    +0.000 A 
ATOM     11  C   UNL     1     111.616 129.082 137.980  0.00  0.00    +0.000 A 
ATOM     12  C   UNL     1     111.799 129.140 139.452  0.00  0.00    +0.000 A 
ATOM     13  C   UNL     1     111.900 129.496 138.677  0.00  0.00    +0.000 A 
ENDROOT
BRANCH   5  19
ATOM     14  O   UNL     1     109.596 126.992 136.466  0.00  0.00    +0.000 OA
ATOM     15  O   UNL     1     110.980 125.223 135.427  0.00  0.00    +0.000 OA
ATOM     16  O   UNL     1     109.516 125.616 134.773  0.00  0.00    +0.000 OA
ATOM     17  C   UNL     1     110.789 126.206 136.446  0.00  0.00    +0.000 C 
ATOM     18  C   UNL     1     110.519 125.813 135.773  0.00  0.00    +0.000 C 
ATOM     19  C   UNL     1     110.327 126.795 136.793  0.00  0.00    +0.000 C 
ATOM     20  C   UNL     1     109.787 126.009 135.446  0.00  0.00    +0.000 C 
ATOM     21  C   UNL     1     109.326 126.599 135.793  0.00  0.00    +0.000 C 
BRANCH  21  23
ATOM     22  O   UNL     1     108.036 127.200 135.920  0.00  0.00    +0.000 OA
ATOM     23  C   UNL     1     108.594 126.795 135.467  0.00  0.00    +0.000 C 
ENDBRANCH  21  23
BRANCH  17  24
ATOM     24  O   UNL     1     111.520 126.010 136.773  0.00  0.00    +0.000 OA
BRANCH  24  26
ATOM     25  O   UNL     1     112.117 126.021 135.473  0.00  0.00    +0.000 OA
ATOM     26  C   UNL     1     112.163 125.853 136.280  0.00  0.00    +0.000 C 
BRANCH  26  28
ATOM     27  O   UNL     1     114.925 124.551 137.532  0.00  0.00    +0.000 OA
ATOM     28  C   UNL     1     112.854 125.527 136.593  0.00  0.00    +0.000 A 
ATOM     29  C   UNL     1     112.847 124.760 136.896  0.00  0.00    +0.000 A 
ATOM     30  C   UNL     1     113.550 125.969 136.603  0.00  0.00    +0.000 A 
ATOM     31  C   UNL     1     113.538 124.435 137.209  0.00  0.00    +0.000 A 
ATOM     32  C   UNL     1     114.240 125.644 136.916  0.00  0.00    +0.000 A 
ATOM     33  C   UNL     1     114.235 124.877 137.219  0.00  0.00    +0.000 A 
ENDBRANCH  26  28
ENDBRANCH  24  26
ENDBRANCH  17  24
ENDBRANCH   5  19
BRANCH  12  36
ATOM     34  O   UNL     1     113.852 129.615 141.384  0.00  0.00    +0.000 OA
ATOM     35  C   UNL     1     112.608 130.313 141.477  0.00  0.00    +0.000 A 
ATOM     36  C   UNL     1     112.069 129.531 140.127  0.00  0.00    +0.000 A 
ATOM     37  C   UNL     1     113.095 129.769 141.093  0.00  0.00    +0.000 A 
ATOM     38  C   UNL     1     111.851 130.467 141.186  0.00  0.00    +0.000 A 
ATOM     39  C   UNL     1     112.825 129.378 140.418  0.00  0.00    +0.000 A 
ATOM     40  C   UNL     1     111.581 130.075 140.510  0.00  0.00    +0.000 A 
BRANCH  35  41
ATOM     41  O   UNL     1     112.878 130.703 142.151  0.00  0.00    +0.000 OA
BRANCH  41  50
ATOM     42  O   UNL     1     112.082 130.050 143.142  0.00  0.00    +0.000 OA
ATOM     43  O   UNL     1     111.615 132.234 144.208  0.00  0.00    +0.000 OA
ATOM     44  O   UNL     1     110.975 130.853 144.843  0.00  0.00    +0.000 OA
ATOM     45  O   UNL     1     112.566 132.160 142.862  0.00  0.00    +0.000 OA
ATOM     46  C   UNL     1     111.770 131.506 143.853  0.00  0.00    +0.000 C 
ATOM     47  C   UNL     1     111.451 130.815 144.170  0.00  0.00    +0.000 C 
ATOM     48  C   UNL     1     112.247 131.468 143.179  0.00  0.00    +0.000 C 
ATOM     49  C   UNL     1     111.606 130.088 143.815  0.00  0.00    +0.000 C 
ATOM     50  C   UNL     1     112.402 130.741 142.824  0.00  0.00    +0.000 C 
BRANCH  49  52
ATOM     51  O   UNL     1     111.752 128.718 144.194  0.00  0.00    +0.000 OA
ATOM     52  C   UNL     1     111.286 129.397 144.132  0.00  0.00    +0.000 C 
ENDBRANCH  49  52
ENDBRANCH  41  50
ENDBRANCH  35  41
ENDBRANCH  12  36
TORSDOF 9
ENDMDL
MODEL 3
REMARK VINA RESULT:     -10.4      7.680     10.311
REMARK  Name = 44257986
REMARK  9 active torsions:
REMARK  status: ('A' for Active; 'I' for Inactive)
REMARK    1  A    between atoms: O_2  and  C_19
REMARK    2  A    between atoms: O_2  and  C_37
REMARK    3  A    between atoms: O_7  and  C_30
REMARK    4  A    between atoms: O_7  and  C_39
REMARK    5  A    between atoms: C_21  and  C_24
REMARK    6  A    between atoms: C_23  and  C_25
REMARK    7  A    between atoms: C_29  and  C_33
REMARK    8  A    between atoms: C_37  and  C_41
REMARK    9  A    between atoms: C_40  and  C_43
REMARK                            x       y       z     vdW  Elec       q    Type
REMARK                         _______ _______ _______ _____ _____    ______ ____
ROOT
ATOM      1  O   UNL     1     112.394 125.866 139.164  0.00  0.00    +0.000 OA
ATOM      2  O   UNL     1     113.281 127.518 137.008  0.00  0.00    +0.000 OA
ATOM      3  O   UNL     1     112.423 128.743 139.469  0.00  0.00    +0.000 OA
ATOM      4  O   UNL     1     111.956 126.441 140.413  0.00  0.00    +0.000 OA
ATOM      5  C   UNL     1     112.837 126.691 138.086  0.00  0.00    +0.000 A 
ATOM      6  C   UNL     1     112.547 126.615 138.854  0.00  0.00    +0.000 A 
ATOM      7  C   UNL     1     112.990 127.441 137.776  0.00  0.00    +0.000 A 
ATOM      8  C   UNL     1     112.409 127.287 139.312  0.00  0.00    +0.000 A 
ATOM      9  C   UNL     1     112.853 128.113 138.234  0.00  0.00    +0.000 A 
ATOM     10  C   UNL     1     112.562 128.036 139.002  0.00  0.00    +0.000 A 
ATOM     11  C   UNL     1     112.107 127.193 140.111  0.00  0.00    +0.000 A 
ATOM     12  C   UNL     1     112.120 128.670 140.271  0.00  0.00    +0.000 A 
ATOM     13  C   UNL     1     111.961 127.889 140.593  0.00  0.00    +0.000 A 
ENDROOT
BRANCH   5  19
ATOM     14  O   UNL     1     113.675 125.595 137.718  0.00  0.00    +0.000 OA
ATOM     15  O   UNL     1     111.984 124.853 136.071  0.00  0.00    +0.000 OA
ATOM     16  O   UNL     1     113.387 124.003 136.253  0.00  0.00    +0.000 OA
ATOM     17  C   UNL     1     112.411 125.773 137.079  0.00  0.00    +0.000 C 
ATOM     18  C   UNL     1     112.548 125.101 136.620  0.00  0.00    +0.000 C 
ATOM     19  C   UNL     1     112.975 126.019 137.628  0.00  0.00    +0.000 C 
ATOM     20  C   UNL     1     113.249 124.675 136.711  0.00  0.00    +0.000 C 
ATOM     21  C   UNL     1     113.813 124.923 137.260  0.00  0.00    +0.000 C 
BRANCH  21  23
ATOM     22  O   UNL     1     115.194 124.878 137.624  0.00  0.00    +0.000 OA
ATOM     23  C   UNL     1     114.514 124.498 137.351  0.00  0.00    +0.000 C 
ENDBRANCH  21  23
BRANCH  17  24
ATOM     24  O   UNL     1     111.709 126.197 136.988  0.00  0.00    +0.000 OA
BRANCH  24  26
ATOM     25  O   UNL     1     110.964 124.979 136.933  0.00  0.00    +0.000 OA
ATOM     26  C   UNL     1     111.001 125.799 136.847  0.00  0.00    +0.000 C 
BRANCH  26  28
ATOM     27  O   UNL     1     108.312 127.482 135.939  0.00  0.00    +0.000 OA
ATOM     28  C   UNL     1     110.329 126.219 136.620  0.00  0.00    +0.000 A 
ATOM     29  C   UNL     1     110.256 126.494 135.845  0.00  0.00    +0.000 A 
ATOM     30  C   UNL     1     109.729 126.366 137.167  0.00  0.00    +0.000 A 
ATOM     31  C   UNL     1     109.583 126.915 135.619  0.00  0.00    +0.000 A 
ATOM     32  C   UNL     1     109.057 126.787 136.940  0.00  0.00    +0.000 A 
ATOM     33  C   UNL     1     108.984 127.061 136.166  0.00  0.00    +0.000 A 
ENDBRANCH  26  28
ENDBRANCH  24  26
ENDBRANCH  17  24
ENDBRANCH   5  19
BRANCH  12  36
ATOM     34  O   UNL     1     110.449 130.872 140.993  0.00  0.00    +0.000 OA
ATOM     35  C   UNL     1     111.711 130.691 141.639  0.00  0.00    +0.000 A 
ATOM     36  C   UNL     1     111.984 129.344 140.727  0.00  0.00    +0.000 A 
ATOM     37  C   UNL     1     111.148 130.445 141.088  0.00  0.00    +0.000 A 
ATOM     38  C   UNL     1     112.410 130.264 141.734  0.00  0.00    +0.000 A 
ATOM     39  C   UNL     1     111.285 129.771 140.632  0.00  0.00    +0.000 A 
ATOM     40  C   UNL     1     112.547 129.590 141.277  0.00  0.00    +0.000 A 
BRANCH  35  41
ATOM     41  O   UNL     1     111.574 131.365 142.094  0.00  0.00    +0.000 OA
BRANCH  41  50
ATOM     42  O   UNL     1     111.273 130.721 143.334  0.00  0.00    +0.000 OA
ATOM     43  O   UNL     1     112.589 132.434 144.543  0.00  0.00    +0.000 OA
ATOM     44  O   UNL     1     111.850 131.220 145.379  0.00  0.00    +0.000 OA
ATOM     45  O   UNL     1     112.451 132.507 142.900  0.00  0.00    +0.000 OA
ATOM     46  C   UNL     1     112.150 131.863 144.140  0.00  0.00    +0.000 C 
ATOM     47  C   UNL     1     111.781 131.256 144.558  0.00  0.00    +0.000 C 
ATOM     48  C   UNL     1     112.081 131.900 143.318  0.00  0.00    +0.000 C 
ATOM     49  C   UNL     1     111.343 130.685 144.155  0.00  0.00    +0.000 C 
ATOM     50  C   UNL     1     111.643 131.329 142.916  0.00  0.00    +0.000 C 
BRANCH  49  52
ATOM     51  O   UNL     1     110.192 129.874 144.398  0.00  0.00    +0.000 OA
ATOM     52  C   UNL     1     110.973 130.078 144.573  0.00  0.00    +0.000 C 
ENDBRANCH  49  52
ENDBRANCH  41  50
ENDBRANCH  35  41
ENDBRANCH  12  36
TORSDOF 9
ENDMDL
MODEL 4
REMARK VINA RESULT:     -10.3      7.122     10.258
REMARK  Name = 44257986
REMARK  9 active torsions:
REMARK  status: ('A' for Active; 'I' for Inactive)
REMARK    1  A    between atoms: O_2  and  C_19
REMARK    2  A    between atoms: O_2  and  C_37
REMARK    3  A    between atoms: O_7  and  C_30
REMARK    4  A    between atoms: O_7  and  C_39
REMARK    5  A    between atoms: C_21  and  C_24
REMARK    6  A    between atoms: C_23  and  C_25
REMARK    7  A    between atoms: C_29  and  C_33
REMARK    8  A    between atoms: C_37  and  C_41
REMARK    9  A    between atoms: C_40  and  C_43
REMARK                            x       y       z     vdW  Elec       q    Type
REMARK                         _______ _______ _______ _____ _____    ______ ____
ROOT
ATOM      1  O   UNL     1     112.890 126.532 139.040  0.00  0.00    +0.000 OA
ATOM      2  O   UNL     1     111.531 125.449 136.770  0.00  0.00    +0.000 OA
ATOM      3  O   UNL     1     110.066 125.924 139.204  0.00  0.00    +0.000 OA
ATOM      4  O   UNL     1     112.192 126.784 140.276  0.00  0.00    +0.000 OA
ATOM      5  C   UNL     1     112.211 125.991 137.905  0.00  0.00    +0.000 A 
ATOM      6  C   UNL     1     112.199 126.251 138.688  0.00  0.00    +0.000 A 
ATOM      7  C   UNL     1     111.519 125.710 137.553  0.00  0.00    +0.000 A 
ATOM      8  C   UNL     1     111.496 126.231 139.118  0.00  0.00    +0.000 A 
ATOM      9  C   UNL     1     110.816 125.690 137.984  0.00  0.00    +0.000 A 
ATOM     10  C   UNL     1     110.804 125.950 138.766  0.00  0.00    +0.000 A 
ATOM     11  C   UNL     1     111.496 126.505 139.932  0.00  0.00    +0.000 A 
ATOM     12  C   UNL     1     110.047 126.194 140.020  0.00  0.00    +0.000 A 
ATOM     13  C   UNL     1     110.767 126.486 140.386  0.00  0.00    +0.000 A 
ENDROOT
BRANCH   5  19
ATOM     14  O   UNL     1     113.465 125.403 137.555  0.00  0.00    +0.000 OA
ATOM     15  O   UNL     1     113.921 127.290 136.019  0.00  0.00    +0.000 OA
ATOM     16  O   UNL     1     115.024 126.073 136.182  0.00  0.00    +0.000 OA
ATOM     17  C   UNL     1     113.066 126.640 136.962  0.00  0.00    +0.000 C 
ATOM     18  C   UNL     1     113.769 126.661 136.531  0.00  0.00    +0.000 C 
ATOM     19  C   UNL     1     112.914 126.011 137.474  0.00  0.00    +0.000 C 
ATOM     20  C   UNL     1     114.321 126.052 136.612  0.00  0.00    +0.000 C 
ATOM     21  C   UNL     1     114.169 125.424 137.124  0.00  0.00    +0.000 C 
BRANCH  21  23
ATOM     22  O   UNL     1     114.475 124.068 137.455  0.00  0.00    +0.000 OA
ATOM     23  C   UNL     1     114.720 124.815 137.206  0.00  0.00    +0.000 C 
ENDBRANCH  21  23
BRANCH  17  24
ATOM     24  O   UNL     1     112.515 127.248 136.881  0.00  0.00    +0.000 OA
BRANCH  24  26
ATOM     25  O   UNL     1     113.562 128.220 136.919  0.00  0.00    +0.000 OA
ATOM     26  C   UNL     1     112.770 128.027 136.791  0.00  0.00    +0.000 C 
BRANCH  26  28
ATOM     27  O   UNL     1     110.625 130.378 135.917  0.00  0.00    +0.000 OA
ATOM     28  C   UNL     1     112.234 128.615 136.573  0.00  0.00    +0.000 A 
ATOM     29  C   UNL     1     112.041 129.216 137.104  0.00  0.00    +0.000 A 
ATOM     30  C   UNL     1     111.891 128.602 135.823  0.00  0.00    +0.000 A 
ATOM     31  C   UNL     1     111.505 129.803 136.885  0.00  0.00    +0.000 A 
ATOM     32  C   UNL     1     111.354 129.190 135.604  0.00  0.00    +0.000 A 
ATOM     33  C   UNL     1     111.161 129.790 136.135  0.00  0.00    +0.000 A 
ENDBRANCH  26  28
ENDBRANCH  24  26
ENDBRANCH  17  24
ENDBRANCH   5  19
BRANCH  12  36
ATOM     34  O   UNL     1     107.777 127.538 141.120  0.00  0.00    +0.000 OA
ATOM     35  C   UNL     1     107.932 126.130 141.305  0.00  0.00    +0.000 A 
ATOM     36  C   UNL     1     109.342 126.173 140.449  0.00  0.00    +0.000 A 
ATOM     37  C   UNL     1     108.207 126.844 140.999  0.00  0.00    +0.000 A 
ATOM     38  C   UNL     1     108.362 125.436 141.184  0.00  0.00    +0.000 A 
ATOM     39  C   UNL     1     108.912 126.866 140.570  0.00  0.00    +0.000 A 
ATOM     40  C   UNL     1     109.068 125.457 140.755  0.00  0.00    +0.000 A 
BRANCH  35  41
ATOM     41  O   UNL     1     107.228 126.108 141.734  0.00  0.00    +0.000 OA
BRANCH  41  50
ATOM     42  O   UNL     1     106.437 125.409 140.771  0.00  0.00    +0.000 OA
ATOM     43  O   UNL     1     105.365 124.117 142.590  0.00  0.00    +0.000 OA
ATOM     44  O   UNL     1     104.931 123.849 141.021  0.00  0.00    +0.000 OA
ATOM     45  O   UNL     1     106.513 125.247 142.946  0.00  0.00    +0.000 OA
ATOM     46  C   UNL     1     105.722 124.548 141.984  0.00  0.00    +0.000 C 
ATOM     47  C   UNL     1     105.506 124.414 141.199  0.00  0.00    +0.000 C 
ATOM     48  C   UNL     1     106.297 125.113 142.162  0.00  0.00    +0.000 C 
ATOM     49  C   UNL     1     105.862 124.844 140.593  0.00  0.00    +0.000 C 
ATOM     50  C   UNL     1     106.653 125.543 141.556  0.00  0.00    +0.000 C 
BRANCH  49  52
ATOM     51  O   UNL     1     105.458 125.347 139.319  0.00  0.00    +0.000 OA
ATOM     52  C   UNL     1     105.646 124.710 139.809  0.00  0.00    +0.000 C 
ENDBRANCH  49  52
ENDBRANCH  41  50
ENDBRANCH  35  41
ENDBRANCH  12  36
TORSDOF 9
ENDMDL
MODEL 5
REMARK VINA RESULT:     -10.2      6.775     10.017
REMARK  Name = 44257986
REMARK  9 active torsions:
REMARK  status: ('A' for Active; 'I' for Inactive)
REMARK    1  A    between atoms: O_2  and  C_19
REMARK    2  A    between atoms: O_2  and  C_37
REMARK    3  A    between atoms: O_7  and  C_30
REMARK    4  A    between atoms: O_7  and  C_39
REMARK    5  A    between atoms: C_21  and  C_24
REMARK    6  A    between atoms: C_23  and  C_25
REMARK    7  A    between atoms: C_29  and  C_33
REMARK    8  A    between atoms: C_37  and  C_41
REMARK    9  A    between atoms: C_40  and  C_43
REMARK                            x       y       z     vdW  Elec       q    Type
REMARK                         _______ _______ _______ _____ _____    ______ ____
ROOT
ATOM      1  O   UNL     1     110.961 128.615 137.521  0.00  0.00    +0.000 OA
ATOM      2  O   UNL     1     113.235 128.033 139.150  0.00  0.00    +0.000 OA
ATOM      3  O   UNL     1     110.595 127.459 140.148  0.00  0.00    +0.000 OA
ATOM      4  O   UNL     1     109.622 128.343 137.984  0.00  0.00    +0.000 OA
ATOM      5  C   UNL     1     112.098 128.324 138.335  0.00  0.00    +0.000 A 
ATOM      6  C   UNL     1     111.280 128.328 138.225  0.00  0.00    +0.000 A 
ATOM      7  C   UNL     1     112.417 128.037 139.040  0.00  0.00    +0.000 A 
ATOM      8  C   UNL     1     110.783 128.044 138.818  0.00  0.00    +0.000 A 
ATOM      9  C   UNL     1     111.919 127.753 139.634  0.00  0.00    +0.000 A 
ATOM     10  C   UNL     1     111.102 127.757 139.522  0.00  0.00    +0.000 A 
ATOM     11  C   UNL     1     109.933 128.054 138.691  0.00  0.00    +0.000 A 
ATOM     12  C   UNL     1     109.742 127.461 140.039  0.00  0.00    +0.000 A 
ATOM     13  C   UNL     1     109.409 127.760 139.305  0.00  0.00    +0.000 A 
ENDROOT
BRANCH   5  19
ATOM     14  O   UNL     1     112.733 129.417 137.670  0.00  0.00    +0.000 OA
ATOM     15  O   UNL     1     113.814 127.837 136.103  0.00  0.00    +0.000 OA
ATOM     16  O   UNL     1     114.089 129.458 135.960  0.00  0.00    +0.000 OA
ATOM     17  C   UNL     1     112.956 128.081 137.219  0.00  0.00    +0.000 C 
ATOM     18  C   UNL     1     113.454 128.363 136.626  0.00  0.00    +0.000 C 
ATOM     19  C   UNL     1     112.596 128.608 137.742  0.00  0.00    +0.000 C 
ATOM     20  C   UNL     1     113.592 129.174 136.554  0.00  0.00    +0.000 C 
ATOM     21  C   UNL     1     113.231 129.701 137.077  0.00  0.00    +0.000 C 
BRANCH  21  23
ATOM     22  O   UNL     1     113.370 130.990 137.678  0.00  0.00    +0.000 OA
ATOM     23  C   UNL     1     113.368 130.511 137.006  0.00  0.00    +0.000 C 
ENDBRANCH  21  23
BRANCH  17  24
ATOM     24  O   UNL     1     112.818 127.270 137.290  0.00  0.00    +0.000 OA
BRANCH  24  26
ATOM     25  O   UNL     1     112.636 127.163 135.877  0.00  0.00    +0.000 OA
ATOM     26  C   UNL     1     112.732 126.806 136.614  0.00  0.00    +0.000 C 
BRANCH  26  28
ATOM     27  O   UNL     1     112.769 123.515 136.857  0.00  0.00    +0.000 OA
ATOM     28  C   UNL     1     112.741 125.983 136.675  0.00  0.00    +0.000 A 
ATOM     29  C   UNL     1     112.060 125.549 136.503  0.00  0.00    +0.000 A 
ATOM     30  C   UNL     1     113.431 125.594 136.907  0.00  0.00    +0.000 A 
ATOM     31  C   UNL     1     112.070 124.726 136.564  0.00  0.00    +0.000 A 
ATOM     32  C   UNL     1     113.440 124.772 136.967  0.00  0.00    +0.000 A 
ATOM     33  C   UNL     1     112.760 124.337 136.796  0.00  0.00    +0.000 A 
ENDBRANCH  26  28
ENDBRANCH  24  26
ENDBRANCH  17  24
ENDBRANCH   5  19
BRANCH  12  36
ATOM     34  O   UNL     1     108.392 125.283 141.307  0.00  0.00    +0.000 OA
ATOM     35  C   UNL     1     108.255 126.608 141.825  0.00  0.00    +0.000 A 
ATOM     36  C   UNL     1     109.246 127.176 140.634  0.00  0.00    +0.000 A 
ATOM     37  C   UNL     1     108.571 126.088 141.268  0.00  0.00    +0.000 A 
ATOM     38  C   UNL     1     108.434 127.413 141.787  0.00  0.00    +0.000 A 
ATOM     39  C   UNL     1     109.067 126.373 140.672  0.00  0.00    +0.000 A 
ATOM     40  C   UNL     1     108.930 127.697 141.191  0.00  0.00    +0.000 A 
BRANCH  35  41
ATOM     41  O   UNL     1     107.760 126.324 142.420  0.00  0.00    +0.000 OA
BRANCH  41  50
ATOM     42  O   UNL     1     106.502 126.800 141.938  0.00  0.00    +0.000 OA
ATOM     43  O   UNL     1     105.910 127.548 144.222  0.00  0.00    +0.000 OA
ATOM     44  O   UNL     1     104.850 127.775 142.979  0.00  0.00    +0.000 OA
ATOM     45  O   UNL     1     107.365 126.822 143.943  0.00  0.00    +0.000 OA
ATOM     46  C   UNL     1     106.107 127.299 143.460  0.00  0.00    +0.000 C 
ATOM     47  C   UNL     1     105.577 127.412 142.838  0.00  0.00    +0.000 C 
ATOM     48  C   UNL     1     106.835 126.935 143.321  0.00  0.00    +0.000 C 
ATOM     49  C   UNL     1     105.774 127.163 142.078  0.00  0.00    +0.000 C 
ATOM     50  C   UNL     1     107.032 126.686 142.560  0.00  0.00    +0.000 C 
BRANCH  49  52
ATOM     51  O   UNL     1     105.115 126.671 140.909  0.00  0.00    +0.000 OA
ATOM     52  C   UNL     1     105.245 127.276 141.456  0.00  0.00    +0.000 C 
ENDBRANCH  49  52
ENDBRANCH  41  50
ENDBRANCH  35  41
ENDBRANCH  12  36
TORSDOF 9
ENDMDL
MODEL 6
REMARK VINA RESULT:     -10.2      6.476      9.696
REMARK  Name = 44257986
REMARK  9 active torsions:
REMARK  status: ('A' for Active; 'I' for Inactive)
REMARK    1  A    between atoms: O_2  and  C_19
REMARK    2  A    between atoms: O_2  and  C_37
REMARK    3  A    between atoms: O_7  and  C_30
REMARK    4  A    between atoms: O_7  and  C_39
REMARK    5  A    between atoms: C_21  and  C_24
REMARK    6  A    between atoms: C_23  and  C_25
REMARK    7  A    between atoms: C_29  and  C_33
REMARK    8  A    between atoms: C_37  and  C_41
REMARK    9  A    between atoms: C_40  and  C_43
REMARK                            x       y       z     vdW  Elec       q    Type
REMARK                         _______ _______ _______ _____ _____    ______ ____
ROOT
ATOM      1  O   UNL     1     111.922 127.601 139.890  0.00  0.00    +0.000 OA
ATOM      2  O   UNL     1     110.420 128.486 137.625  0.00  0.00    +0.000 OA
ATOM      3  O   UNL     1     109.108 126.958 139.684  0.00  0.00    +0.000 OA
ATOM      4  O   UNL     1     111.301 126.834 140.942  0.00  0.00    +0.000 OA
ATOM      5  C   UNL     1     111.171 128.043 138.757  0.00  0.00    +0.000 A 
ATOM      6  C   UNL     1     111.208 127.643 139.478  0.00  0.00    +0.000 A 
ATOM      7  C   UNL     1     110.457 128.085 138.346  0.00  0.00    +0.000 A 
ATOM      8  C   UNL     1     110.532 127.285 139.786  0.00  0.00    +0.000 A 
ATOM      9  C   UNL     1     109.781 127.727 138.654  0.00  0.00    +0.000 A 
ATOM     10  C   UNL     1     109.819 127.327 139.374  0.00  0.00    +0.000 A 
ATOM     11  C   UNL     1     110.584 126.871 140.537  0.00  0.00    +0.000 A 
ATOM     12  C   UNL     1     109.140 126.539 140.435  0.00  0.00    +0.000 A 
ATOM     13  C   UNL     1     109.883 126.496 140.863  0.00  0.00    +0.000 A 
ENDROOT
BRANCH   5  19
ATOM     14  O   UNL     1     112.073 129.150 138.710  0.00  0.00    +0.000 OA
ATOM     15  O   UNL     1     113.425 127.976 137.002  0.00  0.00    +0.000 OA
ATOM     16  O   UNL     1     113.876 129.476 137.524  0.00  0.00    +0.000 OA
ATOM     17  C   UNL     1     112.298 128.010 137.880  0.00  0.00    +0.000 C 
ATOM     18  C   UNL     1     112.974 128.367 137.571  0.00  0.00    +0.000 C 
ATOM     19  C   UNL     1     111.847 128.402 138.449  0.00  0.00    +0.000 C 
ATOM     20  C   UNL     1     113.200 129.117 137.832  0.00  0.00    +0.000 C 
ATOM     21  C   UNL     1     112.749 129.509 138.401  0.00  0.00    +0.000 C 
BRANCH  21  23
ATOM     22  O   UNL     1     112.413 130.766 138.991  0.00  0.00    +0.000 OA
ATOM     23  C   UNL     1     112.974 130.258 138.663  0.00  0.00    +0.000 C 
ENDBRANCH  21  23
BRANCH  17  24
ATOM     24  O   UNL     1     112.073 127.261 137.619  0.00  0.00    +0.000 OA
BRANCH  24  26
ATOM     25  O   UNL     1     113.446 126.870 137.548  0.00  0.00    +0.000 OA
ATOM     26  C   UNL     1     112.647 126.700 137.429  0.00  0.00    +0.000 C 
BRANCH  26  28
ATOM     27  O   UNL     1     111.753 123.777 136.185  0.00  0.00    +0.000 OA
ATOM     28  C   UNL     1     112.424 125.969 137.118  0.00  0.00    +0.000 A 
ATOM     29  C   UNL     1     112.556 125.279 137.551  0.00  0.00    +0.000 A 
ATOM     30  C   UNL     1     112.069 125.928 136.374  0.00  0.00    +0.000 A 
ATOM     31  C   UNL     1     112.332 124.548 137.239  0.00  0.00    +0.000 A 
ATOM     32  C   UNL     1     111.845 125.198 136.064  0.00  0.00    +0.000 A 
ATOM     33  C   UNL     1     111.977 124.508 136.495  0.00  0.00    +0.000 A 
ENDBRANCH  26  28
ENDBRANCH  24  26
ENDBRANCH  17  24
ENDBRANCH   5  19
BRANCH  12  36
ATOM     34  O   UNL     1     106.741 126.698 141.979  0.00  0.00    +0.000 OA
ATOM     35  C   UNL     1     107.107 125.467 141.352  0.00  0.00    +0.000 A 
ATOM     36  C   UNL     1     108.462 126.182 140.740  0.00  0.00    +0.000 A 
ATOM     37  C   UNL     1     107.262 126.261 141.513  0.00  0.00    +0.000 A 
ATOM     38  C   UNL     1     107.628 125.030 140.886  0.00  0.00    +0.000 A 
ATOM     39  C   UNL     1     107.941 126.618 141.207  0.00  0.00    +0.000 A 
ATOM     40  C   UNL     1     108.307 125.388 140.579  0.00  0.00    +0.000 A 
BRANCH  35  41
ATOM     41  O   UNL     1     106.429 125.110 141.658  0.00  0.00    +0.000 OA
BRANCH  41  50
ATOM     42  O   UNL     1     105.686 124.997 140.442  0.00  0.00    +0.000 OA
ATOM     43  O   UNL     1     104.927 122.740 141.116  0.00  0.00    +0.000 OA
ATOM     44  O   UNL     1     104.438 123.379 139.677  0.00  0.00    +0.000 OA
ATOM     45  O   UNL     1     105.923 123.605 142.107  0.00  0.00    +0.000 OA
ATOM     46  C   UNL     1     105.180 123.492 140.891  0.00  0.00    +0.000 C 
ATOM     47  C   UNL     1     104.936 123.812 140.172  0.00  0.00    +0.000 C 
ATOM     48  C   UNL     1     105.678 123.925 141.387  0.00  0.00    +0.000 C 
ATOM     49  C   UNL     1     105.189 124.564 139.947  0.00  0.00    +0.000 C 
ATOM     50  C   UNL     1     105.931 124.677 141.163  0.00  0.00    +0.000 C 
BRANCH  49  52
ATOM     51  O   UNL     1     104.611 125.639 139.204  0.00  0.00    +0.000 OA
ATOM     52  C   UNL     1     104.944 124.884 139.227  0.00  0.00    +0.000 C 
ENDBRANCH  49  52
ENDBRANCH  41  50
ENDBRANCH  35  41
ENDBRANCH  12  36
TORSDOF 9
ENDMDL
MODEL 7
REMARK VINA RESULT:     -10.0      4.972      8.240
REMARK  Name = 44257986
REMARK  9 active torsions:
REMARK  status: ('A' for Active; 'I' for Inactive)
REMARK    1  A    between atoms: O_2  and  C_19
REMARK    2  A    between atoms: O_2  and  C_37
REMARK    3  A    between atoms: O_7  and  C_30
REMARK    4  A    between atoms: O_7  and  C_39
REMARK    5  A    between atoms: C_21  and  C_24
REMARK    6  A    between atoms: C_23  and  C_25
REMARK    7  A    between atoms: C_29  and  C_33
REMARK    8  A    between atoms: C_37  and  C_41
REMARK    9  A    between atoms: C_40  and  C_43
REMARK                            x       y       z     vdW  Elec       q    Type
REMARK                         _______ _______ _______ _____ _____    ______ ____
ROOT
ATOM      1  O   UNL     1     109.742 131.210 143.421  0.00  0.00    +0.000 OA
ATOM      2  O   UNL     1     111.683 129.912 145.069  0.00  0.00    +0.000 OA
ATOM      3  O   UNL     1     108.914 129.143 145.270  0.00  0.00    +0.000 OA
ATOM      4  O   UNL     1     108.346 130.854 143.491  0.00  0.00    +0.000 OA
ATOM      5  C   UNL     1     110.713 130.561 144.245  0.00  0.00    +0.000 A 
ATOM      6  C   UNL     1     109.930 130.654 144.000  0.00  0.00    +0.000 A 
ATOM      7  C   UNL     1     110.900 130.004 144.824  0.00  0.00    +0.000 A 
ATOM      8  C   UNL     1     109.336 130.189 144.334  0.00  0.00    +0.000 A 
ATOM      9  C   UNL     1     110.306 129.540 145.159  0.00  0.00    +0.000 A 
ATOM     10  C   UNL     1     109.524 129.633 144.914  0.00  0.00    +0.000 A 
ATOM     11  C   UNL     1     108.525 130.295 144.071  0.00  0.00    +0.000 A 
ATOM     12  C   UNL     1     108.097 129.235 145.019  0.00  0.00    +0.000 A 
ATOM     13  C   UNL     1     107.902 129.815 144.415  0.00  0.00    +0.000 A 
ENDROOT
BRANCH   5  19
ATOM     14  O   UNL     1     111.651 130.803 143.195  0.00  0.00    +0.000 OA
ATOM     15  O   UNL     1     112.402 132.865 144.340  0.00  0.00    +0.000 OA
ATOM     16  O   UNL     1     113.090 132.419 142.907  0.00  0.00    +0.000 OA
ATOM     17  C   UNL     1     111.557 131.712 144.292  0.00  0.00    +0.000 C 
ATOM     18  C   UNL     1     112.151 132.177 143.958  0.00  0.00    +0.000 C 
ATOM     19  C   UNL     1     111.307 131.026 143.910  0.00  0.00    +0.000 C 
ATOM     20  C   UNL     1     112.496 131.955 143.242  0.00  0.00    +0.000 C 
ATOM     21  C   UNL     1     112.245 131.267 142.860  0.00  0.00    +0.000 C 
BRANCH  21  23
ATOM     22  O   UNL     1     112.743 130.248 141.991  0.00  0.00    +0.000 OA
ATOM     23  C   UNL     1     112.589 131.044 142.144  0.00  0.00    +0.000 C 
ENDBRANCH  21  23
BRANCH  17  24
ATOM     24  O   UNL     1     111.213 131.936 145.008  0.00  0.00    +0.000 OA
BRANCH  24  26
ATOM     25  O   UNL     1     111.125 133.289 144.556  0.00  0.00    +0.000 OA
ATOM     26  C   UNL     1     111.055 132.731 145.159  0.00  0.00    +0.000 C 
BRANCH  26  28
ATOM     27  O   UNL     1     110.142 133.685 148.184  0.00  0.00    +0.000 OA
ATOM     28  C   UNL     1     110.827 132.970 145.916  0.00  0.00    +0.000 A 
ATOM     29  C   UNL     1     110.050 133.211 146.055  0.00  0.00    +0.000 A 
ATOM     30  C   UNL     1     111.375 132.967 146.532  0.00  0.00    +0.000 A 
ATOM     31  C   UNL     1     109.822 133.449 146.812  0.00  0.00    +0.000 A 
ATOM     32  C   UNL     1     111.146 133.205 147.288  0.00  0.00    +0.000 A 
ATOM     33  C   UNL     1     110.370 133.446 147.428  0.00  0.00    +0.000 A 
ENDBRANCH  26  28
ENDBRANCH  24  26
ENDBRANCH  17  24
ENDBRANCH   5  19
BRANCH  12  36
ATOM     34  O   UNL     1     106.069 127.239 144.755  0.00  0.00    +0.000 OA
ATOM     35  C   UNL     1     106.320 127.838 146.027  0.00  0.00    +0.000 A 
ATOM     36  C   UNL     1     107.505 128.769 145.355  0.00  0.00    +0.000 A 
ATOM     37  C   UNL     1     106.490 127.771 145.224  0.00  0.00    +0.000 A 
ATOM     38  C   UNL     1     106.742 128.370 146.496  0.00  0.00    +0.000 A 
ATOM     39  C   UNL     1     107.083 128.237 144.887  0.00  0.00    +0.000 A 
ATOM     40  C   UNL     1     107.335 128.837 146.160  0.00  0.00    +0.000 A 
BRANCH  35  41
ATOM     41  O   UNL     1     105.728 127.372 146.364  0.00  0.00    +0.000 OA
BRANCH  41  50
ATOM     42  O   UNL     1     106.560 126.394 146.991  0.00  0.00    +0.000 OA
ATOM     43  O   UNL     1     105.096 126.427 148.986  0.00  0.00    +0.000 OA
ATOM     44  O   UNL     1     106.415 125.439 148.947  0.00  0.00    +0.000 OA
ATOM     45  O   UNL     1     104.751 127.394 147.694  0.00  0.00    +0.000 OA
ATOM     46  C   UNL     1     105.584 126.416 148.321  0.00  0.00    +0.000 C 
ATOM     47  C   UNL     1     106.244 125.922 148.301  0.00  0.00    +0.000 C 
ATOM     48  C   UNL     1     105.412 126.900 147.674  0.00  0.00    +0.000 C 
ATOM     49  C   UNL     1     106.732 125.911 147.637  0.00  0.00    +0.000 C 
ATOM     50  C   UNL     1     105.899 126.889 147.010  0.00  0.00    +0.000 C 
BRANCH  49  52
ATOM     51  O   UNL     1     107.658 125.114 146.897  0.00  0.00    +0.000 OA
ATOM     52  C   UNL     1     107.392 125.417 147.617  0.00  0.00    +0.000 C 
ENDBRANCH  49  52
ENDBRANCH  41  50
ENDBRANCH  35  41
ENDBRANCH  12  36
TORSDOF 9
ENDMDL
MODEL 8
REMARK VINA RESULT:      -9.9      6.611      9.553
REMARK  Name = 44257986
REMARK  9 active torsions:
REMARK  status: ('A' for Active; 'I' for Inactive)
REMARK    1  A    between atoms: O_2  and  C_19
REMARK    2  A    between atoms: O_2  and  C_37
REMARK    3  A    between atoms: O_7  and  C_30
REMARK    4  A    between atoms: O_7  and  C_39
REMARK    5  A    between atoms: C_21  and  C_24
REMARK    6  A    between atoms: C_23  and  C_25
REMARK    7  A    between atoms: C_29  and  C_33
REMARK    8  A    between atoms: C_37  and  C_41
REMARK    9  A    between atoms: C_40  and  C_43
REMARK                            x       y       z     vdW  Elec       q    Type
REMARK                         _______ _______ _______ _____ _____    ______ ____
ROOT
ATOM      1  O   UNL     1     112.219 125.781 139.248  0.00  0.00    +0.000 OA
ATOM      2  O   UNL     1     110.063 126.026 137.388  0.00  0.00    +0.000 OA
ATOM      3  O   UNL     1     109.776 127.115 140.039  0.00  0.00    +0.000 OA
ATOM      4  O   UNL     1     112.115 126.313 140.584  0.00  0.00    +0.000 OA
ATOM      5  C   UNL     1     111.141 125.904 138.318  0.00  0.00    +0.000 A 
ATOM      6  C   UNL     1     111.457 126.042 139.067  0.00  0.00    +0.000 A 
ATOM      7  C   UNL     1     110.379 126.164 138.138  0.00  0.00    +0.000 A 
ATOM      8  C   UNL     1     111.012 126.439 139.636  0.00  0.00    +0.000 A 
ATOM      9  C   UNL     1     109.933 126.562 138.707  0.00  0.00    +0.000 A 
ATOM     10  C   UNL     1     110.250 126.700 139.455  0.00  0.00    +0.000 A 
ATOM     11  C   UNL     1     111.352 126.577 140.413  0.00  0.00    +0.000 A 
ATOM     12  C   UNL     1     110.100 127.262 140.822  0.00  0.00    +0.000 A 
ATOM     13  C   UNL     1     110.893 126.990 141.009  0.00  0.00    +0.000 A 
ENDROOT
BRANCH   5  19
ATOM     14  O   UNL     1     111.604 124.682 137.740  0.00  0.00    +0.000 OA
ATOM     15  O   UNL     1     112.889 125.963 136.058  0.00  0.00    +0.000 OA
ATOM     16  O   UNL     1     112.924 124.313 136.041  0.00  0.00    +0.000 OA
ATOM     17  C   UNL     1     112.015 125.933 137.188  0.00  0.00    +0.000 C 
ATOM     18  C   UNL     1     112.461 125.536 136.619  0.00  0.00    +0.000 C 
ATOM     19  C   UNL     1     111.587 125.506 137.749  0.00  0.00    +0.000 C 
ATOM     20  C   UNL     1     112.478 124.711 136.610  0.00  0.00    +0.000 C 
ATOM     21  C   UNL     1     112.050 124.284 137.171  0.00  0.00    +0.000 C 
BRANCH  21  23
ATOM     22  O   UNL     1     111.616 123.032 137.706  0.00  0.00    +0.000 OA
ATOM     23  C   UNL     1     112.067 123.459 137.163  0.00  0.00    +0.000 C 
ENDBRANCH  21  23
BRANCH  17  24
ATOM     24  O   UNL     1     111.998 126.758 137.196  0.00  0.00    +0.000 OA
BRANCH  24  26
ATOM     25  O   UNL     1     113.407 126.800 136.956  0.00  0.00    +0.000 OA
ATOM     26  C   UNL     1     112.680 127.186 137.019  0.00  0.00    +0.000 C 
BRANCH  26  28
ATOM     27  O   UNL     1     112.507 130.450 136.559  0.00  0.00    +0.000 OA
ATOM     28  C   UNL     1     112.637 128.002 136.904  0.00  0.00    +0.000 A 
ATOM     29  C   UNL     1     113.006 128.514 137.436  0.00  0.00    +0.000 A 
ATOM     30  C   UNL     1     112.225 128.307 136.257  0.00  0.00    +0.000 A 
ATOM     31  C   UNL     1     112.962 129.330 137.321  0.00  0.00    +0.000 A 
ATOM     32  C   UNL     1     112.182 129.122 136.143  0.00  0.00    +0.000 A 
ATOM     33  C   UNL     1     112.550 129.634 136.674  0.00  0.00    +0.000 A 
ENDBRANCH  26  28
ENDBRANCH  24  26
ENDBRANCH  17  24
ENDBRANCH   5  19
BRANCH  12  36
ATOM     34  O   UNL     1     107.958 127.286 142.714  0.00  0.00    +0.000 OA
ATOM     35  C   UNL     1     108.756 128.456 142.523  0.00  0.00    +0.000 A 
ATOM     36  C   UNL     1     109.652 127.660 141.389  0.00  0.00    +0.000 A 
ATOM     37  C   UNL     1     108.581 127.673 142.336  0.00  0.00    +0.000 A 
ATOM     38  C   UNL     1     109.379 128.842 142.145  0.00  0.00    +0.000 A 
ATOM     39  C   UNL     1     109.029 127.274 141.768  0.00  0.00    +0.000 A 
ATOM     40  C   UNL     1     109.828 128.444 141.577  0.00  0.00    +0.000 A 
BRANCH  35  41
ATOM     41  O   UNL     1     108.308 128.854 143.090  0.00  0.00    +0.000 OA
BRANCH  41  50
ATOM     42  O   UNL     1     107.526 129.695 142.240  0.00  0.00    +0.000 OA
ATOM     43  O   UNL     1     107.941 131.610 143.752  0.00  0.00    +0.000 OA
ATOM     44  O   UNL     1     107.022 131.812 142.399  0.00  0.00    +0.000 OA
ATOM     45  O   UNL     1     108.585 130.131 144.099  0.00  0.00    +0.000 OA
ATOM     46  C   UNL     1     107.803 130.972 143.248  0.00  0.00    +0.000 C 
ATOM     47  C   UNL     1     107.343 131.073 142.571  0.00  0.00    +0.000 C 
ATOM     48  C   UNL     1     108.125 130.231 143.421  0.00  0.00    +0.000 C 
ATOM     49  C   UNL     1     107.205 130.435 142.068  0.00  0.00    +0.000 C 
ATOM     50  C   UNL     1     107.987 129.594 142.918  0.00  0.00    +0.000 C 
BRANCH  49  52
ATOM     51  O   UNL     1     106.201 129.954 141.171  0.00  0.00    +0.000 OA
ATOM     52  C   UNL     1     106.745 130.536 141.390  0.00  0.00    +0.000 C 
ENDBRANCH  49  52
ENDBRANCH  41  50
ENDBRANCH  35  41
ENDBRANCH  12  36
TORSDOF 9
ENDMDL
MODEL 9
REMARK VINA RESULT:      -9.9      7.561     10.757
REMARK  Name = 44257986
REMARK  9 active torsions:
REMARK  status: ('A' for Active; 'I' for Inactive)
REMARK    1  A    between atoms: O_2  and  C_19
REMARK    2  A    between atoms: O_2  and  C_37
REMARK    3  A    between atoms: O_7  and  C_30
REMARK    4  A    between atoms: O_7  and  C_39
REMARK    5  A    between atoms: C_21  and  C_24
REMARK    6  A    between atoms: C_23  and  C_25
REMARK    7  A    between atoms: C_29  and  C_33
REMARK    8  A    between atoms: C_37  and  C_41
REMARK    9  A    between atoms: C_40  and  C_43
REMARK                            x       y       z     vdW  Elec       q    Type
REMARK                         _______ _______ _______ _____ _____    ______ ____
ROOT
ATOM      1  O   UNL     1     110.204 126.932 137.884  0.00  0.00    +0.000 OA
ATOM      2  O   UNL     1     112.380 127.828 136.262  0.00  0.00    +0.000 OA
ATOM      3  O   UNL     1     112.033 128.931 138.900  0.00  0.00    +0.000 OA
ATOM      4  O   UNL     1     109.996 127.460 139.210  0.00  0.00    +0.000 OA
ATOM      5  C   UNL     1     111.292 127.379 137.073  0.00  0.00    +0.000 A 
ATOM      6  C   UNL     1     110.868 127.410 137.780  0.00  0.00    +0.000 A 
ATOM      7  C   UNL     1     111.956 127.858 136.969  0.00  0.00    +0.000 A 
ATOM      8  C   UNL     1     111.108 127.919 138.383  0.00  0.00    +0.000 A 
ATOM      9  C   UNL     1     112.196 128.367 137.572  0.00  0.00    +0.000 A 
ATOM     10  C   UNL     1     111.772 128.397 138.279  0.00  0.00    +0.000 A 
ATOM     11  C   UNL     1     110.659 127.942 139.115  0.00  0.00    +0.000 A 
ATOM     12  C   UNL     1     111.595 128.968 139.639  0.00  0.00    +0.000 A 
ATOM     13  C   UNL     1     110.904 128.469 139.747  0.00  0.00    +0.000 A 
ENDROOT
BRANCH   5  19
ATOM     14  O   UNL     1     111.262 126.074 136.493  0.00  0.00    +0.000 OA
ATOM     15  O   UNL     1     109.906 126.939 134.612  0.00  0.00    +0.000 OA
ATOM     16  O   UNL     1     110.329 125.345 134.659  0.00  0.00    +0.000 OA
ATOM     17  C   UNL     1     110.599 127.159 135.843  0.00  0.00    +0.000 C 
ATOM     18  C   UNL     1     110.358 126.651 135.239  0.00  0.00    +0.000 C 
ATOM     19  C   UNL     1     111.051 126.871 136.469  0.00  0.00    +0.000 C 
ATOM     20  C   UNL     1     110.570 125.854 135.262  0.00  0.00    +0.000 C 
ATOM     21  C   UNL     1     111.022 125.566 135.889  0.00  0.00    +0.000 C 
BRANCH  21  23
ATOM     22  O   UNL     1     111.919 124.535 136.310  0.00  0.00    +0.000 OA
ATOM     23  C   UNL     1     111.234 124.769 135.913  0.00  0.00    +0.000 C 
ENDBRANCH  21  23
BRANCH  17  24
ATOM     24  O   UNL     1     110.387 127.956 135.819  0.00  0.00    +0.000 OA
BRANCH  24  26
ATOM     25  O   UNL     1     109.052 127.604 135.452  0.00  0.00    +0.000 OA
ATOM     26  C   UNL     1     109.637 128.176 135.556  0.00  0.00    +0.000 C 
BRANCH  26  28
ATOM     27  O   UNL     1     108.972 131.346 134.923  0.00  0.00    +0.000 OA
ATOM     28  C   UNL     1     109.471 128.968 135.398  0.00  0.00    +0.000 A 
ATOM     29  C   UNL     1     109.849 129.353 134.774  0.00  0.00    +0.000 A 
ATOM     30  C   UNL     1     108.926 129.377 135.864  0.00  0.00    +0.000 A 
ATOM     31  C   UNL     1     109.683 130.145 134.616  0.00  0.00    +0.000 A 
ATOM     32  C   UNL     1     108.760 130.169 135.706  0.00  0.00    +0.000 A 
ATOM     33  C   UNL     1     109.138 130.554 135.082  0.00  0.00    +0.000 A 
ENDBRANCH  26  28
ENDBRANCH  24  26
ENDBRANCH  17  24
ENDBRANCH   5  19
BRANCH  12  36
ATOM     34  O   UNL     1     113.613 129.881 141.445  0.00  0.00    +0.000 OA
ATOM     35  C   UNL     1     112.323 130.497 141.444  0.00  0.00    +0.000 A 
ATOM     36  C   UNL     1     111.838 129.477 140.241  0.00  0.00    +0.000 A 
ATOM     37  C   UNL     1     112.846 129.935 141.144  0.00  0.00    +0.000 A 
ATOM     38  C   UNL     1     111.557 130.551 141.142  0.00  0.00    +0.000 A 
ATOM     39  C   UNL     1     112.603 129.424 140.542  0.00  0.00    +0.000 A 
ATOM     40  C   UNL     1     111.314 130.040 140.540  0.00  0.00    +0.000 A 
BRANCH  35  41
ATOM     41  O   UNL     1     112.566 131.007 142.045  0.00  0.00    +0.000 OA
BRANCH  41  50
ATOM     42  O   UNL     1     111.931 130.390 143.167  0.00  0.00    +0.000 OA
ATOM     43  O   UNL     1     111.176 132.609 143.960  0.00  0.00    +0.000 OA
ATOM     44  O   UNL     1     110.792 131.253 144.816  0.00  0.00    +0.000 OA
ATOM     45  O   UNL     1     112.063 132.487 142.574  0.00  0.00    +0.000 OA
ATOM     46  C   UNL     1     111.427 131.870 143.696  0.00  0.00    +0.000 C 
ATOM     47  C   UNL     1     111.236 131.191 144.123  0.00  0.00    +0.000 C 
ATOM     48  C   UNL     1     111.871 131.808 143.002  0.00  0.00    +0.000 C 
ATOM     49  C   UNL     1     111.487 130.452 143.859  0.00  0.00    +0.000 C 
ATOM     50  C   UNL     1     112.123 131.069 142.738  0.00  0.00    +0.000 C 
BRANCH  49  52
ATOM     51  O   UNL     1     111.871 129.198 144.428  0.00  0.00    +0.000 OA
ATOM     52  C   UNL     1     111.296 129.773 144.287  0.00  0.00    +0.000 C 
ENDBRANCH  49  52
ENDBRANCH  41  50
ENDBRANCH  35  41
ENDBRANCH  12  36
TORSDOF 9
ENDMDL
MODEL 10
REMARK VINA RESULT:      -9.8      7.916     10.600
REMARK  Name = 44257986
REMARK  9 active torsions:
REMARK  status: ('A' for Active; 'I' for Inactive)
REMARK    1  A    between atoms: O_2  and  C_19
REMARK    2  A    between atoms: O_2  and  C_37
REMARK    3  A    between atoms: O_7  and  C_30
REMARK    4  A    between atoms: O_7  and  C_39
REMARK    5  A    between atoms: C_21  and  C_24
REMARK    6  A    between atoms: C_23  and  C_25
REMARK    7  A    between atoms: C_29  and  C_33
REMARK    8  A    between atoms: C_37  and  C_41
REMARK    9  A    between atoms: C_40  and  C_43
REMARK                            x       y       z     vdW  Elec       q    Type
REMARK                         _______ _______ _______ _____ _____    ______ ____
ROOT
ATOM      1  O   UNL     1     113.790 128.635 139.459  0.00  0.00    +0.000 OA
ATOM      2  O   UNL     1     111.162 127.619 138.980  0.00  0.00    +0.000 OA
ATOM      3  O   UNL     1     111.645 129.256 141.300  0.00  0.00    +0.000 OA
ATOM      4  O   UNL     1     114.072 129.458 140.609  0.00  0.00    +0.000 OA
ATOM      5  C   UNL     1     112.476 128.127 139.219  0.00  0.00    +0.000 A 
ATOM      6  C   UNL     1     112.998 128.568 139.682  0.00  0.00    +0.000 A 
ATOM      7  C   UNL     1     111.684 128.060 139.443  0.00  0.00    +0.000 A 
ATOM      8  C   UNL     1     112.729 128.940 140.367  0.00  0.00    +0.000 A 
ATOM      9  C   UNL     1     111.415 128.432 140.128  0.00  0.00    +0.000 A 
ATOM     10  C   UNL     1     111.938 128.873 140.589  0.00  0.00    +0.000 A 
ATOM     11  C   UNL     1     113.283 129.396 140.839  0.00  0.00    +0.000 A 
ATOM     12  C   UNL     1     112.185 129.717 141.786  0.00  0.00    +0.000 A 
ATOM     13  C   UNL     1     113.009 129.787 141.554  0.00  0.00    +0.000 A 
ENDROOT
BRANCH   5  19
ATOM     14  O   UNL     1     113.100 127.012 138.581  0.00  0.00    +0.000 OA
ATOM     15  O   UNL     1     112.841 128.123 136.385  0.00  0.00    +0.000 OA
ATOM     16  O   UNL     1     113.552 126.636 136.479  0.00  0.00    +0.000 OA
ATOM     17  C   UNL     1     112.658 128.125 137.803  0.00  0.00    +0.000 C 
ATOM     18  C   UNL     1     112.927 127.753 137.117  0.00  0.00    +0.000 C 
ATOM     19  C   UNL     1     112.745 127.754 138.534  0.00  0.00    +0.000 C 
ATOM     20  C   UNL     1     113.283 127.009 137.164  0.00  0.00    +0.000 C 
ATOM     21  C   UNL     1     113.370 126.639 137.896  0.00  0.00    +0.000 C 
BRANCH  21  23
ATOM     22  O   UNL     1     114.271 125.738 138.542  0.00  0.00    +0.000 OA
ATOM     23  C   UNL     1     113.725 125.896 137.944  0.00  0.00    +0.000 C 
ENDBRANCH  21  23
BRANCH  17  24
ATOM     24  O   UNL     1     112.303 128.868 137.755  0.00  0.00    +0.000 OA
BRANCH  24  26
ATOM     25  O   UNL     1     113.277 129.279 136.793  0.00  0.00    +0.000 OA
ATOM     26  C   UNL     1     112.587 129.428 137.220  0.00  0.00    +0.000 C 
BRANCH  26  28
ATOM     27  O   UNL     1     110.962 132.268 136.785  0.00  0.00    +0.000 OA
ATOM     28  C   UNL     1     112.181 130.137 137.111  0.00  0.00    +0.000 A 
ATOM     29  C   UNL     1     111.426 130.134 136.779  0.00  0.00    +0.000 A 
ATOM     30  C   UNL     1     112.529 130.851 137.335  0.00  0.00    +0.000 A 
ATOM     31  C   UNL     1     111.020 130.844 136.670  0.00  0.00    +0.000 A 
ATOM     32  C   UNL     1     112.123 131.560 137.227  0.00  0.00    +0.000 A 
ATOM     33  C   UNL     1     111.369 131.558 136.894  0.00  0.00    +0.000 A 
ENDBRANCH  26  28
ENDBRANCH  24  26
ENDBRANCH  17  24
ENDBRANCH   5  19
BRANCH  12  36
ATOM     34  O   UNL     1     111.758 129.694 144.612  0.00  0.00    +0.000 OA
ATOM     35  C   UNL     1     111.369 130.832 143.840  0.00  0.00    +0.000 A 
ATOM     36  C   UNL     1     111.913 130.088 142.471  0.00  0.00    +0.000 A 
ATOM     37  C   UNL     1     111.699 130.078 143.884  0.00  0.00    +0.000 A 
ATOM     38  C   UNL     1     111.310 131.216 143.111  0.00  0.00    +0.000 A 
ATOM     39  C   UNL     1     111.971 129.706 143.198  0.00  0.00    +0.000 A 
ATOM     40  C   UNL     1     111.582 130.843 142.426  0.00  0.00    +0.000 A 
BRANCH  35  41
ATOM     41  O   UNL     1     111.097 131.204 144.524  0.00  0.00    +0.000 OA
BRANCH  41  50
ATOM     42  O   UNL     1     112.070 132.243 144.645  0.00  0.00    +0.000 OA
ATOM     43  O   UNL     1     110.270 133.870 145.134  0.00  0.00    +0.000 OA
ATOM     44  O   UNL     1     111.842 134.367 145.092  0.00  0.00    +0.000 OA
ATOM     45  O   UNL     1     109.897 132.288 144.850  0.00  0.00    +0.000 OA
ATOM     46  C   UNL     1     110.870 133.328 144.971  0.00  0.00    +0.000 C 
ATOM     47  C   UNL     1     111.656 133.576 144.950  0.00  0.00    +0.000 C 
ATOM     48  C   UNL     1     110.683 132.536 144.829  0.00  0.00    +0.000 C 
ATOM     49  C   UNL     1     112.255 133.034 144.787  0.00  0.00    +0.000 C 
ATOM     50  C   UNL     1     111.283 131.995 144.666  0.00  0.00    +0.000 C 
BRANCH  49  52
ATOM     51  O   UNL     1     113.611 132.885 145.212  0.00  0.00    +0.000 OA
ATOM     52  C   UNL     1     113.042 133.282 144.766  0.00  0.00    +0.000 C 
ENDBRANCH  49  52
ENDBRANCH  41  50
ENDBRANCH  35  41
ENDBRANCH  12  36
TORSDOF 9
ENDMDL
