MODEL 1
REMARK VINA RESULT:     -10.5      0.000      0.000
REMARK  Name = 
REMARK  6 active torsions:
REMARK  status: ('A' for Active; 'I' for Inactive)
REMARK    1  A    between atoms: C_5  and  O_7
REMARK    2  A    between atoms: O_7  and  C_37
REMARK    3  A    between atoms: C_12  and  C_22
REMARK    4  A    between atoms: C_16  and  O_18
REMARK    5  A    between atoms: O_18  and  C_24
REMARK    6  A    between atoms: C_32  and  C_34
REMARK                            x       y       z     vdW  Elec       q    Type
REMARK                         _______ _______ _______ _____ _____    ______ ____
ROOT
ATOM      1  C   UNL     1     102.488 130.780 141.787  0.00  0.00    +0.000 A 
ATOM      2  C   UNL     1     102.443 130.285 140.913  0.00  0.00    +0.000 A 
ATOM      3  C   UNL     1     102.997 129.463 140.771  0.00  0.00    +0.000 A 
ATOM      4  C   UNL     1     103.086 130.454 142.515  0.00  0.00    +0.000 A 
ATOM      5  C   UNL     1     103.644 129.630 142.380  0.00  0.00    +0.000 A 
ATOM      6  C   UNL     1     103.597 129.140 141.511  0.00  0.00    +0.000 A 
ATOM      7  C   UNL     1     104.155 128.316 141.373  0.00  0.00    +0.000 A 
ATOM      8  C   UNL     1     104.755 127.987 142.103  0.00  0.00    +0.000 A 
ATOM      9  C   UNL     1     104.799 128.484 142.976  0.00  0.00    +0.000 A 
ATOM     10  O   UNL     1     104.241 129.310 143.118  0.00  0.00    +0.000 OA
ATOM     11  O   UNL     1     104.110 127.822 140.502  0.00  0.00    +0.000 OA
ATOM     12  O   UNL     1     102.954 128.967 139.902  0.00  0.00    +0.000 OA
ENDROOT
BRANCH   9  13
ATOM     13  C   UNL     1     105.396 128.159 143.706  0.00  0.00    +0.000 A 
ATOM     14  C   UNL     1     105.843 128.816 144.325  0.00  0.00    +0.000 A 
ATOM     15  C   UNL     1     106.440 128.483 145.055  0.00  0.00    +0.000 A 
ATOM     16  C   UNL     1     106.594 127.499 145.170  0.00  0.00    +0.000 A 
ATOM     17  C   UNL     1     106.147 126.844 144.550  0.00  0.00    +0.000 A 
ATOM     18  C   UNL     1     105.548 127.180 143.818  0.00  0.00    +0.000 A 
BRANCH  16  19
ATOM     19  O   UNL     1     107.192 127.166 145.900  0.00  0.00    +0.000 OA
BRANCH  19  24
ATOM     20  C   UNL     1     105.704 127.071 148.061  0.00  0.00    +0.000 C 
ATOM     21  C   UNL     1     105.987 126.198 148.449  0.00  0.00    +0.000 C 
ATOM     22  C   UNL     1     106.671 125.650 147.986  0.00  0.00    +0.000 C 
ATOM     23  C   UNL     1     107.076 125.967 147.138  0.00  0.00    +0.000 C 
ATOM     24  C   UNL     1     106.792 126.840 146.750  0.00  0.00    +0.000 C 
ATOM     25  O   UNL     1     106.105 127.396 147.209  0.00  0.00    +0.000 OA
ATOM     26  O   UNL     1     107.763 125.414 146.675  0.00  0.00    +0.000 OA
ATOM     27  O   UNL     1     106.955 124.778 148.374  0.00  0.00    +0.000 OA
ATOM     28  O   UNL     1     105.583 125.875 149.302  0.00  0.00    +0.000 OA
ATOM     29  C   UNL     1     105.016 127.620 148.527  0.00  0.00    +0.000 C 
ENDBRANCH  19  24
ENDBRANCH  16  19
ENDBRANCH   9  13
BRANCH   1  30
ATOM     30  O   UNL     1     101.933 131.601 141.923  0.00  0.00    +0.000 OA
BRANCH  30  35
ATOM     31  C   UNL     1     103.393 133.425 140.699  0.00  0.00    +0.000 C 
ATOM     32  C   UNL     1     102.955 134.267 141.018  0.00  0.00    +0.000 C 
ATOM     33  C   UNL     1     102.177 134.216 141.638  0.00  0.00    +0.000 C 
ATOM     34  C   UNL     1     101.833 133.333 141.942  0.00  0.00    +0.000 C 
ATOM     35  C   UNL     1     102.271 132.491 141.624  0.00  0.00    +0.000 C 
ATOM     36  O   UNL     1     103.053 132.533 141.000  0.00  0.00    +0.000 OA
ATOM     37  O   UNL     1     101.050 133.287 142.566  0.00  0.00    +0.000 OA
ATOM     38  O   UNL     1     101.739 135.058 141.956  0.00  0.00    +0.000 OA
ATOM     39  O   UNL     1     103.298 135.158 140.714  0.00  0.00    +0.000 OA
BRANCH  31  40
ATOM     40  C   UNL     1     104.175 133.475 140.076  0.00  0.00    +0.000 C 
ATOM     41  O   UNL     1     104.869 132.754 140.083  0.00  0.00    +0.000 OA
ENDBRANCH  31  40
ENDBRANCH  30  35
ENDBRANCH   1  30
TORSDOF 6
ENDMDL
MODEL 2
REMARK VINA RESULT:      -9.9      5.365      7.943
REMARK  Name = 
REMARK  6 active torsions:
REMARK  status: ('A' for Active; 'I' for Inactive)
REMARK    1  A    between atoms: C_5  and  O_7
REMARK    2  A    between atoms: O_7  and  C_37
REMARK    3  A    between atoms: C_12  and  C_22
REMARK    4  A    between atoms: C_16  and  O_18
REMARK    5  A    between atoms: O_18  and  C_24
REMARK    6  A    between atoms: C_32  and  C_34
REMARK                            x       y       z     vdW  Elec       q    Type
REMARK                         _______ _______ _______ _____ _____    ______ ____
ROOT
ATOM      1  C   UNL     1     108.513 127.182 141.355  0.00  0.00    +0.000 A 
ATOM      2  C   UNL     1     109.195 126.562 140.954  0.00  0.00    +0.000 A 
ATOM      3  C   UNL     1     110.169 126.692 141.149  0.00  0.00    +0.000 A 
ATOM      4  C   UNL     1     108.804 127.929 141.948  0.00  0.00    +0.000 A 
ATOM      5  C   UNL     1     109.779 128.065 142.148  0.00  0.00    +0.000 A 
ATOM      6  C   UNL     1     110.455 127.447 141.748  0.00  0.00    +0.000 A 
ATOM      7  C   UNL     1     111.431 127.581 141.946  0.00  0.00    +0.000 A 
ATOM      8  C   UNL     1     111.725 128.330 142.541  0.00  0.00    +0.000 A 
ATOM      9  C   UNL     1     111.041 128.949 142.941  0.00  0.00    +0.000 A 
ATOM     10  O   UNL     1     110.062 128.818 142.745  0.00  0.00    +0.000 OA
ATOM     11  O   UNL     1     112.111 126.964 141.546  0.00  0.00    +0.000 OA
ATOM     12  O   UNL     1     110.852 126.076 140.751  0.00  0.00    +0.000 OA
ENDROOT
BRANCH   9  13
ATOM     13  C   UNL     1     111.331 129.697 143.535  0.00  0.00    +0.000 A 
ATOM     14  C   UNL     1     111.545 130.600 143.143  0.00  0.00    +0.000 A 
ATOM     15  C   UNL     1     111.835 131.345 143.745  0.00  0.00    +0.000 A 
ATOM     16  C   UNL     1     111.912 131.194 144.733  0.00  0.00    +0.000 A 
ATOM     17  C   UNL     1     111.697 130.290 145.122  0.00  0.00    +0.000 A 
ATOM     18  C   UNL     1     111.406 129.544 144.517  0.00  0.00    +0.000 A 
BRANCH  16  19
ATOM     19  O   UNL     1     112.201 131.939 145.334  0.00  0.00    +0.000 OA
BRANCH  19  24
ATOM     20  C   UNL     1     109.926 133.007 146.092  0.00  0.00    +0.000 C 
ATOM     21  C   UNL     1     110.168 133.349 146.996  0.00  0.00    +0.000 C 
ATOM     22  C   UNL     1     111.087 133.220 147.343  0.00  0.00    +0.000 C 
ATOM     23  C   UNL     1     111.768 132.752 146.795  0.00  0.00    +0.000 C 
ATOM     24  C   UNL     1     111.526 132.409 145.891  0.00  0.00    +0.000 C 
ATOM     25  O   UNL     1     110.604 132.535 145.536  0.00  0.00    +0.000 OA
ATOM     26  O   UNL     1     112.691 132.624 147.147  0.00  0.00    +0.000 OA
ATOM     27  O   UNL     1     111.329 133.562 148.247  0.00  0.00    +0.000 OA
ATOM     28  O   UNL     1     109.486 133.821 147.551  0.00  0.00    +0.000 OA
ATOM     29  C   UNL     1     109.002 133.137 145.744  0.00  0.00    +0.000 C 
ENDBRANCH  19  24
ENDBRANCH  16  19
ENDBRANCH   9  13
BRANCH   1  30
ATOM     30  O   UNL     1     107.542 127.048 141.158  0.00  0.00    +0.000 OA
BRANCH  30  35
ATOM     31  C   UNL     1     106.393 125.957 143.266  0.00  0.00    +0.000 C 
ATOM     32  C   UNL     1     105.910 125.187 142.845  0.00  0.00    +0.000 C 
ATOM     33  C   UNL     1     105.974 125.041 141.862  0.00  0.00    +0.000 C 
ATOM     34  C   UNL     1     106.515 125.656 141.296  0.00  0.00    +0.000 C 
ATOM     35  C   UNL     1     106.997 126.426 141.717  0.00  0.00    +0.000 C 
ATOM     36  O   UNL     1     106.938 126.580 142.705  0.00  0.00    +0.000 OA
ATOM     37  O   UNL     1     106.576 125.505 140.308  0.00  0.00    +0.000 OA
ATOM     38  O   UNL     1     105.491 124.271 141.441  0.00  0.00    +0.000 OA
ATOM     39  O   UNL     1     105.365 124.566 143.411  0.00  0.00    +0.000 OA
BRANCH  31  40
ATOM     40  C   UNL     1     106.329 126.104 144.254  0.00  0.00    +0.000 C 
ATOM     41  O   UNL     1     107.079 126.551 144.744  0.00  0.00    +0.000 OA
ENDBRANCH  31  40
ENDBRANCH  30  35
ENDBRANCH   1  30
TORSDOF 6
ENDMDL
MODEL 3
REMARK VINA RESULT:      -9.7      1.939      2.161
REMARK  Name = 
REMARK  6 active torsions:
REMARK  status: ('A' for Active; 'I' for Inactive)
REMARK    1  A    between atoms: C_5  and  O_7
REMARK    2  A    between atoms: O_7  and  C_37
REMARK    3  A    between atoms: C_12  and  C_22
REMARK    4  A    between atoms: C_16  and  O_18
REMARK    5  A    between atoms: O_18  and  C_24
REMARK    6  A    between atoms: C_32  and  C_34
REMARK                            x       y       z     vdW  Elec       q    Type
REMARK                         _______ _______ _______ _____ _____    ______ ____
ROOT
ATOM      1  C   UNL     1     103.132 130.977 143.148  0.00  0.00    +0.000 A 
ATOM      2  C   UNL     1     103.074 130.816 142.158  0.00  0.00    +0.000 A 
ATOM      3  C   UNL     1     103.528 130.021 141.750  0.00  0.00    +0.000 A 
ATOM      4  C   UNL     1     103.642 130.347 143.728  0.00  0.00    +0.000 A 
ATOM      5  C   UNL     1     104.099 129.548 143.326  0.00  0.00    +0.000 A 
ATOM      6  C   UNL     1     104.040 129.390 142.341  0.00  0.00    +0.000 A 
ATOM      7  C   UNL     1     104.497 128.592 141.937  0.00  0.00    +0.000 A 
ATOM      8  C   UNL     1     105.009 127.958 142.518  0.00  0.00    +0.000 A 
ATOM      9  C   UNL     1     105.066 128.121 143.508  0.00  0.00    +0.000 A 
ATOM     10  O   UNL     1     104.609 128.920 143.917  0.00  0.00    +0.000 OA
ATOM     11  O   UNL     1     104.439 128.430 140.950  0.00  0.00    +0.000 OA
ATOM     12  O   UNL     1     103.472 129.857 140.763  0.00  0.00    +0.000 OA
ENDROOT
BRANCH   9  13
ATOM     13  C   UNL     1     105.576 127.491 144.090  0.00  0.00    +0.000 A 
ATOM     14  C   UNL     1     105.587 126.506 143.881  0.00  0.00    +0.000 A 
ATOM     15  C   UNL     1     106.100 125.880 144.469  0.00  0.00    +0.000 A 
ATOM     16  C   UNL     1     106.602 126.232 145.262  0.00  0.00    +0.000 A 
ATOM     17  C   UNL     1     106.590 127.217 145.469  0.00  0.00    +0.000 A 
ATOM     18  C   UNL     1     106.074 127.844 144.878  0.00  0.00    +0.000 A 
BRANCH  16  19
ATOM     19  O   UNL     1     107.115 125.606 145.850  0.00  0.00    +0.000 OA
BRANCH  19  24
ATOM     20  C   UNL     1     105.350 124.887 147.655  0.00  0.00    +0.000 C 
ATOM     21  C   UNL     1     105.935 124.743 148.448  0.00  0.00    +0.000 C 
ATOM     22  C   UNL     1     106.913 124.888 148.373  0.00  0.00    +0.000 C 
ATOM     23  C   UNL     1     107.311 125.175 147.511  0.00  0.00    +0.000 C 
ATOM     24  C   UNL     1     106.725 125.318 146.718  0.00  0.00    +0.000 C 
ATOM     25  O   UNL     1     105.742 125.175 146.786  0.00  0.00    +0.000 OA
ATOM     26  O   UNL     1     108.294 125.319 147.439  0.00  0.00    +0.000 OA
ATOM     27  O   UNL     1     107.499 124.744 149.165  0.00  0.00    +0.000 OA
ATOM     28  O   UNL     1     105.539 124.454 149.317  0.00  0.00    +0.000 OA
ATOM     29  C   UNL     1     104.367 124.741 147.732  0.00  0.00    +0.000 C 
ENDBRANCH  19  24
ENDBRANCH  16  19
ENDBRANCH   9  13
BRANCH   1  30
ATOM     30  O   UNL     1     102.677 131.772 143.550  0.00  0.00    +0.000 OA
BRANCH  30  35
ATOM     31  C   UNL     1     104.657 133.492 143.829  0.00  0.00    +0.000 C 
ATOM     32  C   UNL     1     104.302 134.076 144.561  0.00  0.00    +0.000 C 
ATOM     33  C   UNL     1     103.406 133.889 144.953  0.00  0.00    +0.000 C 
ATOM     34  C   UNL     1     102.861 133.125 144.621  0.00  0.00    +0.000 C 
ATOM     35  C   UNL     1     103.215 132.540 143.890  0.00  0.00    +0.000 C 
ATOM     36  O   UNL     1     104.116 132.721 143.490  0.00  0.00    +0.000 OA
ATOM     37  O   UNL     1     101.960 132.941 145.019  0.00  0.00    +0.000 OA
ATOM     38  O   UNL     1     103.052 134.473 145.685  0.00  0.00    +0.000 OA
ATOM     39  O   UNL     1     104.847 134.846 144.897  0.00  0.00    +0.000 OA
BRANCH  31  40
ATOM     40  C   UNL     1     105.558 133.679 143.434  0.00  0.00    +0.000 C 
ATOM     41  O   UNL     1     105.835 133.233 142.582  0.00  0.00    +0.000 OA
ENDBRANCH  31  40
ENDBRANCH  30  35
ENDBRANCH   1  30
TORSDOF 6
ENDMDL
MODEL 4
REMARK VINA RESULT:      -9.6      3.499      8.478
REMARK  Name = 
REMARK  6 active torsions:
REMARK  status: ('A' for Active; 'I' for Inactive)
REMARK    1  A    between atoms: C_5  and  O_7
REMARK    2  A    between atoms: O_7  and  C_37
REMARK    3  A    between atoms: C_12  and  C_22
REMARK    4  A    between atoms: C_16  and  O_18
REMARK    5  A    between atoms: O_18  and  C_24
REMARK    6  A    between atoms: C_32  and  C_34
REMARK                            x       y       z     vdW  Elec       q    Type
REMARK                         _______ _______ _______ _____ _____    ______ ____
ROOT
ATOM      1  C   UNL     1     104.760 124.997 148.106  0.00  0.00    +0.000 A 
ATOM      2  C   UNL     1     105.566 124.499 148.441  0.00  0.00    +0.000 A 
ATOM      3  C   UNL     1     106.487 124.811 148.199  0.00  0.00    +0.000 A 
ATOM      4  C   UNL     1     104.874 125.803 147.531  0.00  0.00    +0.000 A 
ATOM      5  C   UNL     1     105.794 126.122 147.285  0.00  0.00    +0.000 A 
ATOM      6  C   UNL     1     106.593 125.625 147.620  0.00  0.00    +0.000 A 
ATOM      7  C   UNL     1     107.515 125.942 147.374  0.00  0.00    +0.000 A 
ATOM      8  C   UNL     1     107.632 126.752 146.797  0.00  0.00    +0.000 A 
ATOM      9  C   UNL     1     106.824 127.248 146.463  0.00  0.00    +0.000 A 
ATOM     10  O   UNL     1     105.898 126.933 146.707  0.00  0.00    +0.000 OA
ATOM     11  O   UNL     1     108.319 125.446 147.708  0.00  0.00    +0.000 OA
ATOM     12  O   UNL     1     107.293 124.317 148.532  0.00  0.00    +0.000 OA
ENDROOT
BRANCH   9  13
ATOM     13  C   UNL     1     106.936 128.055 145.888  0.00  0.00    +0.000 A 
ATOM     14  C   UNL     1     107.690 128.700 146.062  0.00  0.00    +0.000 A 
ATOM     15  C   UNL     1     107.796 129.507 145.481  0.00  0.00    +0.000 A 
ATOM     16  C   UNL     1     107.156 129.674 144.729  0.00  0.00    +0.000 A 
ATOM     17  C   UNL     1     106.403 129.028 144.556  0.00  0.00    +0.000 A 
ATOM     18  C   UNL     1     106.297 128.219 145.140  0.00  0.00    +0.000 A 
BRANCH  16  19
ATOM     19  O   UNL     1     107.262 130.482 144.148  0.00  0.00    +0.000 OA
BRANCH  19  24
ATOM     20  C   UNL     1     108.331 129.593 141.920  0.00  0.00    +0.000 C 
ATOM     21  C   UNL     1     107.833 130.128 141.243  0.00  0.00    +0.000 C 
ATOM     22  C   UNL     1     107.146 130.779 141.536  0.00  0.00    +0.000 C 
ATOM     23  C   UNL     1     106.951 130.901 142.501  0.00  0.00    +0.000 C 
ATOM     24  C   UNL     1     107.449 130.367 143.178  0.00  0.00    +0.000 C 
ATOM     25  O   UNL     1     108.141 129.710 142.891  0.00  0.00    +0.000 OA
ATOM     26  O   UNL     1     106.260 131.557 142.792  0.00  0.00    +0.000 OA
ATOM     27  O   UNL     1     106.648 131.314 140.860  0.00  0.00    +0.000 OA
ATOM     28  O   UNL     1     108.025 130.008 140.272  0.00  0.00    +0.000 OA
ATOM     29  C   UNL     1     109.021 128.939 141.625  0.00  0.00    +0.000 C 
ENDBRANCH  19  24
ENDBRANCH  16  19
ENDBRANCH   9  13
BRANCH   1  30
ATOM     30  O   UNL     1     103.843 124.681 148.351  0.00  0.00    +0.000 OA
BRANCH  30  35
ATOM     31  C   UNL     1     103.129 123.270 146.240  0.00  0.00    +0.000 C 
ATOM     32  C   UNL     1     102.132 123.322 146.302  0.00  0.00    +0.000 C 
ATOM     33  C   UNL     1     101.708 123.827 147.049  0.00  0.00    +0.000 C 
ATOM     34  C   UNL     1     102.272 124.281 147.733  0.00  0.00    +0.000 C 
ATOM     35  C   UNL     1     103.270 124.229 147.670  0.00  0.00    +0.000 C 
ATOM     36  O   UNL     1     103.703 123.723 146.923  0.00  0.00    +0.000 OA
ATOM     37  O   UNL     1     101.841 124.788 148.481  0.00  0.00    +0.000 OA
ATOM     38  O   UNL     1     100.710 123.879 147.112  0.00  0.00    +0.000 OA
ATOM     39  O   UNL     1     101.560 122.867 145.616  0.00  0.00    +0.000 OA
BRANCH  31  40
ATOM     40  C   UNL     1     103.556 122.762 145.489  0.00  0.00    +0.000 C 
ATOM     41  O   UNL     1     104.550 122.775 145.377  0.00  0.00    +0.000 OA
ENDBRANCH  31  40
ENDBRANCH  30  35
ENDBRANCH   1  30
TORSDOF 6
ENDMDL
MODEL 5
REMARK VINA RESULT:      -9.5      3.005      8.340
REMARK  Name = 
REMARK  6 active torsions:
REMARK  status: ('A' for Active; 'I' for Inactive)
REMARK    1  A    between atoms: C_5  and  O_7
REMARK    2  A    between atoms: O_7  and  C_37
REMARK    3  A    between atoms: C_12  and  C_22
REMARK    4  A    between atoms: C_16  and  O_18
REMARK    5  A    between atoms: O_18  and  C_24
REMARK    6  A    between atoms: C_32  and  C_34
REMARK                            x       y       z     vdW  Elec       q    Type
REMARK                         _______ _______ _______ _____ _____    ______ ____
ROOT
ATOM      1  C   UNL     1     104.686 124.989 147.807  0.00  0.00    +0.000 A 
ATOM      2  C   UNL     1     105.537 124.518 148.058  0.00  0.00    +0.000 A 
ATOM      3  C   UNL     1     106.424 124.934 147.845  0.00  0.00    +0.000 A 
ATOM      4  C   UNL     1     104.720 125.872 147.345  0.00  0.00    +0.000 A 
ATOM      5  C   UNL     1     105.606 126.295 147.129  0.00  0.00    +0.000 A 
ATOM      6  C   UNL     1     106.451 125.824 147.380  0.00  0.00    +0.000 A 
ATOM      7  C   UNL     1     107.337 126.245 147.164  0.00  0.00    +0.000 A 
ATOM      8  C   UNL     1     107.375 127.132 146.701  0.00  0.00    +0.000 A 
ATOM      9  C   UNL     1     106.522 127.601 146.451  0.00  0.00    +0.000 A 
ATOM     10  O   UNL     1     105.631 127.182 146.665  0.00  0.00    +0.000 OA
ATOM     11  O   UNL     1     108.187 125.776 147.414  0.00  0.00    +0.000 OA
ATOM     12  O   UNL     1     107.275 124.467 148.094  0.00  0.00    +0.000 OA
ENDROOT
BRANCH   9  13
ATOM     13  C   UNL     1     106.554 128.485 145.989  0.00  0.00    +0.000 A 
ATOM     14  C   UNL     1     106.726 128.531 144.998  0.00  0.00    +0.000 A 
ATOM     15  C   UNL     1     106.758 129.421 144.541  0.00  0.00    +0.000 A 
ATOM     16  C   UNL     1     106.619 130.262 145.068  0.00  0.00    +0.000 A 
ATOM     17  C   UNL     1     106.448 130.213 146.059  0.00  0.00    +0.000 A 
ATOM     18  C   UNL     1     106.417 129.320 146.515  0.00  0.00    +0.000 A 
BRANCH  16  19
ATOM     19  O   UNL     1     106.651 131.152 144.612  0.00  0.00    +0.000 OA
BRANCH  19  24
ATOM     20  C   UNL     1     104.217 131.348 143.646  0.00  0.00    +0.000 C 
ATOM     21  C   UNL     1     104.358 132.001 142.907  0.00  0.00    +0.000 C 
ATOM     22  C   UNL     1     105.262 132.370 142.738  0.00  0.00    +0.000 C 
ATOM     23  C   UNL     1     106.029 132.091 143.302  0.00  0.00    +0.000 C 
ATOM     24  C   UNL     1     105.889 131.437 144.041  0.00  0.00    +0.000 C 
ATOM     25  O   UNL     1     104.983 131.063 144.217  0.00  0.00    +0.000 OA
ATOM     26  O   UNL     1     106.937 132.463 143.130  0.00  0.00    +0.000 OA
ATOM     27  O   UNL     1     105.403 133.023 141.999  0.00  0.00    +0.000 OA
ATOM     28  O   UNL     1     103.589 132.284 142.338  0.00  0.00    +0.000 OA
ATOM     29  C   UNL     1     103.308 130.978 143.815  0.00  0.00    +0.000 C 
ENDBRANCH  19  24
ENDBRANCH  16  19
ENDBRANCH   9  13
BRANCH   1  30
ATOM     30  O   UNL     1     103.804 124.570 148.021  0.00  0.00    +0.000 OA
BRANCH  30  35
ATOM     31  C   UNL     1     103.235 123.199 145.841  0.00  0.00    +0.000 C 
ATOM     32  C   UNL     1     102.234 123.199 145.870  0.00  0.00    +0.000 C 
ATOM     33  C   UNL     1     101.760 123.656 146.617  0.00  0.00    +0.000 C 
ATOM     34  C   UNL     1     102.277 124.114 147.335  0.00  0.00    +0.000 C 
ATOM     35  C   UNL     1     103.277 124.114 147.306  0.00  0.00    +0.000 C 
ATOM     36  O   UNL     1     103.761 123.657 146.559  0.00  0.00    +0.000 OA
ATOM     37  O   UNL     1     101.796 124.573 148.084  0.00  0.00    +0.000 OA
ATOM     38  O   UNL     1     100.760 123.656 146.646  0.00  0.00    +0.000 OA
ATOM     39  O   UNL     1     101.711 122.740 145.150  0.00  0.00    +0.000 OA
BRANCH  31  40
ATOM     40  C   UNL     1     103.712 122.739 145.090  0.00  0.00    +0.000 C 
ATOM     41  O   UNL     1     104.578 123.107 144.747  0.00  0.00    +0.000 OA
ENDBRANCH  31  40
ENDBRANCH  30  35
ENDBRANCH   1  30
TORSDOF 6
ENDMDL
MODEL 6
REMARK VINA RESULT:      -9.5      8.568     10.709
REMARK  Name = 
REMARK  6 active torsions:
REMARK  status: ('A' for Active; 'I' for Inactive)
REMARK    1  A    between atoms: C_5  and  O_7
REMARK    2  A    between atoms: O_7  and  C_37
REMARK    3  A    between atoms: C_12  and  C_22
REMARK    4  A    between atoms: C_16  and  O_18
REMARK    5  A    between atoms: O_18  and  C_24
REMARK    6  A    between atoms: C_32  and  C_34
REMARK                            x       y       z     vdW  Elec       q    Type
REMARK                         _______ _______ _______ _____ _____    ______ ____
ROOT
ATOM      1  C   UNL     1     112.561 127.999 136.683  0.00  0.00    +0.000 A 
ATOM      2  C   UNL     1     113.254 128.634 136.330  0.00  0.00    +0.000 A 
ATOM      3  C   UNL     1     113.593 129.380 136.907  0.00  0.00    +0.000 A 
ATOM      4  C   UNL     1     112.207 128.108 137.609  0.00  0.00    +0.000 A 
ATOM      5  C   UNL     1     112.542 128.854 138.193  0.00  0.00    +0.000 A 
ATOM      6  C   UNL     1     113.232 129.484 137.839  0.00  0.00    +0.000 A 
ATOM      7  C   UNL     1     113.569 130.231 138.422  0.00  0.00    +0.000 A 
ATOM      8  C   UNL     1     113.215 130.342 139.352  0.00  0.00    +0.000 A 
ATOM      9  C   UNL     1     112.521 129.705 139.702  0.00  0.00    +0.000 A 
ATOM     10  O   UNL     1     112.181 128.955 139.122  0.00  0.00    +0.000 OA
ATOM     11  O   UNL     1     114.260 130.865 138.071  0.00  0.00    +0.000 OA
ATOM     12  O   UNL     1     114.285 130.016 136.559  0.00  0.00    +0.000 OA
ENDROOT
BRANCH   9  13
ATOM     13  C   UNL     1     112.167 129.813 140.629  0.00  0.00    +0.000 A 
ATOM     14  C   UNL     1     111.300 130.302 140.785  0.00  0.00    +0.000 A 
ATOM     15  C   UNL     1     110.951 130.407 141.716  0.00  0.00    +0.000 A 
ATOM     16  C   UNL     1     111.460 130.026 142.491  0.00  0.00    +0.000 A 
ATOM     17  C   UNL     1     112.326 129.538 142.332  0.00  0.00    +0.000 A 
ATOM     18  C   UNL     1     112.675 129.434 141.398  0.00  0.00    +0.000 A 
BRANCH  16  19
ATOM     19  O   UNL     1     111.110 130.131 143.422  0.00  0.00    +0.000 OA
BRANCH  19  24
ATOM     20  C   UNL     1     111.997 132.465 144.233  0.00  0.00    +0.000 C 
ATOM     21  C   UNL     1     112.238 132.260 145.177  0.00  0.00    +0.000 C 
ATOM     22  C   UNL     1     112.103 131.345 145.534  0.00  0.00    +0.000 C 
ATOM     23  C   UNL     1     111.728 130.633 144.955  0.00  0.00    +0.000 C 
ATOM     24  C   UNL     1     111.487 130.838 144.011  0.00  0.00    +0.000 C 
ATOM     25  O   UNL     1     111.620 131.755 143.645  0.00  0.00    +0.000 OA
ATOM     26  O   UNL     1     111.593 129.715 145.317  0.00  0.00    +0.000 OA
ATOM     27  O   UNL     1     112.344 131.140 146.479  0.00  0.00    +0.000 OA
ATOM     28  O   UNL     1     112.616 132.974 145.763  0.00  0.00    +0.000 OA
ATOM     29  C   UNL     1     112.134 133.385 143.875  0.00  0.00    +0.000 C 
ENDBRANCH  19  24
ENDBRANCH  16  19
ENDBRANCH   9  13
BRANCH   1  30
ATOM     30  O   UNL     1     112.226 127.256 136.103  0.00  0.00    +0.000 OA
BRANCH  30  35
ATOM     31  C   UNL     1     113.575 125.158 136.960  0.00  0.00    +0.000 C 
ATOM     32  C   UNL     1     112.936 124.418 136.746  0.00  0.00    +0.000 C 
ATOM     33  C   UNL     1     112.062 124.627 136.318  0.00  0.00    +0.000 C 
ATOM     34  C   UNL     1     111.820 125.569 136.102  0.00  0.00    +0.000 C 
ATOM     35  C   UNL     1     112.459 126.309 136.316  0.00  0.00    +0.000 C 
ATOM     36  O   UNL     1     113.340 126.107 136.746  0.00  0.00    +0.000 OA
ATOM     37  O   UNL     1     110.939 125.775 135.671  0.00  0.00    +0.000 OA
ATOM     38  O   UNL     1     111.422 123.887 136.103  0.00  0.00    +0.000 OA
ATOM     39  O   UNL     1     113.175 123.469 136.961  0.00  0.00    +0.000 OA
BRANCH  31  40
ATOM     40  C   UNL     1     114.455 124.948 137.390  0.00  0.00    +0.000 C 
ATOM     41  O   UNL     1     114.767 125.479 138.179  0.00  0.00    +0.000 OA
ENDBRANCH  31  40
ENDBRANCH  30  35
ENDBRANCH   1  30
TORSDOF 6
ENDMDL
MODEL 7
REMARK VINA RESULT:      -9.5      6.709      7.763
REMARK  Name = 
REMARK  6 active torsions:
REMARK  status: ('A' for Active; 'I' for Inactive)
REMARK    1  A    between atoms: C_5  and  O_7
REMARK    2  A    between atoms: O_7  and  C_37
REMARK    3  A    between atoms: C_12  and  C_22
REMARK    4  A    between atoms: C_16  and  O_18
REMARK    5  A    between atoms: O_18  and  C_24
REMARK    6  A    between atoms: C_32  and  C_34
REMARK                            x       y       z     vdW  Elec       q    Type
REMARK                         _______ _______ _______ _____ _____    ______ ____
ROOT
ATOM      1  C   UNL     1     109.566 129.575 138.480  0.00  0.00    +0.000 A 
ATOM      2  C   UNL     1     110.211 128.905 138.098  0.00  0.00    +0.000 A 
ATOM      3  C   UNL     1     110.986 128.583 138.646  0.00  0.00    +0.000 A 
ATOM      4  C   UNL     1     109.694 129.921 139.406  0.00  0.00    +0.000 A 
ATOM      5  C   UNL     1     110.469 129.602 139.961  0.00  0.00    +0.000 A 
ATOM      6  C   UNL     1     111.108 128.937 139.579  0.00  0.00    +0.000 A 
ATOM      7  C   UNL     1     111.883 128.617 140.133  0.00  0.00    +0.000 A 
ATOM      8  C   UNL     1     112.014 128.963 141.063  0.00  0.00    +0.000 A 
ATOM      9  C   UNL     1     111.368 129.633 141.443  0.00  0.00    +0.000 A 
ATOM     10  O   UNL     1     110.589 129.956 140.891  0.00  0.00    +0.000 OA
ATOM     11  O   UNL     1     112.527 127.950 139.753  0.00  0.00    +0.000 OA
ATOM     12  O   UNL     1     111.631 127.916 138.269  0.00  0.00    +0.000 OA
ENDROOT
BRANCH   9  13
ATOM     13  C   UNL     1     111.495 129.980 142.369  0.00  0.00    +0.000 A 
ATOM     14  C   UNL     1     111.276 129.399 143.162  0.00  0.00    +0.000 A 
ATOM     15  C   UNL     1     111.406 129.754 144.088  0.00  0.00    +0.000 A 
ATOM     16  C   UNL     1     111.752 130.684 144.227  0.00  0.00    +0.000 A 
ATOM     17  C   UNL     1     111.971 131.263 143.433  0.00  0.00    +0.000 A 
ATOM     18  C   UNL     1     111.840 130.905 142.505  0.00  0.00    +0.000 A 
BRANCH  16  19
ATOM     19  O   UNL     1     111.882 131.039 145.153  0.00  0.00    +0.000 OA
BRANCH  19  24
ATOM     20  C   UNL     1     109.563 132.118 145.744  0.00  0.00    +0.000 C 
ATOM     21  C   UNL     1     109.849 132.887 146.309  0.00  0.00    +0.000 C 
ATOM     22  C   UNL     1     110.812 133.038 146.487  0.00  0.00    +0.000 C 
ATOM     23  C   UNL     1     111.493 132.426 146.105  0.00  0.00    +0.000 C 
ATOM     24  C   UNL     1     111.207 131.657 145.540  0.00  0.00    +0.000 C 
ATOM     25  O   UNL     1     110.241 131.499 145.357  0.00  0.00    +0.000 OA
ATOM     26  O   UNL     1     112.460 132.581 146.287  0.00  0.00    +0.000 OA
ATOM     27  O   UNL     1     111.098 133.807 147.052  0.00  0.00    +0.000 OA
ATOM     28  O   UNL     1     109.167 133.505 146.694  0.00  0.00    +0.000 OA
ATOM     29  C   UNL     1     108.595 131.968 145.565  0.00  0.00    +0.000 C 
ENDBRANCH  19  24
ENDBRANCH  16  19
ENDBRANCH   9  13
BRANCH   1  30
ATOM     30  O   UNL     1     108.795 129.893 137.928  0.00  0.00    +0.000 OA
BRANCH  30  35
ATOM     31  C   UNL     1     109.643 132.135 136.828  0.00  0.00    +0.000 C 
ATOM     32  C   UNL     1     109.184 132.098 135.939  0.00  0.00    +0.000 C 
ATOM     33  C   UNL     1     108.596 131.325 135.716  0.00  0.00    +0.000 C 
ATOM     34  C   UNL     1     108.463 130.589 136.374  0.00  0.00    +0.000 C 
ATOM     35  C   UNL     1     108.922 130.625 137.263  0.00  0.00    +0.000 C 
ATOM     36  O   UNL     1     109.514 131.399 137.494  0.00  0.00    +0.000 OA
ATOM     37  O   UNL     1     107.872 129.813 136.146  0.00  0.00    +0.000 OA
ATOM     38  O   UNL     1     108.138 131.288 134.827  0.00  0.00    +0.000 OA
ATOM     39  O   UNL     1     109.315 132.836 135.274  0.00  0.00    +0.000 OA
BRANCH  31  40
ATOM     40  C   UNL     1     110.234 132.911 137.052  0.00  0.00    +0.000 C 
ATOM     41  O   UNL     1     110.370 133.179 138.007  0.00  0.00    +0.000 OA
ENDBRANCH  31  40
ENDBRANCH  30  35
ENDBRANCH   1  30
TORSDOF 6
ENDMDL
MODEL 8
REMARK VINA RESULT:      -9.5      4.685      7.034
REMARK  Name = 
REMARK  6 active torsions:
REMARK  status: ('A' for Active; 'I' for Inactive)
REMARK    1  A    between atoms: C_5  and  O_7
REMARK    2  A    between atoms: O_7  and  C_37
REMARK    3  A    between atoms: C_12  and  C_22
REMARK    4  A    between atoms: C_16  and  O_18
REMARK    5  A    between atoms: O_18  and  C_24
REMARK    6  A    between atoms: C_32  and  C_34
REMARK                            x       y       z     vdW  Elec       q    Type
REMARK                         _______ _______ _______ _____ _____    ______ ____
ROOT
ATOM      1  C   UNL     1     110.394 129.526 142.264  0.00  0.00    +0.000 A 
ATOM      2  C   UNL     1     109.985 130.095 141.544  0.00  0.00    +0.000 A 
ATOM      3  C   UNL     1     109.006 130.023 141.340  0.00  0.00    +0.000 A 
ATOM      4  C   UNL     1     109.827 128.887 142.778  0.00  0.00    +0.000 A 
ATOM      5  C   UNL     1     108.846 128.809 142.579  0.00  0.00    +0.000 A 
ATOM      6  C   UNL     1     108.442 129.377 141.863  0.00  0.00    +0.000 A 
ATOM      7  C   UNL     1     107.460 129.301 141.662  0.00  0.00    +0.000 A 
ATOM      8  C   UNL     1     106.889 128.660 142.178  0.00  0.00    +0.000 A 
ATOM      9  C   UNL     1     107.301 128.091 142.897  0.00  0.00    +0.000 A 
ATOM     10  O   UNL     1     108.284 128.165 143.101  0.00  0.00    +0.000 OA
ATOM     11  O   UNL     1     107.051 129.868 140.945  0.00  0.00    +0.000 OA
ATOM     12  O   UNL     1     108.595 130.589 140.623  0.00  0.00    +0.000 OA
ENDROOT
BRANCH   9  13
ATOM     13  C   UNL     1     106.735 127.451 143.413  0.00  0.00    +0.000 A 
ATOM     14  C   UNL     1     106.736 126.472 143.178  0.00  0.00    +0.000 A 
ATOM     15  C   UNL     1     106.166 125.836 143.699  0.00  0.00    +0.000 A 
ATOM     16  C   UNL     1     105.597 126.172 144.452  0.00  0.00    +0.000 A 
ATOM     17  C   UNL     1     105.597 127.152 144.686  0.00  0.00    +0.000 A 
ATOM     18  C   UNL     1     106.169 127.788 144.162  0.00  0.00    +0.000 A 
BRANCH  16  19
ATOM     19  O   UNL     1     105.027 125.536 144.974  0.00  0.00    +0.000 OA
BRANCH  19  24
ATOM     20  C   UNL     1     106.513 125.118 147.098  0.00  0.00    +0.000 C 
ATOM     21  C   UNL     1     105.830 124.794 147.747  0.00  0.00    +0.000 C 
ATOM     22  C   UNL     1     104.881 124.719 147.470  0.00  0.00    +0.000 C 
ATOM     23  C   UNL     1     104.608 124.964 146.549  0.00  0.00    +0.000 C 
ATOM     24  C   UNL     1     105.291 125.288 145.899  0.00  0.00    +0.000 C 
ATOM     25  O   UNL     1     106.246 125.366 146.171  0.00  0.00    +0.000 OA
ATOM     26  O   UNL     1     103.654 124.887 146.274  0.00  0.00    +0.000 OA
ATOM     27  O   UNL     1     104.199 124.395 148.119  0.00  0.00    +0.000 OA
ATOM     28  O   UNL     1     106.101 124.546 148.675  0.00  0.00    +0.000 OA
ATOM     29  C   UNL     1     107.466 125.193 147.377  0.00  0.00    +0.000 C 
ENDBRANCH  19  24
ENDBRANCH  16  19
ENDBRANCH   9  13
BRANCH   1  30
ATOM     30  O   UNL     1     111.371 129.602 142.463  0.00  0.00    +0.000 OA
BRANCH  30  35
ATOM     31  C   UNL     1     112.494 127.620 141.133  0.00  0.00    +0.000 C 
ATOM     32  C   UNL     1     113.355 128.044 140.848  0.00  0.00    +0.000 C 
ATOM     33  C   UNL     1     113.551 128.987 141.102  0.00  0.00    +0.000 C 
ATOM     34  C   UNL     1     112.895 129.510 141.638  0.00  0.00    +0.000 C 
ATOM     35  C   UNL     1     112.034 129.086 141.924  0.00  0.00    +0.000 C 
ATOM     36  O   UNL     1     111.830 128.138 141.673  0.00  0.00    +0.000 OA
ATOM     37  O   UNL     1     113.096 130.458 141.892  0.00  0.00    +0.000 OA
ATOM     38  O   UNL     1     114.412 129.411 140.816  0.00  0.00    +0.000 OA
ATOM     39  O   UNL     1     114.018 127.521 140.307  0.00  0.00    +0.000 OA
BRANCH  31  40
ATOM     40  C   UNL     1     112.297 126.672 140.878  0.00  0.00    +0.000 C 
ATOM     41  O   UNL     1     111.588 126.159 141.364  0.00  0.00    +0.000 OA
ENDBRANCH  31  40
ENDBRANCH  30  35
ENDBRANCH   1  30
TORSDOF 6
ENDMDL
MODEL 9
REMARK VINA RESULT:      -9.4      4.849      7.954
REMARK  Name = 
REMARK  6 active torsions:
REMARK  status: ('A' for Active; 'I' for Inactive)
REMARK    1  A    between atoms: C_5  and  O_7
REMARK    2  A    between atoms: O_7  and  C_37
REMARK    3  A    between atoms: C_12  and  C_22
REMARK    4  A    between atoms: C_16  and  O_18
REMARK    5  A    between atoms: O_18  and  C_24
REMARK    6  A    between atoms: C_32  and  C_34
REMARK                            x       y       z     vdW  Elec       q    Type
REMARK                         _______ _______ _______ _____ _____    ______ ____
ROOT
ATOM      1  C   UNL     1     105.856 126.306 144.194  0.00  0.00    +0.000 A 
ATOM      2  C   UNL     1     105.908 125.593 143.487  0.00  0.00    +0.000 A 
ATOM      3  C   UNL     1     106.553 125.685 142.726  0.00  0.00    +0.000 A 
ATOM      4  C   UNL     1     106.447 127.107 144.140  0.00  0.00    +0.000 A 
ATOM      5  C   UNL     1     107.097 127.205 143.380  0.00  0.00    +0.000 A 
ATOM      6  C   UNL     1     107.146 126.495 142.679  0.00  0.00    +0.000 A 
ATOM      7  C   UNL     1     107.795 126.592 141.918  0.00  0.00    +0.000 A 
ATOM      8  C   UNL     1     108.390 127.395 141.862  0.00  0.00    +0.000 A 
ATOM      9  C   UNL     1     108.336 128.107 142.570  0.00  0.00    +0.000 A 
ATOM     10  O   UNL     1     107.686 128.014 143.335  0.00  0.00    +0.000 OA
ATOM     11  O   UNL     1     107.848 125.882 141.213  0.00  0.00    +0.000 OA
ATOM     12  O   UNL     1     106.608 124.976 142.020  0.00  0.00    +0.000 OA
ENDROOT
BRANCH   9  13
ATOM     13  C   UNL     1     108.926 128.909 142.518  0.00  0.00    +0.000 A 
ATOM     14  C   UNL     1     108.529 129.821 142.363  0.00  0.00    +0.000 A 
ATOM     15  C   UNL     1     109.127 130.621 142.311  0.00  0.00    +0.000 A 
ATOM     16  C   UNL     1     110.118 130.516 142.414  0.00  0.00    +0.000 A 
ATOM     17  C   UNL     1     110.514 129.603 142.570  0.00  0.00    +0.000 A 
ATOM     18  C   UNL     1     109.912 128.801 142.621  0.00  0.00    +0.000 A 
BRANCH  16  19
ATOM     19  O   UNL     1     110.717 131.316 142.363  0.00  0.00    +0.000 OA
BRANCH  19  24
ATOM     20  C   UNL     1     110.751 132.245 144.819  0.00  0.00    +0.000 C 
ATOM     21  C   UNL     1     111.688 132.578 144.883  0.00  0.00    +0.000 C 
ATOM     22  C   UNL     1     112.298 132.490 144.107  0.00  0.00    +0.000 C 
ATOM     23  C   UNL     1     111.981 132.071 143.266  0.00  0.00    +0.000 C 
ATOM     24  C   UNL     1     111.044 131.737 143.202  0.00  0.00    +0.000 C 
ATOM     25  O   UNL     1     110.425 131.822 143.977  0.00  0.00    +0.000 OA
ATOM     26  O   UNL     1     112.597 131.984 142.489  0.00  0.00    +0.000 OA
ATOM     27  O   UNL     1     113.234 132.824 144.172  0.00  0.00    +0.000 OA
ATOM     28  O   UNL     1     112.011 133.001 145.727  0.00  0.00    +0.000 OA
ATOM     29  C   UNL     1     110.139 132.334 145.599  0.00  0.00    +0.000 C 
ENDBRANCH  19  24
ENDBRANCH  16  19
ENDBRANCH   9  13
BRANCH   1  30
ATOM     30  O   UNL     1     105.210 126.209 144.951  0.00  0.00    +0.000 OA
BRANCH  30  35
ATOM     31  C   UNL     1     106.664 125.340 146.972  0.00  0.00    +0.000 C 
ATOM     32  C   UNL     1     106.014 124.730 147.428  0.00  0.00    +0.000 C 
ATOM     33  C   UNL     1     105.097 124.616 147.056  0.00  0.00    +0.000 C 
ATOM     34  C   UNL     1     104.824 125.105 146.232  0.00  0.00    +0.000 C 
ATOM     35  C   UNL     1     105.474 125.715 145.776  0.00  0.00    +0.000 C 
ATOM     36  O   UNL     1     106.398 125.836 146.145  0.00  0.00    +0.000 OA
ATOM     37  O   UNL     1     103.902 124.986 145.861  0.00  0.00    +0.000 OA
ATOM     38  O   UNL     1     104.448 124.006 147.511  0.00  0.00    +0.000 OA
ATOM     39  O   UNL     1     106.285 124.236 148.257  0.00  0.00    +0.000 OA
BRANCH  31  40
ATOM     40  C   UNL     1     107.586 125.456 147.346  0.00  0.00    +0.000 C 
ATOM     41  O   UNL     1     108.093 126.302 147.178  0.00  0.00    +0.000 OA
ENDBRANCH  31  40
ENDBRANCH  30  35
ENDBRANCH   1  30
TORSDOF 6
ENDMDL
MODEL 10
REMARK VINA RESULT:      -9.4      4.287      6.094
REMARK  Name = 
REMARK  6 active torsions:
REMARK  status: ('A' for Active; 'I' for Inactive)
REMARK    1  A    between atoms: C_5  and  O_7
REMARK    2  A    between atoms: O_7  and  C_37
REMARK    3  A    between atoms: C_12  and  C_22
REMARK    4  A    between atoms: C_16  and  O_18
REMARK    5  A    between atoms: O_18  and  C_24
REMARK    6  A    between atoms: C_32  and  C_34
REMARK                            x       y       z     vdW  Elec       q    Type
REMARK                         _______ _______ _______ _____ _____    ______ ____
ROOT
ATOM      1  C   UNL     1     110.227 130.484 143.049  0.00  0.00    +0.000 A 
ATOM      2  C   UNL     1     109.910 130.919 142.201  0.00  0.00    +0.000 A 
ATOM      3  C   UNL     1     109.044 130.638 141.784  0.00  0.00    +0.000 A 
ATOM      4  C   UNL     1     109.680 129.769 143.479  0.00  0.00    +0.000 A 
ATOM      5  C   UNL     1     108.810 129.482 143.066  0.00  0.00    +0.000 A 
ATOM      6  C   UNL     1     108.498 129.917 142.223  0.00  0.00    +0.000 A 
ATOM      7  C   UNL     1     107.628 129.631 141.808  0.00  0.00    +0.000 A 
ATOM      8  C   UNL     1     107.077 128.914 142.238  0.00  0.00    +0.000 A 
ATOM      9  C   UNL     1     107.397 128.480 143.086  0.00  0.00    +0.000 A 
ATOM     10  O   UNL     1     108.268 128.764 143.505  0.00  0.00    +0.000 OA
ATOM     11  O   UNL     1     107.312 130.065 140.962  0.00  0.00    +0.000 OA
ATOM     12  O   UNL     1     108.725 131.070 140.938  0.00  0.00    +0.000 OA
ENDROOT
BRANCH   9  13
ATOM     13  C   UNL     1     106.851 127.765 143.517  0.00  0.00    +0.000 A 
ATOM     14  C   UNL     1     106.199 127.997 144.249  0.00  0.00    +0.000 A 
ATOM     15  C   UNL     1     105.655 127.275 144.677  0.00  0.00    +0.000 A 
ATOM     16  C   UNL     1     105.757 126.324 144.379  0.00  0.00    +0.000 A 
ATOM     17  C   UNL     1     106.409 126.093 143.647  0.00  0.00    +0.000 A 
ATOM     18  C   UNL     1     106.954 126.819 143.219  0.00  0.00    +0.000 A 
BRANCH  16  19
ATOM     19  O   UNL     1     105.213 125.602 144.807  0.00  0.00    +0.000 OA
BRANCH  19  24
ATOM     20  C   UNL     1     106.567 125.130 147.006  0.00  0.00    +0.000 C 
ATOM     21  C   UNL     1     105.857 124.739 147.586  0.00  0.00    +0.000 C 
ATOM     22  C   UNL     1     104.935 124.638 147.238  0.00  0.00    +0.000 C 
ATOM     23  C   UNL     1     104.715 124.923 146.314  0.00  0.00    +0.000 C 
ATOM     24  C   UNL     1     105.424 125.313 145.734  0.00  0.00    +0.000 C 
ATOM     25  O   UNL     1     106.353 125.419 146.077  0.00  0.00    +0.000 OA
ATOM     26  O   UNL     1     103.786 124.819 145.968  0.00  0.00    +0.000 OA
ATOM     27  O   UNL     1     104.226 124.247 147.819  0.00  0.00    +0.000 OA
ATOM     28  O   UNL     1     106.075 124.452 148.516  0.00  0.00    +0.000 OA
ATOM     29  C   UNL     1     107.494 125.232 147.357  0.00  0.00    +0.000 C 
ENDBRANCH  19  24
ENDBRANCH  16  19
ENDBRANCH   9  13
BRANCH   1  30
ATOM     30  O   UNL     1     111.092 130.769 143.461  0.00  0.00    +0.000 OA
BRANCH  30  35
ATOM     31  C   UNL     1     110.422 132.549 145.288  0.00  0.00    +0.000 C 
ATOM     32  C   UNL     1     111.188 133.190 145.222  0.00  0.00    +0.000 C 
ATOM     33  C   UNL     1     111.920 133.021 144.568  0.00  0.00    +0.000 C 
ATOM     34  C   UNL     1     111.894 132.217 143.980  0.00  0.00    +0.000 C 
ATOM     35  C   UNL     1     111.128 131.577 144.046  0.00  0.00    +0.000 C 
ATOM     36  O   UNL     1     110.388 131.739 144.701  0.00  0.00    +0.000 OA
ATOM     37  O   UNL     1     112.632 132.052 143.324  0.00  0.00    +0.000 OA
ATOM     38  O   UNL     1     112.686 133.662 144.502  0.00  0.00    +0.000 OA
ATOM     39  O   UNL     1     111.219 134.000 145.811  0.00  0.00    +0.000 OA
BRANCH  31  40
ATOM     40  C   UNL     1     109.686 132.719 145.945  0.00  0.00    +0.000 C 
ATOM     41  O   UNL     1     108.785 132.306 145.807  0.00  0.00    +0.000 OA
ENDBRANCH  31  40
ENDBRANCH  30  35
ENDBRANCH   1  30
TORSDOF 6
ENDMDL
