MODEL 1
REMARK VINA RESULT:      -7.7      0.000      0.000
REMARK  Name = 44259895
REMARK  5 active torsions:
REMARK  status: ('A' for Active; 'I' for Inactive)
REMARK    1  A    between atoms: O_2  and  C_14
REMARK    2  A    between atoms: O_3  and  C_18
REMARK    3  A    between atoms: O_6  and  C_22
REMARK    4  A    between atoms: O_8  and  C_23
REMARK    5  A    between atoms: C_11  and  C_13
REMARK                            x       y       z     vdW  Elec       q    Type
REMARK                         _______ _______ _______ _____ _____    ______ ____
ROOT
ATOM      1  O   UNL     1     113.410 126.774 136.714  0.00  0.00    +0.000 OA
ATOM      2  O   UNL     1     111.349 124.877 136.004  0.00  0.00    +0.000 OA
ATOM      3  O   UNL     1     111.174 126.289 135.770  0.00  0.00    +0.000 OA
ATOM      4  O   UNL     1     113.834 123.938 137.219  0.00  0.00    +0.000 OA
ATOM      5  C   UNL     1     112.392 125.835 136.364  0.00  0.00    +0.000 A 
ATOM      6  C   UNL     1     112.938 127.391 136.435  0.00  0.00    +0.000 A 
ATOM      7  C   UNL     1     113.137 125.997 136.679  0.00  0.00    +0.000 A 
ATOM      8  C   UNL     1     112.193 127.229 136.120  0.00  0.00    +0.000 A 
ATOM      9  C   UNL     1     111.920 126.451 136.085  0.00  0.00    +0.000 A 
ATOM     10  C   UNL     1     112.096 125.029 136.321  0.00  0.00    +0.000 A 
ATOM     11  C   UNL     1     113.639 125.363 136.973  0.00  0.00    +0.000 A 
ATOM     12  C   UNL     1     112.583 124.383 136.610  0.00  0.00    +0.000 A 
ATOM     13  C   UNL     1     113.360 124.552 136.939  0.00  0.00    +0.000 A 
ENDROOT
BRANCH   6  15
ATOM     14  O   UNL     1     112.777 128.258 137.830  0.00  0.00    +0.000 OA
ATOM     15  C   UNL     1     113.211 128.168 136.471  0.00  0.00    +0.000 A 
ATOM     16  C   UNL     1     113.130 128.602 137.168  0.00  0.00    +0.000 A 
ATOM     17  C   UNL     1     113.564 128.513 135.809  0.00  0.00    +0.000 A 
ATOM     18  C   UNL     1     113.837 129.290 135.845  0.00  0.00    +0.000 A 
ATOM     19  C   UNL     1     113.756 129.724 136.542  0.00  0.00    +0.000 A 
ATOM     20  C   UNL     1     113.403 129.380 137.204  0.00  0.00    +0.000 A 
BRANCH  18  21
ATOM     21  O   UNL     1     114.190 129.635 135.184  0.00  0.00    +0.000 OA
ATOM     22  C   UNL     1     114.635 129.173 134.666  0.00  0.00    +0.000 C 
ENDBRANCH  18  21
BRANCH  19  23
ATOM     23  O   UNL     1     114.029 130.502 136.578  0.00  0.00    +0.000 OA
ATOM     24  C   UNL     1     113.810 130.987 137.207  0.00  0.00    +0.000 C 
ENDBRANCH  19  23
ENDBRANCH   6  15
BRANCH   8  25
ATOM     25  O   UNL     1     111.720 127.845 135.841  0.00  0.00    +0.000 OA
ATOM     26  C   UNL     1     111.128 127.692 135.288  0.00  0.00    +0.000 C 
ENDBRANCH   8  25
BRANCH  12  27
ATOM     27  O   UNL     1     112.307 123.607 136.574  0.00  0.00    +0.000 OA
ATOM     28  C   UNL     1     111.960 123.260 137.237  0.00  0.00    +0.000 C 
ENDBRANCH  12  27
TORSDOF 5
ENDMDL
MODEL 2
REMARK VINA RESULT:      -7.6     11.178     12.350
REMARK  Name = 44259895
REMARK  5 active torsions:
REMARK  status: ('A' for Active; 'I' for Inactive)
REMARK    1  A    between atoms: O_2  and  C_14
REMARK    2  A    between atoms: O_3  and  C_18
REMARK    3  A    between atoms: O_6  and  C_22
REMARK    4  A    between atoms: O_8  and  C_23
REMARK    5  A    between atoms: C_11  and  C_13
REMARK                            x       y       z     vdW  Elec       q    Type
REMARK                         _______ _______ _______ _____ _____    ______ ____
ROOT
ATOM      1  O   UNL     1     106.726 125.341 146.171  0.00  0.00    +0.000 OA
ATOM      2  O   UNL     1     105.572 124.512 148.688  0.00  0.00    +0.000 OA
ATOM      3  O   UNL     1     104.748 124.717 147.522  0.00  0.00    +0.000 OA
ATOM      4  O   UNL     1     108.453 124.948 148.483  0.00  0.00    +0.000 OA
ATOM      5  C   UNL     1     106.157 124.931 147.416  0.00  0.00    +0.000 A 
ATOM      6  C   UNL     1     105.976 125.335 145.826  0.00  0.00    +0.000 A 
ATOM      7  C   UNL     1     106.816 125.139 146.966  0.00  0.00    +0.000 A 
ATOM      8  C   UNL     1     105.317 125.127 146.276  0.00  0.00    +0.000 A 
ATOM      9  C   UNL     1     105.407 124.925 147.072  0.00  0.00    +0.000 A 
ATOM     10  C   UNL     1     106.237 124.719 148.246  0.00  0.00    +0.000 A 
ATOM     11  C   UNL     1     107.602 125.150 147.313  0.00  0.00    +0.000 A 
ATOM     12  C   UNL     1     107.015 124.724 148.610  0.00  0.00    +0.000 A 
ATOM     13  C   UNL     1     107.703 124.941 148.141  0.00  0.00    +0.000 A 
ENDROOT
BRANCH   6  15
ATOM     14  O   UNL     1     106.272 124.214 144.652  0.00  0.00    +0.000 OA
ATOM     15  C   UNL     1     105.886 125.536 145.032  0.00  0.00    +0.000 A 
ATOM     16  C   UNL     1     106.034 124.976 144.445  0.00  0.00    +0.000 A 
ATOM     17  C   UNL     1     105.648 126.298 144.823  0.00  0.00    +0.000 A 
ATOM     18  C   UNL     1     105.557 126.500 144.029  0.00  0.00    +0.000 A 
ATOM     19  C   UNL     1     105.705 125.939 143.442  0.00  0.00    +0.000 A 
ATOM     20  C   UNL     1     105.944 125.177 143.649  0.00  0.00    +0.000 A 
BRANCH  18  21
ATOM     21  O   UNL     1     105.319 127.262 143.821  0.00  0.00    +0.000 OA
ATOM     22  C   UNL     1     105.465 127.894 144.329  0.00  0.00    +0.000 C 
ENDBRANCH  18  21
BRANCH  19  23
ATOM     23  O   UNL     1     105.615 126.141 142.646  0.00  0.00    +0.000 OA
ATOM     24  C   UNL     1     105.912 125.645 142.059  0.00  0.00    +0.000 C 
ENDBRANCH  19  23
ENDBRANCH   6  15
BRANCH   8  25
ATOM     25  O   UNL     1     104.567 125.120 145.932  0.00  0.00    +0.000 OA
ATOM     26  C   UNL     1     103.907 124.921 146.385  0.00  0.00    +0.000 C 
ENDBRANCH   8  25
BRANCH  12  27
ATOM     27  O   UNL     1     107.103 124.522 149.405  0.00  0.00    +0.000 OA
ATOM     28  C   UNL     1     107.386 123.775 149.612  0.00  0.00    +0.000 C 
ENDBRANCH  12  27
TORSDOF 5
ENDMDL
MODEL 3
REMARK VINA RESULT:      -7.6     12.374     14.004
REMARK  Name = 44259895
REMARK  5 active torsions:
REMARK  status: ('A' for Active; 'I' for Inactive)
REMARK    1  A    between atoms: O_2  and  C_14
REMARK    2  A    between atoms: O_3  and  C_18
REMARK    3  A    between atoms: O_6  and  C_22
REMARK    4  A    between atoms: O_8  and  C_23
REMARK    5  A    between atoms: C_11  and  C_13
REMARK                            x       y       z     vdW  Elec       q    Type
REMARK                         _______ _______ _______ _____ _____    ______ ____
ROOT
ATOM      1  O   UNL     1     105.092 124.258 147.490  0.00  0.00    +0.000 OA
ATOM      2  O   UNL     1     107.404 125.790 146.679  0.00  0.00    +0.000 OA
ATOM      3  O   UNL     1     106.223 125.731 145.853  0.00  0.00    +0.000 OA
ATOM      4  O   UNL     1     107.441 124.330 149.209  0.00  0.00    +0.000 OA
ATOM      5  C   UNL     1     106.235 125.015 147.090  0.00  0.00    +0.000 A 
ATOM      6  C   UNL     1     104.701 124.482 146.798  0.00  0.00    +0.000 A 
ATOM      7  C   UNL     1     105.858 124.524 147.636  0.00  0.00    +0.000 A 
ATOM      8  C   UNL     1     105.078 124.973 146.253  0.00  0.00    +0.000 A 
ATOM      9  C   UNL     1     105.846 125.240 146.399  0.00  0.00    +0.000 A 
ATOM     10  C   UNL     1     107.035 125.299 147.230  0.00  0.00    +0.000 A 
ATOM     11  C   UNL     1     106.255 124.283 148.360  0.00  0.00    +0.000 A 
ATOM     12  C   UNL     1     107.446 125.068 147.948  0.00  0.00    +0.000 A 
ATOM     13  C   UNL     1     107.053 124.557 148.517  0.00  0.00    +0.000 A 
ENDROOT
BRANCH   6  15
ATOM     14  O   UNL     1     104.460 123.064 145.990  0.00  0.00    +0.000 OA
ATOM     15  C   UNL     1     103.934 124.216 146.653  0.00  0.00    +0.000 A 
ATOM     16  C   UNL     1     103.814 123.507 146.249  0.00  0.00    +0.000 A 
ATOM     17  C   UNL     1     103.287 124.659 146.910  0.00  0.00    +0.000 A 
ATOM     18  C   UNL     1     102.521 124.393 146.764  0.00  0.00    +0.000 A 
ATOM     19  C   UNL     1     102.400 123.684 146.360  0.00  0.00    +0.000 A 
ATOM     20  C   UNL     1     103.046 123.241 146.102  0.00  0.00    +0.000 A 
BRANCH  18  21
ATOM     21  O   UNL     1     101.874 124.836 147.022  0.00  0.00    +0.000 OA
ATOM     22  C   UNL     1     101.884 125.186 147.768  0.00  0.00    +0.000 C 
ENDBRANCH  18  21
BRANCH  19  23
ATOM     23  O   UNL     1     101.633 123.417 146.214  0.00  0.00    +0.000 OA
ATOM     24  C   UNL     1     101.491 122.884 145.602  0.00  0.00    +0.000 C 
ENDBRANCH  19  23
ENDBRANCH   6  15
BRANCH   8  25
ATOM     25  O   UNL     1     104.688 125.198 145.562  0.00  0.00    +0.000 OA
ATOM     26  C   UNL     1     105.017 125.775 145.072  0.00  0.00    +0.000 C 
ENDBRANCH   8  25
BRANCH  12  27
ATOM     27  O   UNL     1     108.213 125.336 148.092  0.00  0.00    +0.000 OA
ATOM     28  C   UNL     1     108.848 124.811 148.048  0.00  0.00    +0.000 C 
ENDBRANCH  12  27
TORSDOF 5
ENDMDL
MODEL 4
REMARK VINA RESULT:      -7.5     12.126     13.295
REMARK  Name = 44259895
REMARK  5 active torsions:
REMARK  status: ('A' for Active; 'I' for Inactive)
REMARK    1  A    between atoms: O_2  and  C_14
REMARK    2  A    between atoms: O_3  and  C_18
REMARK    3  A    between atoms: O_6  and  C_22
REMARK    4  A    between atoms: O_8  and  C_23
REMARK    5  A    between atoms: C_11  and  C_13
REMARK                            x       y       z     vdW  Elec       q    Type
REMARK                         _______ _______ _______ _____ _____    ______ ____
ROOT
ATOM      1  O   UNL     1     104.496 124.952 147.072  0.00  0.00    +0.000 OA
ATOM      2  O   UNL     1     103.178 122.882 145.546  0.00  0.00    +0.000 OA
ATOM      3  O   UNL     1     104.380 123.513 145.061  0.00  0.00    +0.000 OA
ATOM      4  O   UNL     1     102.071 123.722 148.115  0.00  0.00    +0.000 OA
ATOM      5  C   UNL     1     103.843 123.928 146.319  0.00  0.00    +0.000 A 
ATOM      6  C   UNL     1     105.072 125.017 146.485  0.00  0.00    +0.000 A 
ATOM      7  C   UNL     1     103.882 124.408 146.989  0.00  0.00    +0.000 A 
ATOM      8  C   UNL     1     105.033 124.537 145.814  0.00  0.00    +0.000 A 
ATOM      9  C   UNL     1     104.419 123.993 145.731  0.00  0.00    +0.000 A 
ATOM     10  C   UNL     1     103.208 123.357 146.220  0.00  0.00    +0.000 A 
ATOM     11  C   UNL     1     103.287 124.350 147.607  0.00  0.00    +0.000 A 
ATOM     12  C   UNL     1     102.605 123.285 146.828  0.00  0.00    +0.000 A 
ATOM     13  C   UNL     1     102.645 123.785 147.527  0.00  0.00    +0.000 A 
ENDROOT
BRANCH   6  15
ATOM     14  O   UNL     1     104.817 126.609 146.133  0.00  0.00    +0.000 OA
ATOM     15  C   UNL     1     105.686 125.561 146.567  0.00  0.00    +0.000 A 
ATOM     16  C   UNL     1     105.558 126.357 146.391  0.00  0.00    +0.000 A 
ATOM     17  C   UNL     1     106.428 125.310 146.826  0.00  0.00    +0.000 A 
ATOM     18  C   UNL     1     107.042 125.854 146.909  0.00  0.00    +0.000 A 
ATOM     19  C   UNL     1     106.915 126.650 146.733  0.00  0.00    +0.000 A 
ATOM     20  C   UNL     1     106.173 126.902 146.474  0.00  0.00    +0.000 A 
BRANCH  18  21
ATOM     21  O   UNL     1     107.785 125.603 147.167  0.00  0.00    +0.000 OA
ATOM     22  C   UNL     1     107.845 125.019 147.746  0.00  0.00    +0.000 C 
ENDBRANCH  18  21
BRANCH  19  23
ATOM     23  O   UNL     1     107.529 127.195 146.816  0.00  0.00    +0.000 OA
ATOM     24  C   UNL     1     107.463 127.945 146.481  0.00  0.00    +0.000 C 
ENDBRANCH  19  23
ENDBRANCH   6  15
BRANCH   8  25
ATOM     25  O   UNL     1     105.609 124.602 145.227  0.00  0.00    +0.000 OA
ATOM     26  C   UNL     1     105.516 124.201 144.512  0.00  0.00    +0.000 C 
ENDBRANCH   8  25
BRANCH  12  27
ATOM     27  O   UNL     1     101.992 122.740 146.742  0.00  0.00    +0.000 OA
ATOM     28  C   UNL     1     101.248 122.992 146.489  0.00  0.00    +0.000 C 
ENDBRANCH  12  27
TORSDOF 5
ENDMDL
MODEL 5
REMARK VINA RESULT:      -7.5     12.855     14.078
REMARK  Name = 44259895
REMARK  5 active torsions:
REMARK  status: ('A' for Active; 'I' for Inactive)
REMARK    1  A    between atoms: O_2  and  C_14
REMARK    2  A    between atoms: O_3  and  C_18
REMARK    3  A    between atoms: O_6  and  C_22
REMARK    4  A    between atoms: O_8  and  C_23
REMARK    5  A    between atoms: C_11  and  C_13
REMARK                            x       y       z     vdW  Elec       q    Type
REMARK                         _______ _______ _______ _____ _____    ______ ____
ROOT
ATOM      1  O   UNL     1     104.487 124.280 146.797  0.00  0.00    +0.000 OA
ATOM      2  O   UNL     1     101.790 124.979 147.563  0.00  0.00    +0.000 OA
ATOM      3  O   UNL     1     102.922 125.719 148.064  0.00  0.00    +0.000 OA
ATOM      4  O   UNL     1     102.250 122.739 145.746  0.00  0.00    +0.000 OA
ATOM      5  C   UNL     1     103.153 124.624 147.175  0.00  0.00    +0.000 A 
ATOM      6  C   UNL     1     104.778 124.895 147.263  0.00  0.00    +0.000 A 
ATOM      7  C   UNL     1     103.675 124.145 146.753  0.00  0.00    +0.000 A 
ATOM      8  C   UNL     1     104.257 125.375 147.686  0.00  0.00    +0.000 A 
ATOM      9  C   UNL     1     103.443 125.240 147.642  0.00  0.00    +0.000 A 
ATOM     10  C   UNL     1     102.304 124.494 147.137  0.00  0.00    +0.000 A 
ATOM     11  C   UNL     1     103.384 123.500 146.263  0.00  0.00    +0.000 A 
ATOM     12  C   UNL     1     101.995 123.855 146.654  0.00  0.00    +0.000 A 
ATOM     13  C   UNL     1     102.539 123.355 146.213  0.00  0.00    +0.000 A 
ENDROOT
BRANCH   6  15
ATOM     14  O   UNL     1     105.694 124.069 148.360  0.00  0.00    +0.000 OA
ATOM     15  C   UNL     1     105.590 125.030 147.308  0.00  0.00    +0.000 A 
ATOM     16  C   UNL     1     106.048 124.617 147.856  0.00  0.00    +0.000 A 
ATOM     17  C   UNL     1     105.946 125.579 146.804  0.00  0.00    +0.000 A 
ATOM     18  C   UNL     1     106.758 125.714 146.849  0.00  0.00    +0.000 A 
ATOM     19  C   UNL     1     107.216 125.301 147.397  0.00  0.00    +0.000 A 
ATOM     20  C   UNL     1     106.861 124.752 147.901  0.00  0.00    +0.000 A 
BRANCH  18  21
ATOM     21  O   UNL     1     107.114 126.263 146.345  0.00  0.00    +0.000 OA
ATOM     22  C   UNL     1     106.688 126.583 145.716  0.00  0.00    +0.000 C 
ENDBRANCH  18  21
BRANCH  19  23
ATOM     23  O   UNL     1     108.029 125.436 147.441  0.00  0.00    +0.000 OA
ATOM     24  C   UNL     1     108.492 124.995 147.960  0.00  0.00    +0.000 C 
ENDBRANCH  19  23
ENDBRANCH   6  15
BRANCH   8  25
ATOM     25  O   UNL     1     104.547 125.990 148.152  0.00  0.00    +0.000 OA
ATOM     26  C   UNL     1     104.027 126.538 148.483  0.00  0.00    +0.000 C 
ENDBRANCH   8  25
BRANCH  12  27
ATOM     27  O   UNL     1     101.182 123.722 146.611  0.00  0.00    +0.000 OA
ATOM     28  C   UNL     1     100.848 123.076 147.001  0.00  0.00    +0.000 C 
ENDBRANCH  12  27
TORSDOF 5
ENDMDL
MODEL 6
REMARK VINA RESULT:      -7.5      8.637     10.552
REMARK  Name = 44259895
REMARK  5 active torsions:
REMARK  status: ('A' for Active; 'I' for Inactive)
REMARK    1  A    between atoms: O_2  and  C_14
REMARK    2  A    between atoms: O_3  and  C_18
REMARK    3  A    between atoms: O_6  and  C_22
REMARK    4  A    between atoms: O_8  and  C_23
REMARK    5  A    between atoms: C_11  and  C_13
REMARK                            x       y       z     vdW  Elec       q    Type
REMARK                         _______ _______ _______ _____ _____    ______ ____
ROOT
ATOM      1  O   UNL     1     111.589 131.590 145.169  0.00  0.00    +0.000 OA
ATOM      2  O   UNL     1     112.118 132.093 142.373  0.00  0.00    +0.000 OA
ATOM      3  O   UNL     1     112.067 133.173 143.327  0.00  0.00    +0.000 OA
ATOM      4  O   UNL     1     111.677 129.358 143.300  0.00  0.00    +0.000 OA
ATOM      5  C   UNL     1     111.850 131.837 143.786  0.00  0.00    +0.000 A 
ATOM      6  C   UNL     1     111.646 132.398 145.324  0.00  0.00    +0.000 A 
ATOM      7  C   UNL     1     111.691 131.309 144.400  0.00  0.00    +0.000 A 
ATOM      8  C   UNL     1     111.805 132.926 144.711  0.00  0.00    +0.000 A 
ATOM      9  C   UNL     1     111.908 132.645 143.941  0.00  0.00    +0.000 A 
ATOM     10  C   UNL     1     111.959 131.557 142.980  0.00  0.00    +0.000 A 
ATOM     11  C   UNL     1     111.630 130.465 144.251  0.00  0.00    +0.000 A 
ATOM     12  C   UNL     1     111.901 130.717 142.812  0.00  0.00    +0.000 A 
ATOM     13  C   UNL     1     111.735 130.167 143.452  0.00  0.00    +0.000 A 
ENDROOT
BRANCH   6  15
ATOM     14  O   UNL     1     112.882 132.290 146.413  0.00  0.00    +0.000 OA
ATOM     15  C   UNL     1     111.544 132.679 146.093  0.00  0.00    +0.000 A 
ATOM     16  C   UNL     1     112.162 132.625 146.637  0.00  0.00    +0.000 A 
ATOM     17  C   UNL     1     110.825 133.014 146.319  0.00  0.00    +0.000 A 
ATOM     18  C   UNL     1     110.723 133.294 147.087  0.00  0.00    +0.000 A 
ATOM     19  C   UNL     1     111.341 133.240 147.631  0.00  0.00    +0.000 A 
ATOM     20  C   UNL     1     112.060 132.906 147.407  0.00  0.00    +0.000 A 
BRANCH  18  21
ATOM     21  O   UNL     1     110.003 133.629 147.313  0.00  0.00    +0.000 OA
ATOM     22  C   UNL     1     109.300 133.361 146.978  0.00  0.00    +0.000 C 
ENDBRANCH  18  21
BRANCH  19  23
ATOM     23  O   UNL     1     111.239 133.521 148.401  0.00  0.00    +0.000 OA
ATOM     24  C   UNL     1     111.799 133.348 148.980  0.00  0.00    +0.000 C 
ENDBRANCH  19  23
ENDBRANCH   6  15
BRANCH   8  25
ATOM     25  O   UNL     1     111.863 133.734 144.865  0.00  0.00    +0.000 OA
ATOM     26  C   UNL     1     111.842 134.276 144.243  0.00  0.00    +0.000 C 
ENDBRANCH   8  25
BRANCH  12  27
ATOM     27  O   UNL     1     112.003 130.439 142.042  0.00  0.00    +0.000 OA
ATOM     28  C   UNL     1     112.724 130.107 141.816  0.00  0.00    +0.000 C 
ENDBRANCH  12  27
TORSDOF 5
ENDMDL
MODEL 7
REMARK VINA RESULT:      -7.5      0.888      4.617
REMARK  Name = 44259895
REMARK  5 active torsions:
REMARK  status: ('A' for Active; 'I' for Inactive)
REMARK    1  A    between atoms: O_2  and  C_14
REMARK    2  A    between atoms: O_3  and  C_18
REMARK    3  A    between atoms: O_6  and  C_22
REMARK    4  A    between atoms: O_8  and  C_23
REMARK    5  A    between atoms: C_11  and  C_13
REMARK                            x       y       z     vdW  Elec       q    Type
REMARK                         _______ _______ _______ _____ _____    ______ ____
ROOT
ATOM      1  O   UNL     1     113.240 127.331 135.995  0.00  0.00    +0.000 OA
ATOM      2  O   UNL     1     113.188 129.924 137.269  0.00  0.00    +0.000 OA
ATOM      3  O   UNL     1     112.445 128.813 137.810  0.00  0.00    +0.000 OA
ATOM      4  O   UNL     1     114.768 129.527 134.844  0.00  0.00    +0.000 OA
ATOM      5  C   UNL     1     113.216 128.613 136.624  0.00  0.00    +0.000 A 
ATOM      6  C   UNL     1     112.735 127.035 136.576  0.00  0.00    +0.000 A 
ATOM      7  C   UNL     1     113.481 128.119 136.019  0.00  0.00    +0.000 A 
ATOM      8  C   UNL     1     112.469 127.529 137.181  0.00  0.00    +0.000 A 
ATOM      9  C   UNL     1     112.710 128.319 137.205  0.00  0.00    +0.000 A 
ATOM     10  C   UNL     1     113.459 129.437 136.660  0.00  0.00    +0.000 A 
ATOM     11  C   UNL     1     114.008 128.414 135.407  0.00  0.00    +0.000 A 
ATOM     12  C   UNL     1     113.985 129.750 136.058  0.00  0.00    +0.000 A 
ATOM     13  C   UNL     1     114.262 129.235 135.427  0.00  0.00    +0.000 A 
ENDROOT
BRANCH   6  15
ATOM     14  O   UNL     1     113.708 125.857 137.199  0.00  0.00    +0.000 OA
ATOM     15  C   UNL     1     112.494 126.247 136.553  0.00  0.00    +0.000 A 
ATOM     16  C   UNL     1     112.981 125.658 136.864  0.00  0.00    +0.000 A 
ATOM     17  C   UNL     1     111.767 126.046 136.218  0.00  0.00    +0.000 A 
ATOM     18  C   UNL     1     111.527 125.258 136.194  0.00  0.00    +0.000 A 
ATOM     19  C   UNL     1     112.013 124.669 136.506  0.00  0.00    +0.000 A 
ATOM     20  C   UNL     1     112.740 124.868 136.841  0.00  0.00    +0.000 A 
BRANCH  18  21
ATOM     21  O   UNL     1     110.800 125.058 135.859  0.00  0.00    +0.000 OA
ATOM     22  C   UNL     1     110.481 125.520 135.256  0.00  0.00    +0.000 C 
ENDBRANCH  18  21
BRANCH  19  23
ATOM     23  O   UNL     1     111.773 123.880 136.482  0.00  0.00    +0.000 OA
ATOM     24  C   UNL     1     112.126 123.326 136.980  0.00  0.00    +0.000 C 
ENDBRANCH  19  23
ENDBRANCH   6  15
BRANCH   8  25
ATOM     25  O   UNL     1     111.964 127.235 137.763  0.00  0.00    +0.000 OA
ATOM     26  C   UNL     1     111.503 127.753 138.210  0.00  0.00    +0.000 C 
ENDBRANCH   8  25
BRANCH  12  27
ATOM     27  O   UNL     1     114.224 130.539 136.084  0.00  0.00    +0.000 OA
ATOM     28  C   UNL     1     114.998 130.729 136.297  0.00  0.00    +0.000 C 
ENDBRANCH  12  27
TORSDOF 5
ENDMDL
MODEL 8
REMARK VINA RESULT:      -7.4      1.942      5.023
REMARK  Name = 44259895
REMARK  5 active torsions:
REMARK  status: ('A' for Active; 'I' for Inactive)
REMARK    1  A    between atoms: O_2  and  C_14
REMARK    2  A    between atoms: O_3  and  C_18
REMARK    3  A    between atoms: O_6  and  C_22
REMARK    4  A    between atoms: O_8  and  C_23
REMARK    5  A    between atoms: C_11  and  C_13
REMARK                            x       y       z     vdW  Elec       q    Type
REMARK                         _______ _______ _______ _____ _____    ______ ____
ROOT
ATOM      1  O   UNL     1     110.059 127.192 136.253  0.00  0.00    +0.000 OA
ATOM      2  O   UNL     1     110.605 129.719 134.961  0.00  0.00    +0.000 OA
ATOM      3  O   UNL     1     111.662 128.772 135.223  0.00  0.00    +0.000 OA
ATOM      4  O   UNL     1     107.875 129.053 135.756  0.00  0.00    +0.000 OA
ATOM      5  C   UNL     1     110.328 128.441 135.614  0.00  0.00    +0.000 A 
ATOM      6  C   UNL     1     110.859 126.995 136.205  0.00  0.00    +0.000 A 
ATOM      7  C   UNL     1     109.793 127.915 135.957  0.00  0.00    +0.000 A 
ATOM      8  C   UNL     1     111.393 127.522 135.862  0.00  0.00    +0.000 A 
ATOM      9  C   UNL     1     111.128 128.246 135.566  0.00  0.00    +0.000 A 
ATOM     10  C   UNL     1     110.064 129.199 135.303  0.00  0.00    +0.000 A 
ATOM     11  C   UNL     1     108.958 128.108 136.013  0.00  0.00    +0.000 A 
ATOM     12  C   UNL     1     109.232 129.408 135.349  0.00  0.00    +0.000 A 
ATOM     13  C   UNL     1     108.675 128.859 135.707  0.00  0.00    +0.000 A 
ENDROOT
BRANCH   6  15
ATOM     14  O   UNL     1     110.752 125.636 135.276  0.00  0.00    +0.000 OA
ATOM     15  C   UNL     1     111.125 126.273 136.500  0.00  0.00    +0.000 A 
ATOM     16  C   UNL     1     111.071 125.593 136.036  0.00  0.00    +0.000 A 
ATOM     17  C   UNL     1     111.444 126.229 137.260  0.00  0.00    +0.000 A 
ATOM     18  C   UNL     1     111.709 125.506 137.555  0.00  0.00    +0.000 A 
ATOM     19  C   UNL     1     111.656 124.827 137.091  0.00  0.00    +0.000 A 
ATOM     20  C   UNL     1     111.337 124.869 136.331  0.00  0.00    +0.000 A 
BRANCH  18  21
ATOM     21  O   UNL     1     112.029 125.462 138.315  0.00  0.00    +0.000 OA
ATOM     22  C   UNL     1     111.802 126.008 138.890  0.00  0.00    +0.000 C 
ENDBRANCH  18  21
BRANCH  19  23
ATOM     23  O   UNL     1     111.922 124.103 137.386  0.00  0.00    +0.000 OA
ATOM     24  C   UNL     1     112.045 123.469 136.874  0.00  0.00    +0.000 C 
ENDBRANCH  19  23
ENDBRANCH   6  15
BRANCH   8  25
ATOM     25  O   UNL     1     112.193 127.326 135.814  0.00  0.00    +0.000 OA
ATOM     26  C   UNL     1     112.764 127.922 135.808  0.00  0.00    +0.000 C 
ENDBRANCH   8  25
BRANCH  12  27
ATOM     27  O   UNL     1     108.969 130.132 135.053  0.00  0.00    +0.000 OA
ATOM     28  C   UNL     1     108.812 130.756 135.569  0.00  0.00    +0.000 C 
ENDBRANCH  12  27
TORSDOF 5
ENDMDL
MODEL 9
REMARK VINA RESULT:      -7.4      0.876      4.704
REMARK  Name = 44259895
REMARK  5 active torsions:
REMARK  status: ('A' for Active; 'I' for Inactive)
REMARK    1  A    between atoms: O_2  and  C_14
REMARK    2  A    between atoms: O_3  and  C_18
REMARK    3  A    between atoms: O_6  and  C_22
REMARK    4  A    between atoms: O_8  and  C_23
REMARK    5  A    between atoms: C_11  and  C_13
REMARK                            x       y       z     vdW  Elec       q    Type
REMARK                         _______ _______ _______ _____ _____    ______ ____
ROOT
ATOM      1  O   UNL     1     113.518 127.497 136.040  0.00  0.00    +0.000 OA
ATOM      2  O   UNL     1     113.410 130.050 137.389  0.00  0.00    +0.000 OA
ATOM      3  O   UNL     1     112.977 128.841 138.046  0.00  0.00    +0.000 OA
ATOM      4  O   UNL     1     114.410 129.895 134.649  0.00  0.00    +0.000 OA
ATOM      5  C   UNL     1     113.465 128.759 136.706  0.00  0.00    +0.000 A 
ATOM      6  C   UNL     1     113.210 127.129 136.711  0.00  0.00    +0.000 A 
ATOM      7  C   UNL     1     113.645 128.311 136.037  0.00  0.00    +0.000 A 
ATOM      8  C   UNL     1     113.029 127.577 137.380  0.00  0.00    +0.000 A 
ATOM      9  C   UNL     1     113.157 128.393 137.378  0.00  0.00    +0.000 A 
ATOM     10  C   UNL     1     113.593 129.610 136.716  0.00  0.00    +0.000 A 
ATOM     11  C   UNL     1     113.967 128.682 135.331  0.00  0.00    +0.000 A 
ATOM     12  C   UNL     1     113.914 129.997 136.019  0.00  0.00    +0.000 A 
ATOM     13  C   UNL     1     114.102 129.530 135.322  0.00  0.00    +0.000 A 
ENDROOT
BRANCH   6  15
ATOM     14  O   UNL     1     111.829 126.508 136.055  0.00  0.00    +0.000 OA
ATOM     15  C   UNL     1     113.082 126.315 136.714  0.00  0.00    +0.000 A 
ATOM     16  C   UNL     1     112.392 126.004 136.386  0.00  0.00    +0.000 A 
ATOM     17  C   UNL     1     113.644 125.809 137.046  0.00  0.00    +0.000 A 
ATOM     18  C   UNL     1     113.516 124.995 137.048  0.00  0.00    +0.000 A 
ATOM     19  C   UNL     1     112.826 124.685 136.720  0.00  0.00    +0.000 A 
ATOM     20  C   UNL     1     112.263 125.189 136.389  0.00  0.00    +0.000 A 
BRANCH  18  21
ATOM     21  O   UNL     1     114.078 124.490 137.380  0.00  0.00    +0.000 OA
ATOM     22  C   UNL     1     114.874 124.705 137.387  0.00  0.00    +0.000 C 
ENDBRANCH  18  21
BRANCH  19  23
ATOM     23  O   UNL     1     112.698 123.869 136.723  0.00  0.00    +0.000 OA
ATOM     24  C   UNL     1     111.930 123.572 136.690  0.00  0.00    +0.000 C 
ENDBRANCH  19  23
ENDBRANCH   6  15
BRANCH   8  25
ATOM     25  O   UNL     1     112.721 127.211 138.052  0.00  0.00    +0.000 OA
ATOM     26  C   UNL     1     112.803 127.568 138.791  0.00  0.00    +0.000 C 
ENDBRANCH   8  25
BRANCH  12  27
ATOM     27  O   UNL     1     114.041 130.813 136.019  0.00  0.00    +0.000 OA
ATOM     28  C   UNL     1     114.807 131.111 136.080  0.00  0.00    +0.000 C 
ENDBRANCH  12  27
TORSDOF 5
ENDMDL
MODEL 10
REMARK VINA RESULT:      -7.3     11.241     12.605
REMARK  Name = 44259895
REMARK  5 active torsions:
REMARK  status: ('A' for Active; 'I' for Inactive)
REMARK    1  A    between atoms: O_2  and  C_14
REMARK    2  A    between atoms: O_3  and  C_18
REMARK    3  A    between atoms: O_6  and  C_22
REMARK    4  A    between atoms: O_8  and  C_23
REMARK    5  A    between atoms: C_11  and  C_13
REMARK                            x       y       z     vdW  Elec       q    Type
REMARK                         _______ _______ _______ _____ _____    ______ ____
ROOT
ATOM      1  O   UNL     1     106.587 126.604 146.245  0.00  0.00    +0.000 OA
ATOM      2  O   UNL     1     105.314 126.217 143.680  0.00  0.00    +0.000 OA
ATOM      3  O   UNL     1     105.278 125.190 144.692  0.00  0.00    +0.000 OA
ATOM      4  O   UNL     1     106.703 128.723 144.251  0.00  0.00    +0.000 OA
ATOM      5  C   UNL     1     105.958 126.414 144.977  0.00  0.00    +0.000 A 
ATOM      6  C   UNL     1     106.344 125.851 146.479  0.00  0.00    +0.000 A 
ATOM      7  C   UNL     1     106.395 126.885 145.495  0.00  0.00    +0.000 A 
ATOM      8  C   UNL     1     105.907 125.380 145.962  0.00  0.00    +0.000 A 
ATOM      9  C   UNL     1     105.714 125.661 145.210  0.00  0.00    +0.000 A 
ATOM     10  C   UNL     1     105.751 126.696 144.191  0.00  0.00    +0.000 A 
ATOM     11  C   UNL     1     106.655 127.671 145.263  0.00  0.00    +0.000 A 
ATOM     12  C   UNL     1     106.002 127.479 143.942  0.00  0.00    +0.000 A 
ATOM     13  C   UNL     1     106.458 127.970 144.482  0.00  0.00    +0.000 A 
ENDROOT
BRANCH   6  15
ATOM     14  O   UNL     1     107.834 125.202 146.760  0.00  0.00    +0.000 OA
ATOM     15  C   UNL     1     106.536 125.569 147.230  0.00  0.00    +0.000 A 
ATOM     16  C   UNL     1     107.281 125.245 147.370  0.00  0.00    +0.000 A 
ATOM     17  C   UNL     1     105.983 125.612 147.841  0.00  0.00    +0.000 A 
ATOM     18  C   UNL     1     106.176 125.330 148.592  0.00  0.00    +0.000 A 
ATOM     19  C   UNL     1     106.921 125.006 148.732  0.00  0.00    +0.000 A 
ATOM     20  C   UNL     1     107.474 124.963 148.122  0.00  0.00    +0.000 A 
BRANCH  18  21
ATOM     21  O   UNL     1     105.623 125.373 149.204  0.00  0.00    +0.000 OA
ATOM     22  C   UNL     1     105.105 126.012 149.248  0.00  0.00    +0.000 C 
ENDBRANCH  18  21
BRANCH  19  23
ATOM     23  O   UNL     1     107.114 124.724 149.484  0.00  0.00    +0.000 OA
ATOM     24  C   UNL     1     107.837 124.348 149.610  0.00  0.00    +0.000 C 
ENDBRANCH  19  23
ENDBRANCH   6  15
BRANCH   8  25
ATOM     25  O   UNL     1     105.663 124.627 146.194  0.00  0.00    +0.000 OA
ATOM     26  C   UNL     1     104.983 124.294 145.867  0.00  0.00    +0.000 C 
ENDBRANCH   8  25
BRANCH  12  27
ATOM     27  O   UNL     1     105.808 127.758 143.191  0.00  0.00    +0.000 OA
ATOM     28  C   UNL     1     105.167 128.267 143.093  0.00  0.00    +0.000 C 
ENDBRANCH  12  27
TORSDOF 5
ENDMDL
