MODEL 1
REMARK VINA RESULT:     -10.6      0.000      0.000
REMARK  Name = 71307582
REMARK  8 active torsions:
REMARK  status: ('A' for Active; 'I' for Inactive)
REMARK    1  A    between atoms: O_2  and  C_20
REMARK    2  A    between atoms: O_2  and  C_25
REMARK    3  A    between atoms: O_13  and  C_38
REMARK    4  A    between atoms: O_13  and  C_46
REMARK    5  A    between atoms: C_22  and  C_26
REMARK    6  A    between atoms: C_24  and  C_29
REMARK    7  A    between atoms: C_37  and  C_42
REMARK    8  A    between atoms: C_44  and  C_47
REMARK                            x       y       z     vdW  Elec       q    Type
REMARK                         _______ _______ _______ _____ _____    ______ ____
ROOT
ATOM      1  O   UNL     1     112.764 127.100 137.437  0.00  0.00    +0.000 OA
ATOM      2  O   UNL     1     111.220 125.456 139.192  0.00  0.00    +0.000 OA
ATOM      3  O   UNL     1     112.095 128.050 140.088  0.00  0.00    +0.000 OA
ATOM      4  O   UNL     1     113.221 128.405 137.848  0.00  0.00    +0.000 OA
ATOM      5  C   UNL     1     111.992 126.278 138.314  0.00  0.00    +0.000 A 
ATOM      6  C   UNL     1     112.396 126.982 138.166  0.00  0.00    +0.000 A 
ATOM      7  C   UNL     1     111.624 126.160 139.044  0.00  0.00    +0.000 A 
ATOM      8  C   UNL     1     112.432 127.567 138.746  0.00  0.00    +0.000 A 
ATOM      9  C   UNL     1     111.660 126.745 139.624  0.00  0.00    +0.000 A 
ATOM     10  C   UNL     1     112.064 127.448 139.475  0.00  0.00    +0.000 A 
ATOM     11  C   UNL     1     112.856 128.295 138.580  0.00  0.00    +0.000 A 
ATOM     12  C   UNL     1     112.515 128.785 139.939  0.00  0.00    +0.000 A 
ATOM     13  C   UNL     1     112.897 128.908 139.180  0.00  0.00    +0.000 A 
ENDROOT
BRANCH   5  19
ATOM     14  O   UNL     1     112.596 125.186 137.618  0.00  0.00    +0.000 OA
ATOM     15  O   UNL     1     110.566 124.952 136.223  0.00  0.00    +0.000 OA
ATOM     16  O   UNL     1     111.847 123.937 135.992  0.00  0.00    +0.000 OA
ATOM     17  C   UNL     1     111.279 125.615 137.269  0.00  0.00    +0.000 C 
ATOM     18  C   UNL     1     111.242 125.030 136.688  0.00  0.00    +0.000 C 
ATOM     19  C   UNL     1     111.956 125.693 137.734  0.00  0.00    +0.000 C 
ATOM     20  C   UNL     1     111.883 124.523 136.573  0.00  0.00    +0.000 C 
ATOM     21  C   UNL     1     112.560 124.601 137.038  0.00  0.00    +0.000 C 
BRANCH  21  23
ATOM     22  O   UNL     1     113.904 124.218 137.336  0.00  0.00    +0.000 OA
ATOM     23  C   UNL     1     113.200 124.094 136.923  0.00  0.00    +0.000 C 
ENDBRANCH  21  23
BRANCH  17  24
ATOM     24  O   UNL     1     110.639 126.122 137.384  0.00  0.00    +0.000 OA
BRANCH  24  29
ATOM     25  O   UNL     1     110.785 126.713 136.091  0.00  0.00    +0.000 OA
ATOM     26  O   UNL     1     109.053 126.576 137.411  0.00  0.00    +0.000 OA
ATOM     27  O   UNL     1     108.407 127.393 136.131  0.00  0.00    +0.000 OA
ATOM     28  O   UNL     1     109.346 127.757 134.825  0.00  0.00    +0.000 OA
ATOM     29  C   UNL     1     110.316 126.531 136.744  0.00  0.00    +0.000 C 
ATOM     30  C   UNL     1     109.523 126.758 136.757  0.00  0.00    +0.000 C 
ATOM     31  C   UNL     1     109.200 127.166 136.117  0.00  0.00    +0.000 C 
ATOM     32  C   UNL     1     109.669 127.348 135.465  0.00  0.00    +0.000 C 
ATOM     33  C   UNL     1     110.462 127.121 135.451  0.00  0.00    +0.000 C 
ENDBRANCH  24  29
ENDBRANCH  17  24
ENDBRANCH   5  19
BRANCH  12  35
ATOM     34  C   UNL     1     112.618 130.536 141.686  0.00  0.00    +0.000 A 
ATOM     35  C   UNL     1     112.549 129.369 140.521  0.00  0.00    +0.000 A 
ATOM     36  C   UNL     1     111.996 130.531 141.144  0.00  0.00    +0.000 A 
ATOM     37  C   UNL     1     113.205 129.958 141.646  0.00  0.00    +0.000 A 
ATOM     38  C   UNL     1     111.961 129.946 140.561  0.00  0.00    +0.000 A 
ATOM     39  C   UNL     1     113.171 129.374 141.063  0.00  0.00    +0.000 A 
BRANCH  34  40
ATOM     40  O   UNL     1     112.653 131.119 142.268  0.00  0.00    +0.000 OA
BRANCH  40  49
ATOM     41  O   UNL     1     111.988 130.389 143.302  0.00  0.00    +0.000 OA
ATOM     42  O   UNL     1     110.832 132.457 144.019  0.00  0.00    +0.000 OA
ATOM     43  O   UNL     1     110.553 131.038 144.812  0.00  0.00    +0.000 OA
ATOM     44  O   UNL     1     111.882 132.497 142.746  0.00  0.00    +0.000 OA
ATOM     45  C   UNL     1     111.217 131.767 143.780  0.00  0.00    +0.000 C 
ATOM     46  C   UNL     1     111.078 131.058 144.176  0.00  0.00    +0.000 C 
ATOM     47  C   UNL     1     111.743 131.788 143.143  0.00  0.00    +0.000 C 
ATOM     48  C   UNL     1     111.463 130.369 143.937  0.00  0.00    +0.000 C 
ATOM     49  C   UNL     1     112.128 131.099 142.904  0.00  0.00    +0.000 C 
BRANCH  48  51
ATOM     50  O   UNL     1     111.955 129.238 144.659  0.00  0.00    +0.000 OA
ATOM     51  C   UNL     1     111.324 129.660 144.334  0.00  0.00    +0.000 C 
ENDBRANCH  48  51
ENDBRANCH  40  49
ENDBRANCH  34  40
ENDBRANCH  12  35
TORSDOF 8
ENDMDL
MODEL 2
REMARK VINA RESULT:     -10.4      7.670     10.011
REMARK  Name = 71307582
REMARK  8 active torsions:
REMARK  status: ('A' for Active; 'I' for Inactive)
REMARK    1  A    between atoms: O_2  and  C_20
REMARK    2  A    between atoms: O_2  and  C_25
REMARK    3  A    between atoms: O_13  and  C_38
REMARK    4  A    between atoms: O_13  and  C_46
REMARK    5  A    between atoms: C_22  and  C_26
REMARK    6  A    between atoms: C_24  and  C_29
REMARK    7  A    between atoms: C_37  and  C_42
REMARK    8  A    between atoms: C_44  and  C_47
REMARK                            x       y       z     vdW  Elec       q    Type
REMARK                         _______ _______ _______ _____ _____    ______ ____
ROOT
ATOM      1  O   UNL     1     106.573 125.486 145.304  0.00  0.00    +0.000 OA
ATOM      2  O   UNL     1     105.642 127.253 147.348  0.00  0.00    +0.000 OA
ATOM      3  O   UNL     1     105.546 128.096 144.596  0.00  0.00    +0.000 OA
ATOM      4  O   UNL     1     106.542 125.871 143.915  0.00  0.00    +0.000 OA
ATOM      5  C   UNL     1     106.108 126.369 146.327  0.00  0.00    +0.000 A 
ATOM      6  C   UNL     1     106.249 126.210 145.529  0.00  0.00    +0.000 A 
ATOM      7  C   UNL     1     105.783 127.094 146.551  0.00  0.00    +0.000 A 
ATOM      8  C   UNL     1     106.066 126.775 144.957  0.00  0.00    +0.000 A 
ATOM      9  C   UNL     1     105.600 127.659 145.979  0.00  0.00    +0.000 A 
ATOM     10  C   UNL     1     105.741 127.500 145.182  0.00  0.00    +0.000 A 
ATOM     11  C   UNL     1     106.217 126.598 144.131  0.00  0.00    +0.000 A 
ATOM     12  C   UNL     1     105.690 127.936 143.763  0.00  0.00    +0.000 A 
ATOM     13  C   UNL     1     106.028 127.182 143.530  0.00  0.00    +0.000 A 
ENDROOT
BRANCH   5  19
ATOM     14  O   UNL     1     107.072 125.705 147.146  0.00  0.00    +0.000 OA
ATOM     15  O   UNL     1     105.279 124.305 148.121  0.00  0.00    +0.000 OA
ATOM     16  O   UNL     1     106.841 124.108 148.615  0.00  0.00    +0.000 OA
ATOM     17  C   UNL     1     105.694 125.338 147.223  0.00  0.00    +0.000 C 
ATOM     18  C   UNL     1     105.876 124.772 147.796  0.00  0.00    +0.000 C 
ATOM     19  C   UNL     1     106.292 125.804 146.899  0.00  0.00    +0.000 C 
ATOM     20  C   UNL     1     106.658 124.673 148.043  0.00  0.00    +0.000 C 
ATOM     21  C   UNL     1     107.255 125.140 147.718  0.00  0.00    +0.000 C 
BRANCH  21  23
ATOM     22  O   UNL     1     108.651 125.387 147.537  0.00  0.00    +0.000 OA
ATOM     23  C   UNL     1     108.036 125.042 147.965  0.00  0.00    +0.000 C 
ENDBRANCH  21  23
BRANCH  17  24
ATOM     24  O   UNL     1     104.913 125.436 146.976  0.00  0.00    +0.000 OA
BRANCH  24  29
ATOM     25  O   UNL     1     104.854 124.152 146.351  0.00  0.00    +0.000 OA
ATOM     26  O   UNL     1     103.280 125.397 147.209  0.00  0.00    +0.000 OA
ATOM     27  O   UNL     1     102.405 124.094 146.700  0.00  0.00    +0.000 OA
ATOM     28  O   UNL     1     103.162 122.830 145.958  0.00  0.00    +0.000 OA
ATOM     29  C   UNL     1     104.475 124.784 146.722  0.00  0.00    +0.000 C 
ATOM     30  C   UNL     1     103.659 124.765 146.838  0.00  0.00    +0.000 C 
ATOM     31  C   UNL     1     103.222 124.113 146.583  0.00  0.00    +0.000 C 
ATOM     32  C   UNL     1     103.599 123.481 146.213  0.00  0.00    +0.000 C 
ATOM     33  C   UNL     1     104.416 123.500 146.096  0.00  0.00    +0.000 C 
ENDBRANCH  24  29
ENDBRANCH  17  24
ENDBRANCH   5  19
BRANCH  12  35
ATOM     34  C   UNL     1     105.137 129.638 142.053  0.00  0.00    +0.000 A 
ATOM     35  C   UNL     1     105.506 128.504 143.193  0.00  0.00    +0.000 A 
ATOM     36  C   UNL     1     105.821 129.718 142.508  0.00  0.00    +0.000 A 
ATOM     37  C   UNL     1     104.638 128.992 142.168  0.00  0.00    +0.000 A 
ATOM     38  C   UNL     1     106.005 129.150 143.079  0.00  0.00    +0.000 A 
ATOM     39  C   UNL     1     104.823 128.424 142.738  0.00  0.00    +0.000 A 
BRANCH  34  40
ATOM     40  O   UNL     1     104.952 130.205 141.483  0.00  0.00    +0.000 OA
BRANCH  40  49
ATOM     41  O   UNL     1     103.971 130.945 142.211  0.00  0.00    +0.000 OA
ATOM     42  O   UNL     1     104.959 133.061 141.391  0.00  0.00    +0.000 OA
ATOM     43  O   UNL     1     103.649 133.096 142.392  0.00  0.00    +0.000 OA
ATOM     44  O   UNL     1     105.611 131.615 140.936  0.00  0.00    +0.000 OA
ATOM     45  C   UNL     1     104.630 132.356 141.664  0.00  0.00    +0.000 C 
ATOM     46  C   UNL     1     103.974 132.373 142.165  0.00  0.00    +0.000 C 
ATOM     47  C   UNL     1     104.956 131.632 141.437  0.00  0.00    +0.000 C 
ATOM     48  C   UNL     1     103.645 131.669 142.438  0.00  0.00    +0.000 C 
ATOM     49  C   UNL     1     104.627 130.928 141.710  0.00  0.00    +0.000 C 
BRANCH  48  51
ATOM     50  O   UNL     1     102.324 131.231 142.762  0.00  0.00    +0.000 OA
ATOM     51  C   UNL     1     102.990 131.686 142.939  0.00  0.00    +0.000 C 
ENDBRANCH  48  51
ENDBRANCH  40  49
ENDBRANCH  34  40
ENDBRANCH  12  35
TORSDOF 8
ENDMDL
MODEL 3
REMARK VINA RESULT:     -10.1      0.944      1.861
REMARK  Name = 71307582
REMARK  8 active torsions:
REMARK  status: ('A' for Active; 'I' for Inactive)
REMARK    1  A    between atoms: O_2  and  C_20
REMARK    2  A    between atoms: O_2  and  C_25
REMARK    3  A    between atoms: O_13  and  C_38
REMARK    4  A    between atoms: O_13  and  C_46
REMARK    5  A    between atoms: C_22  and  C_26
REMARK    6  A    between atoms: C_24  and  C_29
REMARK    7  A    between atoms: C_37  and  C_42
REMARK    8  A    between atoms: C_44  and  C_47
REMARK                            x       y       z     vdW  Elec       q    Type
REMARK                         _______ _______ _______ _____ _____    ______ ____
ROOT
ATOM      1  O   UNL     1     110.700 125.275 139.105  0.00  0.00    +0.000 OA
ATOM      2  O   UNL     1     112.511 127.001 137.722  0.00  0.00    +0.000 OA
ATOM      3  O   UNL     1     111.646 127.695 140.380  0.00  0.00    +0.000 OA
ATOM      4  O   UNL     1     110.244 125.588 140.437  0.00  0.00    +0.000 OA
ATOM      5  C   UNL     1     111.606 126.138 138.413  0.00  0.00    +0.000 A 
ATOM      6  C   UNL     1     111.158 125.961 139.083  0.00  0.00    +0.000 A 
ATOM      7  C   UNL     1     112.064 126.824 138.392  0.00  0.00    +0.000 A 
ATOM      8  C   UNL     1     111.169 126.471 139.732  0.00  0.00    +0.000 A 
ATOM      9  C   UNL     1     112.074 127.334 139.041  0.00  0.00    +0.000 A 
ATOM     10  C   UNL     1     111.627 127.156 139.711  0.00  0.00    +0.000 A 
ATOM     11  C   UNL     1     110.699 126.276 140.424  0.00  0.00    +0.000 A 
ATOM     12  C   UNL     1     111.182 127.516 141.082  0.00  0.00    +0.000 A 
ATOM     13  C   UNL     1     110.706 126.802 141.103  0.00  0.00    +0.000 A 
ENDROOT
BRANCH   5  19
ATOM     14  O   UNL     1     112.197 125.075 137.664  0.00  0.00    +0.000 OA
ATOM     15  O   UNL     1     110.356 125.210 136.016  0.00  0.00    +0.000 OA
ATOM     16  O   UNL     1     111.563 124.101 135.817  0.00  0.00    +0.000 OA
ATOM     17  C   UNL     1     110.981 125.674 137.215  0.00  0.00    +0.000 C 
ATOM     18  C   UNL     1     110.970 125.165 136.566  0.00  0.00    +0.000 C 
ATOM     19  C   UNL     1     111.595 125.629 137.764  0.00  0.00    +0.000 C 
ATOM     20  C   UNL     1     111.573 124.610 136.466  0.00  0.00    +0.000 C 
ATOM     21  C   UNL     1     112.187 124.566 137.015  0.00  0.00    +0.000 C 
BRANCH  21  23
ATOM     22  O   UNL     1     113.532 124.145 137.251  0.00  0.00    +0.000 OA
ATOM     23  C   UNL     1     112.790 124.012 136.916  0.00  0.00    +0.000 C 
ENDBRANCH  21  23
BRANCH  17  24
ATOM     24  O   UNL     1     110.378 126.228 137.315  0.00  0.00    +0.000 OA
BRANCH  24  29
ATOM     25  O   UNL     1     110.720 126.928 136.116  0.00  0.00    +0.000 OA
ATOM     26  O   UNL     1     108.835 126.801 137.208  0.00  0.00    +0.000 OA
ATOM     27  O   UNL     1     108.404 127.786 135.956  0.00  0.00    +0.000 OA
ATOM     28  O   UNL     1     109.518 128.199 134.811  0.00  0.00    +0.000 OA
ATOM     29  C   UNL     1     110.163 126.721 136.689  0.00  0.00    +0.000 C 
ATOM     30  C   UNL     1     109.392 127.007 136.635  0.00  0.00    +0.000 C 
ATOM     31  C   UNL     1     109.177 127.500 136.009  0.00  0.00    +0.000 C 
ATOM     32  C   UNL     1     109.733 127.706 135.437  0.00  0.00    +0.000 C 
ATOM     33  C   UNL     1     110.505 127.420 135.490  0.00  0.00    +0.000 C 
ENDBRANCH  24  29
ENDBRANCH  17  24
ENDBRANCH   5  19
BRANCH  12  35
ATOM     34  C   UNL     1     111.220 129.049 143.024  0.00  0.00    +0.000 A 
ATOM     35  C   UNL     1     111.195 128.027 141.729  0.00  0.00    +0.000 A 
ATOM     36  C   UNL     1     111.850 128.533 142.895  0.00  0.00    +0.000 A 
ATOM     37  C   UNL     1     110.578 129.055 142.507  0.00  0.00    +0.000 A 
ATOM     38  C   UNL     1     111.838 128.021 142.247  0.00  0.00    +0.000 A 
ATOM     39  C   UNL     1     110.565 128.543 141.859  0.00  0.00    +0.000 A 
BRANCH  34  40
ATOM     40  O   UNL     1     111.232 129.561 143.672  0.00  0.00    +0.000 OA
BRANCH  40  49
ATOM     41  O   UNL     1     112.067 130.590 143.137  0.00  0.00    +0.000 OA
ATOM     42  O   UNL     1     110.556 132.307 144.085  0.00  0.00    +0.000 OA
ATOM     43  O   UNL     1     111.893 132.763 143.234  0.00  0.00    +0.000 OA
ATOM     44  O   UNL     1     110.225 130.705 144.304  0.00  0.00    +0.000 OA
ATOM     45  C   UNL     1     111.060 131.734 143.769  0.00  0.00    +0.000 C 
ATOM     46  C   UNL     1     111.729 131.962 143.343  0.00  0.00    +0.000 C 
ATOM     47  C   UNL     1     110.894 130.933 143.878  0.00  0.00    +0.000 C 
ATOM     48  C   UNL     1     112.231 131.391 143.028  0.00  0.00    +0.000 C 
ATOM     49  C   UNL     1     111.397 130.361 143.563  0.00  0.00    +0.000 C 
BRANCH  48  51
ATOM     50  O   UNL     1     113.015 131.339 141.834  0.00  0.00    +0.000 OA
ATOM     51  C   UNL     1     112.900 131.619 142.602  0.00  0.00    +0.000 C 
ENDBRANCH  48  51
ENDBRANCH  40  49
ENDBRANCH  34  40
ENDBRANCH  12  35
TORSDOF 8
ENDMDL
MODEL 4
REMARK VINA RESULT:     -10.1      3.407      5.429
REMARK  Name = 71307582
REMARK  8 active torsions:
REMARK  status: ('A' for Active; 'I' for Inactive)
REMARK    1  A    between atoms: O_2  and  C_20
REMARK    2  A    between atoms: O_2  and  C_25
REMARK    3  A    between atoms: O_13  and  C_38
REMARK    4  A    between atoms: O_13  and  C_46
REMARK    5  A    between atoms: C_22  and  C_26
REMARK    6  A    between atoms: C_24  and  C_29
REMARK    7  A    between atoms: C_37  and  C_42
REMARK    8  A    between atoms: C_44  and  C_47
REMARK                            x       y       z     vdW  Elec       q    Type
REMARK                         _______ _______ _______ _____ _____    ______ ____
ROOT
ATOM      1  O   UNL     1     112.779 126.534 138.997  0.00  0.00    +0.000 OA
ATOM      2  O   UNL     1     111.509 125.401 136.701  0.00  0.00    +0.000 OA
ATOM      3  O   UNL     1     109.998 125.744 139.129  0.00  0.00    +0.000 OA
ATOM      4  O   UNL     1     112.057 126.723 140.231  0.00  0.00    +0.000 OA
ATOM      5  C   UNL     1     112.144 125.968 137.849  0.00  0.00    +0.000 A 
ATOM      6  C   UNL     1     112.110 126.215 138.635  0.00  0.00    +0.000 A 
ATOM      7  C   UNL     1     111.474 125.648 137.488  0.00  0.00    +0.000 A 
ATOM      8  C   UNL     1     111.406 126.143 139.060  0.00  0.00    +0.000 A 
ATOM      9  C   UNL     1     110.771 125.576 137.912  0.00  0.00    +0.000 A 
ATOM     10  C   UNL     1     110.737 125.824 138.698  0.00  0.00    +0.000 A 
ATOM     11  C   UNL     1     111.383 126.405 139.878  0.00  0.00    +0.000 A 
ATOM     12  C   UNL     1     109.956 126.000 139.949  0.00  0.00    +0.000 A 
ATOM     13  C   UNL     1     110.653 126.332 140.325  0.00  0.00    +0.000 A 
ENDROOT
BRANCH   5  19
ATOM     14  O   UNL     1     113.445 125.479 137.517  0.00  0.00    +0.000 OA
ATOM     15  O   UNL     1     113.764 127.379 135.964  0.00  0.00    +0.000 OA
ATOM     16  O   UNL     1     114.959 126.256 136.151  0.00  0.00    +0.000 OA
ATOM     17  C   UNL     1     112.954 126.673 136.907  0.00  0.00    +0.000 C 
ATOM     18  C   UNL     1     113.657 126.745 136.482  0.00  0.00    +0.000 C 
ATOM     19  C   UNL     1     112.848 126.039 137.424  0.00  0.00    +0.000 C 
ATOM     20  C   UNL     1     114.255 126.184 136.575  0.00  0.00    +0.000 C 
ATOM     21  C   UNL     1     114.149 125.551 137.093  0.00  0.00    +0.000 C 
BRANCH  21  23
ATOM     22  O   UNL     1     114.564 124.238 137.474  0.00  0.00    +0.000 OA
ATOM     23  C   UNL     1     114.746 124.989 137.186  0.00  0.00    +0.000 C 
ENDBRANCH  21  23
BRANCH  17  24
ATOM     24  O   UNL     1     112.357 127.234 136.814  0.00  0.00    +0.000 OA
BRANCH  24  29
ATOM     25  O   UNL     1     113.146 128.292 137.364  0.00  0.00    +0.000 OA
ATOM     26  O   UNL     1     111.484 128.336 135.950  0.00  0.00    +0.000 OA
ATOM     27  O   UNL     1     111.836 129.944 136.068  0.00  0.00    +0.000 OA
ATOM     28  O   UNL     1     113.062 130.450 137.050  0.00  0.00    +0.000 OA
ATOM     29  C   UNL     1     112.533 128.038 136.873  0.00  0.00    +0.000 C 
ATOM     30  C   UNL     1     112.097 128.589 136.441  0.00  0.00    +0.000 C 
ATOM     31  C   UNL     1     112.274 129.393 136.500  0.00  0.00    +0.000 C 
ATOM     32  C   UNL     1     112.886 129.646 136.990  0.00  0.00    +0.000 C 
ATOM     33  C   UNL     1     113.323 129.095 137.423  0.00  0.00    +0.000 C 
ENDBRANCH  24  29
ENDBRANCH  17  24
ENDBRANCH   5  19
BRANCH  12  35
ATOM     34  C   UNL     1     107.840 125.781 141.215  0.00  0.00    +0.000 A 
ATOM     35  C   UNL     1     109.251 125.927 140.371  0.00  0.00    +0.000 A 
ATOM     36  C   UNL     1     108.036 126.500 140.861  0.00  0.00    +0.000 A 
ATOM     37  C   UNL     1     108.349 125.136 141.148  0.00  0.00    +0.000 A 
ATOM     38  C   UNL     1     108.742 126.573 140.438  0.00  0.00    +0.000 A 
ATOM     39  C   UNL     1     109.055 125.209 140.725  0.00  0.00    +0.000 A 
BRANCH  34  40
ATOM     40  O   UNL     1     107.135 125.708 141.637  0.00  0.00    +0.000 OA
BRANCH  40  49
ATOM     41  O   UNL     1     106.336 125.200 140.567  0.00  0.00    +0.000 OA
ATOM     42  O   UNL     1     105.176 123.691 142.149  0.00  0.00    +0.000 OA
ATOM     43  O   UNL     1     104.764 123.686 140.552  0.00  0.00    +0.000 OA
ATOM     44  O   UNL     1     106.362 124.702 142.692  0.00  0.00    +0.000 OA
ATOM     45  C   UNL     1     105.563 124.194 141.622  0.00  0.00    +0.000 C 
ATOM     46  C   UNL     1     105.357 124.192 140.823  0.00  0.00    +0.000 C 
ATOM     47  C   UNL     1     106.156 124.700 141.893  0.00  0.00    +0.000 C 
ATOM     48  C   UNL     1     105.744 124.694 140.296  0.00  0.00    +0.000 C 
ATOM     49  C   UNL     1     106.543 125.202 141.366  0.00  0.00    +0.000 C 
BRANCH  48  51
ATOM     50  O   UNL     1     105.350 125.401 139.118  0.00  0.00    +0.000 OA
ATOM     51  C   UNL     1     105.538 124.692 139.497  0.00  0.00    +0.000 C 
ENDBRANCH  48  51
ENDBRANCH  40  49
ENDBRANCH  34  40
ENDBRANCH  12  35
TORSDOF 8
ENDMDL
MODEL 5
REMARK VINA RESULT:     -10.0      5.827      9.230
REMARK  Name = 71307582
REMARK  8 active torsions:
REMARK  status: ('A' for Active; 'I' for Inactive)
REMARK    1  A    between atoms: O_2  and  C_20
REMARK    2  A    between atoms: O_2  and  C_25
REMARK    3  A    between atoms: O_13  and  C_38
REMARK    4  A    between atoms: O_13  and  C_46
REMARK    5  A    between atoms: C_22  and  C_26
REMARK    6  A    between atoms: C_24  and  C_29
REMARK    7  A    between atoms: C_37  and  C_42
REMARK    8  A    between atoms: C_44  and  C_47
REMARK                            x       y       z     vdW  Elec       q    Type
REMARK                         _______ _______ _______ _____ _____    ______ ____
ROOT
ATOM      1  O   UNL     1     109.581 131.476 143.780  0.00  0.00    +0.000 OA
ATOM      2  O   UNL     1     111.588 129.881 145.042  0.00  0.00    +0.000 OA
ATOM      3  O   UNL     1     108.821 129.116 145.271  0.00  0.00    +0.000 OA
ATOM      4  O   UNL     1     108.184 131.127 143.872  0.00  0.00    +0.000 OA
ATOM      5  C   UNL     1     110.585 130.679 144.411  0.00  0.00    +0.000 A 
ATOM      6  C   UNL     1     109.791 130.822 144.236  0.00  0.00    +0.000 A 
ATOM      7  C   UNL     1     110.795 130.024 144.867  0.00  0.00    +0.000 A 
ATOM      8  C   UNL     1     109.208 130.310 144.517  0.00  0.00    +0.000 A 
ATOM      9  C   UNL     1     110.212 129.512 145.148  0.00  0.00    +0.000 A 
ATOM     10  C   UNL     1     109.419 129.656 144.973  0.00  0.00    +0.000 A 
ATOM     11  C   UNL     1     108.386 130.470 144.328  0.00  0.00    +0.000 A 
ATOM     12  C   UNL     1     107.992 129.259 145.093  0.00  0.00    +0.000 A 
ATOM     13  C   UNL     1     107.774 129.941 144.618  0.00  0.00    +0.000 A 
ENDROOT
BRANCH   5  19
ATOM     14  O   UNL     1     111.600 130.993 143.457  0.00  0.00    +0.000 OA
ATOM     15  O   UNL     1     112.051 133.122 144.636  0.00  0.00    +0.000 OA
ATOM     16  O   UNL     1     112.917 132.726 143.288  0.00  0.00    +0.000 OA
ATOM     17  C   UNL     1     111.317 131.900 144.523  0.00  0.00    +0.000 C 
ATOM     18  C   UNL     1     111.900 132.412 144.243  0.00  0.00    +0.000 C 
ATOM     19  C   UNL     1     111.168 131.190 144.130  0.00  0.00    +0.000 C 
ATOM     20  C   UNL     1     112.334 132.214 143.569  0.00  0.00    +0.000 C 
ATOM     21  C   UNL     1     112.184 131.504 143.176  0.00  0.00    +0.000 C 
BRANCH  21  23
ATOM     22  O   UNL     1     112.225 131.076 141.813  0.00  0.00    +0.000 OA
ATOM     23  C   UNL     1     112.616 131.306 142.502  0.00  0.00    +0.000 C 
ENDBRANCH  21  23
BRANCH  17  24
ATOM     24  O   UNL     1     110.885 132.098 145.197  0.00  0.00    +0.000 OA
BRANCH  24  29
ATOM     25  O   UNL     1     112.025 132.033 146.056  0.00  0.00    +0.000 OA
ATOM     26  O   UNL     1     110.169 133.167 146.230  0.00  0.00    +0.000 OA
ATOM     27  O   UNL     1     110.951 133.637 147.604  0.00  0.00    +0.000 OA
ATOM     28  O   UNL     1     112.449 133.038 147.947  0.00  0.00    +0.000 OA
ATOM     29  C   UNL     1     111.276 132.333 145.884  0.00  0.00    +0.000 C 
ATOM     30  C   UNL     1     110.918 132.867 146.401  0.00  0.00    +0.000 C 
ATOM     31  C   UNL     1     111.309 133.102 147.088  0.00  0.00    +0.000 C 
ATOM     32  C   UNL     1     112.058 132.803 147.260  0.00  0.00    +0.000 C 
ATOM     33  C   UNL     1     112.417 132.268 146.744  0.00  0.00    +0.000 C 
ENDBRANCH  24  29
ENDBRANCH  17  24
ENDBRANCH   5  19
BRANCH  12  35
ATOM     34  C   UNL     1     106.250 127.719 145.940  0.00  0.00    +0.000 A 
ATOM     35  C   UNL     1     107.411 128.746 145.375  0.00  0.00    +0.000 A 
ATOM     36  C   UNL     1     106.542 127.629 145.173  0.00  0.00    +0.000 A 
ATOM     37  C   UNL     1     106.537 128.322 146.423  0.00  0.00    +0.000 A 
ATOM     38  C   UNL     1     107.124 128.143 144.891  0.00  0.00    +0.000 A 
ATOM     39  C   UNL     1     107.119 128.836 146.140  0.00  0.00    +0.000 A 
BRANCH  34  40
ATOM     40  O   UNL     1     105.669 127.206 146.222  0.00  0.00    +0.000 OA
BRANCH  40  49
ATOM     41  O   UNL     1     106.542 126.353 146.964  0.00  0.00    +0.000 OA
ATOM     42  O   UNL     1     105.170 124.394 146.326  0.00  0.00    +0.000 OA
ATOM     43  O   UNL     1     106.500 124.194 147.280  0.00  0.00    +0.000 OA
ATOM     44  O   UNL     1     104.754 125.900 145.796  0.00  0.00    +0.000 OA
ATOM     45  C   UNL     1     105.628 125.047 146.538  0.00  0.00    +0.000 C 
ATOM     46  C   UNL     1     106.293 124.947 147.016  0.00  0.00    +0.000 C 
ATOM     47  C   UNL     1     105.419 125.801 146.274  0.00  0.00    +0.000 C 
ATOM     48  C   UNL     1     106.750 125.599 147.228  0.00  0.00    +0.000 C 
ATOM     49  C   UNL     1     105.876 126.453 146.486  0.00  0.00    +0.000 C 
BRANCH  48  51
ATOM     50  O   UNL     1     108.170 125.558 147.377  0.00  0.00    +0.000 OA
ATOM     51  C   UNL     1     107.415 125.500 147.705  0.00  0.00    +0.000 C 
ENDBRANCH  48  51
ENDBRANCH  40  49
ENDBRANCH  34  40
ENDBRANCH  12  35
TORSDOF 8
ENDMDL
MODEL 6
REMARK VINA RESULT:      -9.9      1.743      7.284
REMARK  Name = 71307582
REMARK  8 active torsions:
REMARK  status: ('A' for Active; 'I' for Inactive)
REMARK    1  A    between atoms: O_2  and  C_20
REMARK    2  A    between atoms: O_2  and  C_25
REMARK    3  A    between atoms: O_13  and  C_38
REMARK    4  A    between atoms: O_13  and  C_46
REMARK    5  A    between atoms: C_22  and  C_26
REMARK    6  A    between atoms: C_24  and  C_29
REMARK    7  A    between atoms: C_37  and  C_42
REMARK    8  A    between atoms: C_44  and  C_47
REMARK                            x       y       z     vdW  Elec       q    Type
REMARK                         _______ _______ _______ _____ _____    ______ ____
ROOT
ATOM      1  O   UNL     1     112.647 129.835 142.316  0.00  0.00    +0.000 OA
ATOM      2  O   UNL     1     110.632 127.901 142.923  0.00  0.00    +0.000 OA
ATOM      3  O   UNL     1     112.240 127.574 140.556  0.00  0.00    +0.000 OA
ATOM      4  O   UNL     1     113.473 129.707 141.140  0.00  0.00    +0.000 OA
ATOM      5  C   UNL     1     111.639 128.869 142.620  0.00  0.00    +0.000 A 
ATOM      6  C   UNL     1     112.244 129.140 142.128  0.00  0.00    +0.000 A 
ATOM      7  C   UNL     1     111.236 128.173 142.432  0.00  0.00    +0.000 A 
ATOM      8  C   UNL     1     112.444 128.718 141.449  0.00  0.00    +0.000 A 
ATOM      9  C   UNL     1     111.437 127.751 141.752  0.00  0.00    +0.000 A 
ATOM     10  C   UNL     1     112.040 128.023 141.261  0.00  0.00    +0.000 A 
ATOM     11  C   UNL     1     113.075 129.011 140.945  0.00  0.00    +0.000 A 
ATOM     12  C   UNL     1     112.869 127.852 140.040  0.00  0.00    +0.000 A 
ATOM     13  C   UNL     1     113.288 128.576 140.236  0.00  0.00    +0.000 A 
ENDROOT
BRANCH   5  19
ATOM     14  O   UNL     1     111.759 129.077 144.028  0.00  0.00    +0.000 OA
ATOM     15  O   UNL     1     110.196 130.989 143.879  0.00  0.00    +0.000 OA
ATOM     16  O   UNL     1     110.837 130.560 145.338  0.00  0.00    +0.000 OA
ATOM     17  C   UNL     1     110.918 129.928 143.249  0.00  0.00    +0.000 C 
ATOM     18  C   UNL     1     110.717 130.352 143.928  0.00  0.00    +0.000 C 
ATOM     19  C   UNL     1     111.439 129.291 143.300  0.00  0.00    +0.000 C 
ATOM     20  C   UNL     1     111.037 130.137 144.658  0.00  0.00    +0.000 C 
ATOM     21  C   UNL     1     111.558 129.499 144.708  0.00  0.00    +0.000 C 
BRANCH  21  23
ATOM     22  O   UNL     1     111.943 128.488 145.640  0.00  0.00    +0.000 OA
ATOM     23  C   UNL     1     111.879 129.284 145.437  0.00  0.00    +0.000 C 
ENDBRANCH  21  23
BRANCH  17  24
ATOM     24  O   UNL     1     110.597 130.144 142.520  0.00  0.00    +0.000 OA
BRANCH  24  29
ATOM     25  O   UNL     1     109.269 129.831 142.945  0.00  0.00    +0.000 OA
ATOM     26  O   UNL     1     109.989 131.128 141.344  0.00  0.00    +0.000 OA
ATOM     27  O   UNL     1     108.357 131.308 141.181  0.00  0.00    +0.000 OA
ATOM     28  O   UNL     1     107.333 130.504 142.193  0.00  0.00    +0.000 OA
ATOM     29  C   UNL     1     109.781 130.233 142.439  0.00  0.00    +0.000 C 
ATOM     30  C   UNL     1     109.477 130.726 141.851  0.00  0.00    +0.000 C 
ATOM     31  C   UNL     1     108.661 130.816 141.770  0.00  0.00    +0.000 C 
ATOM     32  C   UNL     1     108.149 130.414 142.275  0.00  0.00    +0.000 C 
ATOM     33  C   UNL     1     108.452 129.921 142.863  0.00  0.00    +0.000 C 
ENDBRANCH  24  29
ENDBRANCH  17  24
ENDBRANCH   5  19
BRANCH  12  35
ATOM     34  C   UNL     1     113.464 126.578 138.003  0.00  0.00    +0.000 A 
ATOM     35  C   UNL     1     113.067 127.428 139.361  0.00  0.00    +0.000 A 
ATOM     36  C   UNL     1     113.610 126.256 138.748  0.00  0.00    +0.000 A 
ATOM     37  C   UNL     1     113.120 127.325 137.936  0.00  0.00    +0.000 A 
ATOM     38  C   UNL     1     113.411 126.681 139.428  0.00  0.00    +0.000 A 
ATOM     39  C   UNL     1     112.921 127.750 138.616  0.00  0.00    +0.000 A 
BRANCH  34  40
ATOM     40  O   UNL     1     113.662 126.154 137.324  0.00  0.00    +0.000 OA
BRANCH  40  49
ATOM     41  O   UNL     1     112.367 125.759 136.867  0.00  0.00    +0.000 OA
ATOM     42  O   UNL     1     113.192 123.452 136.519  0.00  0.00    +0.000 OA
ATOM     43  O   UNL     1     111.623 123.827 136.178  0.00  0.00    +0.000 OA
ATOM     44  O   UNL     1     114.212 124.615 137.092  0.00  0.00    +0.000 OA
ATOM     45  C   UNL     1     112.917 124.221 136.635  0.00  0.00    +0.000 C 
ATOM     46  C   UNL     1     112.132 124.409 136.464  0.00  0.00    +0.000 C 
ATOM     47  C   UNL     1     113.428 124.803 136.922  0.00  0.00    +0.000 C 
ATOM     48  C   UNL     1     111.858 125.177 136.580  0.00  0.00    +0.000 C 
ATOM     49  C   UNL     1     113.153 125.572 137.038  0.00  0.00    +0.000 C 
BRANCH  48  51
ATOM     50  O   UNL     1     110.901 125.972 135.877  0.00  0.00    +0.000 OA
ATOM     51  C   UNL     1     111.073 125.365 136.410  0.00  0.00    +0.000 C 
ENDBRANCH  48  51
ENDBRANCH  40  49
ENDBRANCH  34  40
ENDBRANCH  12  35
TORSDOF 8
ENDMDL
MODEL 7
REMARK VINA RESULT:      -9.9      4.684      8.469
REMARK  Name = 71307582
REMARK  8 active torsions:
REMARK  status: ('A' for Active; 'I' for Inactive)
REMARK    1  A    between atoms: O_2  and  C_20
REMARK    2  A    between atoms: O_2  and  C_25
REMARK    3  A    between atoms: O_13  and  C_38
REMARK    4  A    between atoms: O_13  and  C_46
REMARK    5  A    between atoms: C_22  and  C_26
REMARK    6  A    between atoms: C_24  and  C_29
REMARK    7  A    between atoms: C_37  and  C_42
REMARK    8  A    between atoms: C_44  and  C_47
REMARK                            x       y       z     vdW  Elec       q    Type
REMARK                         _______ _______ _______ _____ _____    ______ ____
ROOT
ATOM      1  O   UNL     1     109.756 131.951 144.729  0.00  0.00    +0.000 OA
ATOM      2  O   UNL     1     111.714 129.889 145.012  0.00  0.00    +0.000 OA
ATOM      3  O   UNL     1     108.924 129.243 145.317  0.00  0.00    +0.000 OA
ATOM      4  O   UNL     1     108.349 131.668 144.875  0.00  0.00    +0.000 OA
ATOM      5  C   UNL     1     110.735 130.920 144.870  0.00  0.00    +0.000 A 
ATOM      6  C   UNL     1     109.946 131.161 144.873  0.00  0.00    +0.000 A 
ATOM      7  C   UNL     1     110.925 130.130 145.014  0.00  0.00    +0.000 A 
ATOM      8  C   UNL     1     109.348 130.613 145.020  0.00  0.00    +0.000 A 
ATOM      9  C   UNL     1     110.326 129.581 145.161  0.00  0.00    +0.000 A 
ATOM     10  C   UNL     1     109.538 129.823 145.163  0.00  0.00    +0.000 A 
ATOM     11  C   UNL     1     108.530 130.877 145.020  0.00  0.00    +0.000 A 
ATOM     12  C   UNL     1     108.100 129.488 145.322  0.00  0.00    +0.000 A 
ATOM     13  C   UNL     1     107.902 130.311 145.172  0.00  0.00    +0.000 A 
ENDROOT
BRANCH   5  19
ATOM     14  O   UNL     1     111.759 131.793 145.351  0.00  0.00    +0.000 OA
ATOM     15  O   UNL     1     112.278 132.465 143.026  0.00  0.00    +0.000 OA
ATOM     16  O   UNL     1     113.129 133.114 144.283  0.00  0.00    +0.000 OA
ATOM     17  C   UNL     1     111.506 131.692 143.949  0.00  0.00    +0.000 C 
ATOM     18  C   UNL     1     112.105 132.241 143.801  0.00  0.00    +0.000 C 
ATOM     19  C   UNL     1     111.334 131.469 144.724  0.00  0.00    +0.000 C 
ATOM     20  C   UNL     1     112.531 132.565 144.429  0.00  0.00    +0.000 C 
ATOM     21  C   UNL     1     112.357 132.341 145.204  0.00  0.00    +0.000 C 
BRANCH  21  23
ATOM     22  O   UNL     1     112.407 132.814 146.552  0.00  0.00    +0.000 OA
ATOM     23  C   UNL     1     112.783 132.665 145.832  0.00  0.00    +0.000 C 
ENDBRANCH  21  23
BRANCH  17  24
ATOM     24  O   UNL     1     111.081 131.368 143.321  0.00  0.00    +0.000 OA
BRANCH  24  29
ATOM     25  O   UNL     1     112.215 130.687 142.778  0.00  0.00    +0.000 OA
ATOM     26  O   UNL     1     110.412 131.450 141.815  0.00  0.00    +0.000 OA
ATOM     27  O   UNL     1     111.210 130.811 140.520  0.00  0.00    +0.000 OA
ATOM     28  O   UNL     1     112.679 130.089 140.731  0.00  0.00    +0.000 OA
ATOM     29  C   UNL     1     111.481 131.048 142.673  0.00  0.00    +0.000 C 
ATOM     30  C   UNL     1     111.146 131.089 141.921  0.00  0.00    +0.000 C 
ATOM     31  C   UNL     1     111.546 130.769 141.273  0.00  0.00    +0.000 C 
ATOM     32  C   UNL     1     112.279 130.409 141.378  0.00  0.00    +0.000 C 
ATOM     33  C   UNL     1     112.615 130.367 142.131  0.00  0.00    +0.000 C 
ENDBRANCH  24  29
ENDBRANCH  17  24
ENDBRANCH   5  19
BRANCH  12  35
ATOM     34  C   UNL     1     106.310 127.836 145.762  0.00  0.00    +0.000 A 
ATOM     35  C   UNL     1     107.503 128.938 145.469  0.00  0.00    +0.000 A 
ATOM     36  C   UNL     1     106.705 127.832 145.038  0.00  0.00    +0.000 A 
ATOM     37  C   UNL     1     106.511 128.390 146.339  0.00  0.00    +0.000 A 
ATOM     38  C   UNL     1     107.302 128.383 144.891  0.00  0.00    +0.000 A 
ATOM     39  C   UNL     1     107.108 128.941 146.192  0.00  0.00    +0.000 A 
BRANCH  34  40
ATOM     40  O   UNL     1     105.713 127.286 145.909  0.00  0.00    +0.000 OA
BRANCH  40  49
ATOM     41  O   UNL     1     106.513 126.422 146.720  0.00  0.00    +0.000 OA
ATOM     42  O   UNL     1     105.275 124.462 145.853  0.00  0.00    +0.000 OA
ATOM     43  O   UNL     1     106.487 124.253 146.952  0.00  0.00    +0.000 OA
ATOM     44  O   UNL     1     104.888 125.979 145.332  0.00  0.00    +0.000 OA
ATOM     45  C   UNL     1     105.688 125.116 146.142  0.00  0.00    +0.000 C 
ATOM     46  C   UNL     1     106.294 125.011 146.692  0.00  0.00    +0.000 C 
ATOM     47  C   UNL     1     105.494 125.875 145.881  0.00  0.00    +0.000 C 
ATOM     48  C   UNL     1     106.706 125.664 146.980  0.00  0.00    +0.000 C 
ATOM     49  C   UNL     1     105.906 126.527 146.170  0.00  0.00    +0.000 C 
BRANCH  48  51
ATOM     50  O   UNL     1     108.100 125.633 147.293  0.00  0.00    +0.000 OA
ATOM     51  C   UNL     1     107.312 125.559 147.530  0.00  0.00    +0.000 C 
ENDBRANCH  48  51
ENDBRANCH  40  49
ENDBRANCH  34  40
ENDBRANCH  12  35
TORSDOF 8
ENDMDL
MODEL 8
REMARK VINA RESULT:      -9.9      2.332      3.228
REMARK  Name = 71307582
REMARK  8 active torsions:
REMARK  status: ('A' for Active; 'I' for Inactive)
REMARK    1  A    between atoms: O_2  and  C_20
REMARK    2  A    between atoms: O_2  and  C_25
REMARK    3  A    between atoms: O_13  and  C_38
REMARK    4  A    between atoms: O_13  and  C_46
REMARK    5  A    between atoms: C_22  and  C_26
REMARK    6  A    between atoms: C_24  and  C_29
REMARK    7  A    between atoms: C_37  and  C_42
REMARK    8  A    between atoms: C_44  and  C_47
REMARK                            x       y       z     vdW  Elec       q    Type
REMARK                         _______ _______ _______ _____ _____    ______ ____
ROOT
ATOM      1  O   UNL     1     111.985 128.394 138.107  0.00  0.00    +0.000 OA
ATOM      2  O   UNL     1     112.352 131.143 137.414  0.00  0.00    +0.000 OA
ATOM      3  O   UNL     1     111.798 130.435 140.150  0.00  0.00    +0.000 OA
ATOM      4  O   UNL     1     111.706 127.999 139.466  0.00  0.00    +0.000 OA
ATOM      5  C   UNL     1     112.169 129.768 137.760  0.00  0.00    +0.000 A 
ATOM      6  C   UNL     1     112.016 129.189 138.327  0.00  0.00    +0.000 A 
ATOM      7  C   UNL     1     112.199 130.563 137.981  0.00  0.00    +0.000 A 
ATOM      8  C   UNL     1     111.893 129.404 139.114  0.00  0.00    +0.000 A 
ATOM      9  C   UNL     1     112.077 130.778 138.768  0.00  0.00    +0.000 A 
ATOM     10  C   UNL     1     111.924 130.198 139.334  0.00  0.00    +0.000 A 
ATOM     11  C   UNL     1     111.734 128.791 139.695  0.00  0.00    +0.000 A 
ATOM     12  C   UNL     1     111.637 129.835 140.746  0.00  0.00    +0.000 A 
ATOM     13  C   UNL     1     111.606 129.008 140.516  0.00  0.00    +0.000 A 
ENDROOT
BRANCH   5  19
ATOM     14  O   UNL     1     113.025 129.263 136.734  0.00  0.00    +0.000 OA
ATOM     15  O   UNL     1     111.190 129.489 135.090  0.00  0.00    +0.000 OA
ATOM     16  O   UNL     1     112.659 128.909 134.612  0.00  0.00    +0.000 OA
ATOM     17  C   UNL     1     111.680 129.629 136.426  0.00  0.00    +0.000 C 
ATOM     18  C   UNL     1     111.801 129.414 135.639  0.00  0.00    +0.000 C 
ATOM     19  C   UNL     1     112.292 129.553 136.973  0.00  0.00    +0.000 C 
ATOM     20  C   UNL     1     112.536 129.124 135.399  0.00  0.00    +0.000 C 
ATOM     21  C   UNL     1     113.148 129.048 135.947  0.00  0.00    +0.000 C 
BRANCH  21  23
ATOM     22  O   UNL     1     114.574 129.137 135.951  0.00  0.00    +0.000 OA
ATOM     23  C   UNL     1     113.882 128.758 135.709  0.00  0.00    +0.000 C 
ENDBRANCH  21  23
BRANCH  17  24
ATOM     24  O   UNL     1     110.945 129.919 136.664  0.00  0.00    +0.000 OA
BRANCH  24  29
ATOM     25  O   UNL     1     110.252 128.707 136.356  0.00  0.00    +0.000 OA
ATOM     26  O   UNL     1     109.566 130.779 136.380  0.00  0.00    +0.000 OA
ATOM     27  O   UNL     1     108.184 129.998 135.930  0.00  0.00    +0.000 OA
ATOM     28  O   UNL     1     108.181 128.356 135.764  0.00  0.00    +0.000 OA
ATOM     29  C   UNL     1     110.254 129.528 136.439  0.00  0.00    +0.000 C 
ATOM     30  C   UNL     1     109.565 129.958 136.297  0.00  0.00    +0.000 C 
ATOM     31  C   UNL     1     108.874 129.567 136.072  0.00  0.00    +0.000 C 
ATOM     32  C   UNL     1     108.871 128.747 135.989  0.00  0.00    +0.000 C 
ATOM     33  C   UNL     1     109.561 128.316 136.131  0.00  0.00    +0.000 C 
ENDBRANCH  24  29
ENDBRANCH  17  24
ENDBRANCH   5  19
BRANCH  12  35
ATOM     34  C   UNL     1     111.271 130.489 143.105  0.00  0.00    +0.000 A 
ATOM     35  C   UNL     1     111.515 130.053 141.532  0.00  0.00    +0.000 A 
ATOM     36  C   UNL     1     110.692 130.649 142.538  0.00  0.00    +0.000 A 
ATOM     37  C   UNL     1     111.970 130.112 142.886  0.00  0.00    +0.000 A 
ATOM     38  C   UNL     1     110.815 130.431 141.751  0.00  0.00    +0.000 A 
ATOM     39  C   UNL     1     112.092 129.894 142.099  0.00  0.00    +0.000 A 
BRANCH  34  40
ATOM     40  O   UNL     1     111.148 130.707 143.891  0.00  0.00    +0.000 OA
BRANCH  40  49
ATOM     41  O   UNL     1     111.700 132.020 143.769  0.00  0.00    +0.000 OA
ATOM     42  O   UNL     1     112.576 131.867 146.078  0.00  0.00    +0.000 OA
ATOM     43  O   UNL     1     112.835 133.229 145.186  0.00  0.00    +0.000 OA
ATOM     44  O   UNL     1     111.732 130.605 145.431  0.00  0.00    +0.000 OA
ATOM     45  C   UNL     1     112.284 131.918 145.308  0.00  0.00    +0.000 C 
ATOM     46  C   UNL     1     112.413 132.599 144.862  0.00  0.00    +0.000 C 
ATOM     47  C   UNL     1     111.862 131.286 144.984  0.00  0.00    +0.000 C 
ATOM     48  C   UNL     1     112.122 132.650 144.093  0.00  0.00    +0.000 C 
ATOM     49  C   UNL     1     111.570 131.337 144.215  0.00  0.00    +0.000 C 
BRANCH  48  51
ATOM     50  O   UNL     1     111.611 133.743 143.328  0.00  0.00    +0.000 OA
ATOM     51  C   UNL     1     112.251 133.331 143.646  0.00  0.00    +0.000 C 
ENDBRANCH  48  51
ENDBRANCH  40  49
ENDBRANCH  34  40
ENDBRANCH  12  35
TORSDOF 8
ENDMDL
MODEL 9
REMARK VINA RESULT:      -9.8      1.078      2.822
REMARK  Name = 71307582
REMARK  8 active torsions:
REMARK  status: ('A' for Active; 'I' for Inactive)
REMARK    1  A    between atoms: O_2  and  C_20
REMARK    2  A    between atoms: O_2  and  C_25
REMARK    3  A    between atoms: O_13  and  C_38
REMARK    4  A    between atoms: O_13  and  C_46
REMARK    5  A    between atoms: C_22  and  C_26
REMARK    6  A    between atoms: C_24  and  C_29
REMARK    7  A    between atoms: C_37  and  C_42
REMARK    8  A    between atoms: C_44  and  C_47
REMARK                            x       y       z     vdW  Elec       q    Type
REMARK                         _______ _______ _______ _____ _____    ______ ____
ROOT
ATOM      1  O   UNL     1     110.034 126.719 138.109  0.00  0.00    +0.000 OA
ATOM      2  O   UNL     1     111.411 128.319 136.182  0.00  0.00    +0.000 OA
ATOM      3  O   UNL     1     111.686 128.928 138.983  0.00  0.00    +0.000 OA
ATOM      4  O   UNL     1     110.146 126.992 139.521  0.00  0.00    +0.000 OA
ATOM      5  C   UNL     1     110.722 127.519 137.145  0.00  0.00    +0.000 A 
ATOM      6  C   UNL     1     110.536 127.350 137.930  0.00  0.00    +0.000 A 
ATOM      7  C   UNL     1     111.224 128.150 136.967  0.00  0.00    +0.000 A 
ATOM      8  C   UNL     1     110.850 127.811 138.538  0.00  0.00    +0.000 A 
ATOM      9  C   UNL     1     111.539 128.611 137.575  0.00  0.00    +0.000 A 
ATOM     10  C   UNL     1     111.352 128.441 138.360  0.00  0.00    +0.000 A 
ATOM     11  C   UNL     1     110.648 127.624 139.352  0.00  0.00    +0.000 A 
ATOM     12  C   UNL     1     111.495 128.757 139.804  0.00  0.00    +0.000 A 
ATOM     13  C   UNL     1     110.973 128.100 139.989  0.00  0.00    +0.000 A 
ENDROOT
BRANCH   5  19
ATOM     14  O   UNL     1     109.633 127.183 136.283  0.00  0.00    +0.000 OA
ATOM     15  O   UNL     1     111.014 125.424 135.223  0.00  0.00    +0.000 OA
ATOM     16  O   UNL     1     109.464 125.675 134.715  0.00  0.00    +0.000 OA
ATOM     17  C   UNL     1     110.868 126.472 136.184  0.00  0.00    +0.000 C 
ATOM     18  C   UNL     1     110.554 126.011 135.577  0.00  0.00    +0.000 C 
ATOM     19  C   UNL     1     110.407 127.058 136.537  0.00  0.00    +0.000 C 
ATOM     20  C   UNL     1     109.778 126.136 135.322  0.00  0.00    +0.000 C 
ATOM     21  C   UNL     1     109.318 126.722 135.676  0.00  0.00    +0.000 C 
BRANCH  21  23
ATOM     22  O   UNL     1     108.078 127.422 135.788  0.00  0.00    +0.000 OA
ATOM     23  C   UNL     1     108.544 126.848 135.422  0.00  0.00    +0.000 C 
ENDBRANCH  21  23
BRANCH  17  24
ATOM     24  O   UNL     1     111.643 126.347 136.438  0.00  0.00    +0.000 OA
BRANCH  24  29
ATOM     25  O   UNL     1     111.367 125.022 136.900  0.00  0.00    +0.000 OA
ATOM     26  O   UNL     1     113.226 125.939 136.220  0.00  0.00    +0.000 OA
ATOM     27  O   UNL     1     113.743 124.413 136.572  0.00  0.00    +0.000 OA
ATOM     28  O   UNL     1     112.675 123.292 137.144  0.00  0.00    +0.000 OA
ATOM     29  C   UNL     1     111.900 125.583 136.615  0.00  0.00    +0.000 C 
ATOM     30  C   UNL     1     112.692 125.379 136.505  0.00  0.00    +0.000 C 
ATOM     31  C   UNL     1     112.950 124.616 136.682  0.00  0.00    +0.000 C 
ATOM     32  C   UNL     1     112.417 124.055 136.967  0.00  0.00    +0.000 C 
ATOM     33  C   UNL     1     111.624 124.258 137.077  0.00  0.00    +0.000 C 
ENDBRANCH  24  29
ENDBRANCH  17  24
ENDBRANCH   5  19
BRANCH  12  35
ATOM     34  C   UNL     1     112.444 130.145 141.620  0.00  0.00    +0.000 A 
ATOM     35  C   UNL     1     111.812 129.220 140.409  0.00  0.00    +0.000 A 
ATOM     36  C   UNL     1     112.787 129.417 141.436  0.00  0.00    +0.000 A 
ATOM     37  C   UNL     1     111.787 130.410 141.200  0.00  0.00    +0.000 A 
ATOM     38  C   UNL     1     112.470 128.954 140.830  0.00  0.00    +0.000 A 
ATOM     39  C   UNL     1     111.470 129.947 140.594  0.00  0.00    +0.000 A 
BRANCH  34  40
ATOM     40  O   UNL     1     112.760 130.608 142.226  0.00  0.00    +0.000 OA
BRANCH  40  49
ATOM     41  O   UNL     1     112.022 130.034 143.306  0.00  0.00    +0.000 OA
ATOM     42  O   UNL     1     111.775 132.276 144.327  0.00  0.00    +0.000 OA
ATOM     43  O   UNL     1     111.119 130.956 145.066  0.00  0.00    +0.000 OA
ATOM     44  O   UNL     1     112.596 132.102 142.906  0.00  0.00    +0.000 OA
ATOM     45  C   UNL     1     111.857 131.528 143.987  0.00  0.00    +0.000 C 
ATOM     46  C   UNL     1     111.529 130.868 144.356  0.00  0.00    +0.000 C 
ATOM     47  C   UNL     1     112.268 131.441 143.276  0.00  0.00    +0.000 C 
ATOM     48  C   UNL     1     111.611 130.122 144.016  0.00  0.00    +0.000 C 
ATOM     49  C   UNL     1     112.350 130.695 142.936  0.00  0.00    +0.000 C 
BRANCH  48  51
ATOM     50  O   UNL     1     111.748 128.792 144.522  0.00  0.00    +0.000 OA
ATOM     51  C   UNL     1     111.283 129.461 144.386  0.00  0.00    +0.000 C 
ENDBRANCH  48  51
ENDBRANCH  40  49
ENDBRANCH  34  40
ENDBRANCH  12  35
TORSDOF 8
ENDMDL
MODEL 10
REMARK VINA RESULT:      -9.8      2.288      4.192
REMARK  Name = 71307582
REMARK  8 active torsions:
REMARK  status: ('A' for Active; 'I' for Inactive)
REMARK    1  A    between atoms: O_2  and  C_20
REMARK    2  A    between atoms: O_2  and  C_25
REMARK    3  A    between atoms: O_13  and  C_38
REMARK    4  A    between atoms: O_13  and  C_46
REMARK    5  A    between atoms: C_22  and  C_26
REMARK    6  A    between atoms: C_24  and  C_29
REMARK    7  A    between atoms: C_37  and  C_42
REMARK    8  A    between atoms: C_44  and  C_47
REMARK                            x       y       z     vdW  Elec       q    Type
REMARK                         _______ _______ _______ _____ _____    ______ ____
ROOT
ATOM      1  O   UNL     1     111.170 129.213 140.473  0.00  0.00    +0.000 OA
ATOM      2  O   UNL     1     114.017 128.998 140.600  0.00  0.00    +0.000 OA
ATOM      3  O   UNL     1     112.639 130.685 142.485  0.00  0.00    +0.000 OA
ATOM      4  O   UNL     1     110.443 130.047 141.399  0.00  0.00    +0.000 OA
ATOM      5  C   UNL     1     112.593 129.105 140.536  0.00  0.00    +0.000 A 
ATOM      6  C   UNL     1     111.887 129.419 140.825  0.00  0.00    +0.000 A 
ATOM      7  C   UNL     1     113.310 129.312 140.889  0.00  0.00    +0.000 A 
ATOM      8  C   UNL     1     111.898 129.939 141.466  0.00  0.00    +0.000 A 
ATOM      9  C   UNL     1     113.321 129.832 141.529  0.00  0.00    +0.000 A 
ATOM     10  C   UNL     1     112.615 130.145 141.817  0.00  0.00    +0.000 A 
ATOM     11  C   UNL     1     111.155 130.258 141.757  0.00  0.00    +0.000 A 
ATOM     12  C   UNL     1     111.906 131.015 142.790  0.00  0.00    +0.000 A 
ATOM     13  C   UNL     1     111.160 130.800 142.424  0.00  0.00    +0.000 A 
ENDROOT
BRANCH   5  19
ATOM     14  O   UNL     1     112.377 127.795 140.009  0.00  0.00    +0.000 OA
ATOM     15  O   UNL     1     112.962 128.609 137.746  0.00  0.00    +0.000 OA
ATOM     16  O   UNL     1     112.550 127.027 137.973  0.00  0.00    +0.000 OA
ATOM     17  C   UNL     1     112.778 128.857 139.142  0.00  0.00    +0.000 C 
ATOM     18  C   UNL     1     112.767 128.338 138.501  0.00  0.00    +0.000 C 
ATOM     19  C   UNL     1     112.582 128.585 139.896  0.00  0.00    +0.000 C 
ATOM     20  C   UNL     1     112.561 127.546 138.614  0.00  0.00    +0.000 C 
ATOM     21  C   UNL     1     112.366 127.276 139.369  0.00  0.00    +0.000 C 
BRANCH  21  23
ATOM     22  O   UNL     1     112.226 126.145 140.231  0.00  0.00    +0.000 OA
ATOM     23  C   UNL     1     112.160 126.485 139.483  0.00  0.00    +0.000 C 
ENDBRANCH  21  23
BRANCH  17  24
ATOM     24  O   UNL     1     112.984 129.647 139.028  0.00  0.00    +0.000 OA
BRANCH  24  29
ATOM     25  O   UNL     1     111.825 129.942 138.244  0.00  0.00    +0.000 OA
ATOM     26  O   UNL     1     113.820 130.827 138.233  0.00  0.00    +0.000 OA
ATOM     27  O   UNL     1     113.081 131.711 137.053  0.00  0.00    +0.000 OA
ATOM     28  O   UNL     1     111.504 131.416 136.667  0.00  0.00    +0.000 OA
ATOM     29  C   UNL     1     112.613 130.089 138.438  0.00  0.00    +0.000 C 
ATOM     30  C   UNL     1     113.032 130.679 138.040  0.00  0.00    +0.000 C 
ATOM     31  C   UNL     1     112.661 131.121 137.450  0.00  0.00    +0.000 C 
ATOM     32  C   UNL     1     111.874 130.974 137.257  0.00  0.00    +0.000 C 
ATOM     33  C   UNL     1     111.455 130.384 137.654  0.00  0.00    +0.000 C 
ENDBRANCH  24  29
ENDBRANCH  17  24
ENDBRANCH   5  19
BRANCH  12  35
ATOM     34  C   UNL     1     111.948 132.574 144.712  0.00  0.00    +0.000 A 
ATOM     35  C   UNL     1     111.920 131.535 143.431  0.00  0.00    +0.000 A 
ATOM     36  C   UNL     1     111.976 132.869 143.942  0.00  0.00    +0.000 A 
ATOM     37  C   UNL     1     111.906 131.761 144.842  0.00  0.00    +0.000 A 
ATOM     38  C   UNL     1     111.962 132.349 143.301  0.00  0.00    +0.000 A 
ATOM     39  C   UNL     1     111.892 131.241 144.201  0.00  0.00    +0.000 A 
BRANCH  34  40
ATOM     40  O   UNL     1     111.961 133.094 145.353  0.00  0.00    +0.000 OA
BRANCH  40  49
ATOM     41  O   UNL     1     110.544 133.219 145.486  0.00  0.00    +0.000 OA
ATOM     42  O   UNL     1     110.787 133.357 147.945  0.00  0.00    +0.000 OA
ATOM     43  O   UNL     1     109.289 133.437 147.258  0.00  0.00    +0.000 OA
ATOM     44  O   UNL     1     112.123 133.185 146.993  0.00  0.00    +0.000 OA
ATOM     45  C   UNL     1     110.706 133.311 147.125  0.00  0.00    +0.000 C 
ATOM     46  C   UNL     1     109.957 133.351 146.781  0.00  0.00    +0.000 C 
ATOM     47  C   UNL     1     111.374 133.225 146.648  0.00  0.00    +0.000 C 
ATOM     48  C   UNL     1     109.876 133.305 145.962  0.00  0.00    +0.000 C 
ATOM     49  C   UNL     1     111.294 133.179 145.830  0.00  0.00    +0.000 C 
BRANCH  48  51
ATOM     50  O   UNL     1     108.986 133.875 145.001  0.00  0.00    +0.000 OA
ATOM     51  C   UNL     1     109.128 133.345 145.618  0.00  0.00    +0.000 C 
ENDBRANCH  48  51
ENDBRANCH  40  49
ENDBRANCH  34  40
ENDBRANCH  12  35
TORSDOF 8
ENDMDL
