MODEL 1
REMARK VINA RESULT:      -8.6      0.000      0.000
REMARK  Name = 131832988
REMARK  4 active torsions:
REMARK  status: ('A' for Active; 'I' for Inactive)
REMARK    1  A    between atoms: S_1  and  O_3
REMARK    2  A    between atoms: O_3  and  C_12
REMARK    3  A    between atoms: O_6  and  C_23
REMARK    4  A    between atoms: C_11  and  C_13
REMARK                            x       y       z     vdW  Elec       q    Type
REMARK                         _______ _______ _______ _____ _____    ______ ____
ROOT
ATOM      1  O   UNL     1     104.158 124.300 147.475  0.00  0.00    +0.000 OA
ATOM      2  O   UNL     1     104.369 123.908 145.041  0.00  0.00    +0.000 OA
ATOM      3  O   UNL     1     103.094 123.235 145.010  0.00  0.00    +0.000 OA
ATOM      4  O   UNL     1     101.577 122.953 147.489  0.00  0.00    +0.000 OA
ATOM      5  C   UNL     1     104.827 124.567 147.071  0.00  0.00    +0.000 C 
ATOM      6  C   UNL     1     104.897 124.436 146.260  0.00  0.00    +0.000 C 
ATOM      7  C   UNL     1     104.299 124.039 145.852  0.00  0.00    +0.000 C 
ATOM      8  C   UNL     1     103.631 123.773 146.257  0.00  0.00    +0.000 A 
ATOM      9  C   UNL     1     103.561 123.904 147.068  0.00  0.00    +0.000 A 
ATOM     10  C   UNL     1     103.015 123.361 145.822  0.00  0.00    +0.000 A 
ATOM     11  C   UNL     1     102.869 123.632 147.501  0.00  0.00    +0.000 A 
ATOM     12  C   UNL     1     102.317 123.082 146.237  0.00  0.00    +0.000 A 
ATOM     13  C   UNL     1     102.244 123.218 147.082  0.00  0.00    +0.000 A 
ENDROOT
BRANCH   5  14
ATOM     14  C   UNL     1     105.425 124.963 147.478  0.00  0.00    +0.000 A 
ATOM     15  C   UNL     1     106.072 124.544 147.771  0.00  0.00    +0.000 A 
ATOM     16  C   UNL     1     105.376 125.779 147.591  0.00  0.00    +0.000 A 
ATOM     17  C   UNL     1     106.670 124.941 148.179  0.00  0.00    +0.000 A 
ATOM     18  C   UNL     1     105.974 126.175 147.998  0.00  0.00    +0.000 A 
ATOM     19  C   UNL     1     106.621 125.756 148.292  0.00  0.00    +0.000 A 
BRANCH  17  20
ATOM     20  O   UNL     1     107.317 124.522 148.472  0.00  0.00    +0.000 OA
ATOM     21  C   UNL     1     107.483 124.531 149.280  0.00  0.00    +0.000 C 
ENDBRANCH  17  20
ENDBRANCH   5  14
BRANCH   6  22
ATOM     22  O   UNL     1     105.565 124.701 145.855  0.00  0.00    +0.000 OA
BRANCH  22  23
ATOM     23  S   UNL     1     105.542 124.793 145.035  0.00  0.00    +0.000 S 
ATOM     24  O   UNL     1     105.518 124.886 144.216  0.00  0.00    +0.000 OA
ATOM     25  O   UNL     1     105.099 125.484 145.125  0.00  0.00    +0.000 OA
ATOM     26  O   UNL     1     105.985 124.103 144.945  0.00  0.00    +0.000 OA
ENDBRANCH  22  23
ENDBRANCH   6  22
TORSDOF 4
ENDMDL
MODEL 2
REMARK VINA RESULT:      -8.5      7.487      8.598
REMARK  Name = 131832988
REMARK  4 active torsions:
REMARK  status: ('A' for Active; 'I' for Inactive)
REMARK    1  A    between atoms: S_1  and  O_3
REMARK    2  A    between atoms: O_3  and  C_12
REMARK    3  A    between atoms: O_6  and  C_23
REMARK    4  A    between atoms: C_11  and  C_13
REMARK                            x       y       z     vdW  Elec       q    Type
REMARK                         _______ _______ _______ _____ _____    ______ ____
ROOT
ATOM      1  O   UNL     1     103.291 130.259 142.360  0.00  0.00    +0.000 OA
ATOM      2  O   UNL     1     103.248 128.775 140.379  0.00  0.00    +0.000 OA
ATOM      3  O   UNL     1     104.245 127.914 140.968  0.00  0.00    +0.000 OA
ATOM      4  O   UNL     1     105.304 128.567 143.610  0.00  0.00    +0.000 OA
ATOM      5  C   UNL     1     102.790 130.431 141.727  0.00  0.00    +0.000 C 
ATOM      6  C   UNL     1     102.776 129.936 141.067  0.00  0.00    +0.000 C 
ATOM      7  C   UNL     1     103.263 129.270 141.039  0.00  0.00    +0.000 C 
ATOM      8  C   UNL     1     103.763 129.100 141.673  0.00  0.00    +0.000 A 
ATOM      9  C   UNL     1     103.777 129.594 142.333  0.00  0.00    +0.000 A 
ATOM     10  C   UNL     1     104.266 128.403 141.633  0.00  0.00    +0.000 A 
ATOM     11  C   UNL     1     104.295 129.427 142.998  0.00  0.00    +0.000 A 
ATOM     12  C   UNL     1     104.789 128.220 142.289  0.00  0.00    +0.000 A 
ATOM     13  C   UNL     1     104.804 128.735 142.976  0.00  0.00    +0.000 A 
ENDROOT
BRANCH   5  14
ATOM     14  C   UNL     1     102.303 131.096 141.754  0.00  0.00    +0.000 A 
ATOM     15  C   UNL     1     102.601 131.834 141.536  0.00  0.00    +0.000 A 
ATOM     16  C   UNL     1     101.518 131.024 141.998  0.00  0.00    +0.000 A 
ATOM     17  C   UNL     1     102.114 132.500 141.563  0.00  0.00    +0.000 A 
ATOM     18  C   UNL     1     101.032 131.689 142.025  0.00  0.00    +0.000 A 
ATOM     19  C   UNL     1     101.330 132.427 141.807  0.00  0.00    +0.000 A 
BRANCH  17  20
ATOM     20  O   UNL     1     102.412 133.238 141.345  0.00  0.00    +0.000 OA
ATOM     21  C   UNL     1     102.157 133.917 141.737  0.00  0.00    +0.000 C 
ENDBRANCH  17  20
ENDBRANCH   5  14
BRANCH   6  22
ATOM     22  O   UNL     1     102.275 130.106 140.434  0.00  0.00    +0.000 OA
BRANCH  22  23
ATOM     23  S   UNL     1     102.399 129.748 139.701  0.00  0.00    +0.000 S 
ATOM     24  O   UNL     1     102.524 129.390 138.968  0.00  0.00    +0.000 OA
ATOM     25  O   UNL     1     102.971 130.315 139.521  0.00  0.00    +0.000 OA
ATOM     26  O   UNL     1     101.827 129.181 139.881  0.00  0.00    +0.000 OA
ENDBRANCH  22  23
ENDBRANCH   6  22
TORSDOF 4
ENDMDL
MODEL 3
REMARK VINA RESULT:      -8.0     11.560     12.639
REMARK  Name = 131832988
REMARK  4 active torsions:
REMARK  status: ('A' for Active; 'I' for Inactive)
REMARK    1  A    between atoms: S_1  and  O_3
REMARK    2  A    between atoms: O_3  and  C_12
REMARK    3  A    between atoms: O_6  and  C_23
REMARK    4  A    between atoms: C_11  and  C_13
REMARK                            x       y       z     vdW  Elec       q    Type
REMARK                         _______ _______ _______ _____ _____    ______ ____
ROOT
ATOM      1  O   UNL     1     112.242 126.655 136.550  0.00  0.00    +0.000 OA
ATOM      2  O   UNL     1     111.232 124.475 135.952  0.00  0.00    +0.000 OA
ATOM      3  O   UNL     1     110.371 125.108 134.984  0.00  0.00    +0.000 OA
ATOM      4  O   UNL     1     110.534 128.000 134.612  0.00  0.00    +0.000 OA
ATOM      5  C   UNL     1     112.495 125.966 136.927  0.00  0.00    +0.000 C 
ATOM      6  C   UNL     1     112.158 125.239 136.728  0.00  0.00    +0.000 C 
ATOM      7  C   UNL     1     111.569 125.202 136.151  0.00  0.00    +0.000 C 
ATOM      8  C   UNL     1     111.316 125.891 135.775  0.00  0.00    +0.000 A 
ATOM      9  C   UNL     1     111.653 126.617 135.974  0.00  0.00    +0.000 A 
ATOM     10  C   UNL     1     110.701 125.839 135.176  0.00  0.00    +0.000 A 
ATOM     11  C   UNL     1     111.398 127.342 135.588  0.00  0.00    +0.000 A 
ATOM     12  C   UNL     1     110.434 126.553 134.780  0.00  0.00    +0.000 A 
ATOM     13  C   UNL     1     110.785 127.309 134.987  0.00  0.00    +0.000 A 
ENDROOT
BRANCH   5  14
ATOM     14  C   UNL     1     113.084 126.003 137.503  0.00  0.00    +0.000 A 
ATOM     15  C   UNL     1     112.890 126.207 138.278  0.00  0.00    +0.000 A 
ATOM     16  C   UNL     1     113.867 125.837 137.304  0.00  0.00    +0.000 A 
ATOM     17  C   UNL     1     113.480 126.244 138.855  0.00  0.00    +0.000 A 
ATOM     18  C   UNL     1     114.456 125.874 137.880  0.00  0.00    +0.000 A 
ATOM     19  C   UNL     1     114.262 126.078 138.655  0.00  0.00    +0.000 A 
BRANCH  17  20
ATOM     20  O   UNL     1     113.286 126.448 139.631  0.00  0.00    +0.000 OA
ATOM     21  C   UNL     1     113.698 127.050 140.014  0.00  0.00    +0.000 C 
ENDBRANCH  17  20
ENDBRANCH   5  14
BRANCH   6  22
ATOM     22  O   UNL     1     112.411 124.550 137.105  0.00  0.00    +0.000 OA
BRANCH  22  23
ATOM     23  S   UNL     1     112.005 123.842 136.985  0.00  0.00    +0.000 S 
ATOM     24  O   UNL     1     111.600 123.134 136.865  0.00  0.00    +0.000 OA
ATOM     25  O   UNL     1     111.470 124.048 137.578  0.00  0.00    +0.000 OA
ATOM     26  O   UNL     1     112.541 123.636 136.392  0.00  0.00    +0.000 OA
ENDBRANCH  22  23
ENDBRANCH   6  22
TORSDOF 4
ENDMDL
MODEL 4
REMARK VINA RESULT:      -8.0     12.467     13.288
REMARK  Name = 131832988
REMARK  4 active torsions:
REMARK  status: ('A' for Active; 'I' for Inactive)
REMARK    1  A    between atoms: S_1  and  O_3
REMARK    2  A    between atoms: O_3  and  C_12
REMARK    3  A    between atoms: O_6  and  C_23
REMARK    4  A    between atoms: C_11  and  C_13
REMARK                            x       y       z     vdW  Elec       q    Type
REMARK                         _______ _______ _______ _____ _____    ______ ____
ROOT
ATOM      1  O   UNL     1     113.012 126.657 136.533  0.00  0.00    +0.000 OA
ATOM      2  O   UNL     1     111.330 124.920 136.003  0.00  0.00    +0.000 OA
ATOM      3  O   UNL     1     112.240 123.876 136.407  0.00  0.00    +0.000 OA
ATOM      4  O   UNL     1     114.901 124.603 137.365  0.00  0.00    +0.000 OA
ATOM      5  C   UNL     1     112.271 126.876 136.242  0.00  0.00    +0.000 C 
ATOM      6  C   UNL     1     111.711 126.297 136.065  0.00  0.00    +0.000 C 
ATOM      7  C   UNL     1     111.891 125.499 136.180  0.00  0.00    +0.000 C 
ATOM      8  C   UNL     1     112.631 125.282 136.471  0.00  0.00    +0.000 A 
ATOM      9  C   UNL     1     113.191 125.861 136.648  0.00  0.00    +0.000 A 
ATOM     10  C   UNL     1     112.807 124.448 136.586  0.00  0.00    +0.000 A 
ATOM     11  C   UNL     1     113.966 125.646 136.952  0.00  0.00    +0.000 A 
ATOM     12  C   UNL     1     113.576 124.215 136.889  0.00  0.00    +0.000 A 
ATOM     13  C   UNL     1     114.159 124.818 137.073  0.00  0.00    +0.000 A 
ENDROOT
BRANCH   5  14
ATOM     14  C   UNL     1     112.091 127.672 136.127  0.00  0.00    +0.000 A 
ATOM     15  C   UNL     1     111.725 128.103 136.728  0.00  0.00    +0.000 A 
ATOM     16  C   UNL     1     112.277 128.039 135.412  0.00  0.00    +0.000 A 
ATOM     17  C   UNL     1     111.545 128.900 136.614  0.00  0.00    +0.000 A 
ATOM     18  C   UNL     1     112.097 128.835 135.297  0.00  0.00    +0.000 A 
ATOM     19  C   UNL     1     111.731 129.266 135.898  0.00  0.00    +0.000 A 
BRANCH  17  20
ATOM     20  O   UNL     1     111.179 129.331 137.215  0.00  0.00    +0.000 OA
ATOM     21  C   UNL     1     110.523 129.800 137.045  0.00  0.00    +0.000 C 
ENDBRANCH  17  20
ENDBRANCH   5  14
BRANCH   6  22
ATOM     22  O   UNL     1     110.970 126.514 135.774  0.00  0.00    +0.000 OA
BRANCH  22  23
ATOM     23  S   UNL     1     110.474 125.945 135.441  0.00  0.00    +0.000 S 
ATOM     24  O   UNL     1     109.977 125.376 135.109  0.00  0.00    +0.000 OA
ATOM     25  O   UNL     1     110.880 126.008 134.726  0.00  0.00    +0.000 OA
ATOM     26  O   UNL     1     110.067 125.882 136.156  0.00  0.00    +0.000 OA
ENDBRANCH  22  23
ENDBRANCH   6  22
TORSDOF 4
ENDMDL
MODEL 5
REMARK VINA RESULT:      -8.0      1.491      2.414
REMARK  Name = 131832988
REMARK  4 active torsions:
REMARK  status: ('A' for Active; 'I' for Inactive)
REMARK    1  A    between atoms: S_1  and  O_3
REMARK    2  A    between atoms: O_3  and  C_12
REMARK    3  A    between atoms: O_6  and  C_23
REMARK    4  A    between atoms: C_11  and  C_13
REMARK                            x       y       z     vdW  Elec       q    Type
REMARK                         _______ _______ _______ _____ _____    ______ ____
ROOT
ATOM      1  O   UNL     1     105.035 124.215 146.835  0.00  0.00    +0.000 OA
ATOM      2  O   UNL     1     103.239 125.324 148.128  0.00  0.00    +0.000 OA
ATOM      3  O   UNL     1     102.226 124.661 147.344  0.00  0.00    +0.000 OA
ATOM      4  O   UNL     1     103.046 122.843 145.211  0.00  0.00    +0.000 OA
ATOM      5  C   UNL     1     105.228 124.735 147.447  0.00  0.00    +0.000 C 
ATOM      6  C   UNL     1     104.629 125.104 147.878  0.00  0.00    +0.000 C 
ATOM      7  C   UNL     1     103.837 124.954 147.697  0.00  0.00    +0.000 C 
ATOM      8  C   UNL     1     103.646 124.435 147.086  0.00  0.00    +0.000 A 
ATOM      9  C   UNL     1     104.245 124.065 146.655  0.00  0.00    +0.000 A 
ATOM     10  C   UNL     1     102.818 124.287 146.907  0.00  0.00    +0.000 A 
ATOM     11  C   UNL     1     104.057 123.522 146.015  0.00  0.00    +0.000 A 
ATOM     12  C   UNL     1     102.612 123.747 146.271  0.00  0.00    +0.000 A 
ATOM     13  C   UNL     1     103.235 123.362 145.823  0.00  0.00    +0.000 A 
ENDROOT
BRANCH   5  14
ATOM     14  C   UNL     1     106.018 124.885 147.628  0.00  0.00    +0.000 A 
ATOM     15  C   UNL     1     106.395 124.451 148.220  0.00  0.00    +0.000 A 
ATOM     16  C   UNL     1     106.432 125.468 147.217  0.00  0.00    +0.000 A 
ATOM     17  C   UNL     1     107.186 124.601 148.401  0.00  0.00    +0.000 A 
ATOM     18  C   UNL     1     107.222 125.618 147.397  0.00  0.00    +0.000 A 
ATOM     19  C   UNL     1     107.600 125.185 147.989  0.00  0.00    +0.000 A 
BRANCH  17  20
ATOM     20  O   UNL     1     107.564 124.168 148.993  0.00  0.00    +0.000 OA
ATOM     21  C   UNL     1     107.944 124.558 149.611  0.00  0.00    +0.000 C 
ENDBRANCH  17  20
ENDBRANCH   5  14
BRANCH   6  22
ATOM     22  O   UNL     1     104.820 125.624 148.490  0.00  0.00    +0.000 OA
BRANCH  22  23
ATOM     23  S   UNL     1     104.234 126.092 148.832  0.00  0.00    +0.000 S 
ATOM     24  O   UNL     1     103.648 126.560 149.175  0.00  0.00    +0.000 OA
ATOM     25  O   UNL     1     104.146 125.538 149.438  0.00  0.00    +0.000 OA
ATOM     26  O   UNL     1     104.322 126.645 148.227  0.00  0.00    +0.000 OA
ENDBRANCH  22  23
ENDBRANCH   6  22
TORSDOF 4
ENDMDL
MODEL 6
REMARK VINA RESULT:      -7.9     12.698     13.566
REMARK  Name = 131832988
REMARK  4 active torsions:
REMARK  status: ('A' for Active; 'I' for Inactive)
REMARK    1  A    between atoms: S_1  and  O_3
REMARK    2  A    between atoms: O_3  and  C_12
REMARK    3  A    between atoms: O_6  and  C_23
REMARK    4  A    between atoms: C_11  and  C_13
REMARK                            x       y       z     vdW  Elec       q    Type
REMARK                         _______ _______ _______ _____ _____    ______ ____
ROOT
ATOM      1  O   UNL     1     111.995 127.169 135.855  0.00  0.00    +0.000 OA
ATOM      2  O   UNL     1     112.847 125.124 136.959  0.00  0.00    +0.000 OA
ATOM      3  O   UNL     1     111.735 124.356 136.455  0.00  0.00    +0.000 OA
ATOM      4  O   UNL     1     109.725 125.680 134.803  0.00  0.00    +0.000 OA
ATOM      5  C   UNL     1     112.693 127.199 136.295  0.00  0.00    +0.000 C 
ATOM      6  C   UNL     1     112.977 126.517 136.663  0.00  0.00    +0.000 C 
ATOM      7  C   UNL     1     112.563 125.806 136.591  0.00  0.00    +0.000 C 
ATOM      8  C   UNL     1     111.866 125.778 136.151  0.00  0.00    +0.000 A 
ATOM      9  C   UNL     1     111.582 126.460 135.783  0.00  0.00    +0.000 A 
ATOM     10  C   UNL     1     111.444 125.032 136.084  0.00  0.00    +0.000 A 
ATOM     11  C   UNL     1     110.857 126.443 135.322  0.00  0.00    +0.000 A 
ATOM     12  C   UNL     1     110.717 124.996 135.627  0.00  0.00    +0.000 A 
ATOM     13  C   UNL     1     110.422 125.706 135.244  0.00  0.00    +0.000 A 
ENDROOT
BRANCH   5  14
ATOM     14  C   UNL     1     113.106 127.908 136.367  0.00  0.00    +0.000 A 
ATOM     15  C   UNL     1     113.655 128.126 135.791  0.00  0.00    +0.000 A 
ATOM     16  C   UNL     1     112.971 128.401 137.015  0.00  0.00    +0.000 A 
ATOM     17  C   UNL     1     114.070 128.836 135.863  0.00  0.00    +0.000 A 
ATOM     18  C   UNL     1     113.385 129.111 137.087  0.00  0.00    +0.000 A 
ATOM     19  C   UNL     1     113.934 129.328 136.511  0.00  0.00    +0.000 A 
BRANCH  17  20
ATOM     20  O   UNL     1     114.619 129.054 135.287  0.00  0.00    +0.000 OA
ATOM     21  C   UNL     1     114.632 129.827 135.002  0.00  0.00    +0.000 C 
ENDBRANCH  17  20
ENDBRANCH   5  14
BRANCH   6  22
ATOM     22  O   UNL     1     113.674 126.545 137.103  0.00  0.00    +0.000 OA
BRANCH  22  23
ATOM     23  S   UNL     1     114.048 125.845 137.329  0.00  0.00    +0.000 S 
ATOM     24  O   UNL     1     114.423 125.145 137.554  0.00  0.00    +0.000 OA
ATOM     25  O   UNL     1     114.402 125.795 136.585  0.00  0.00    +0.000 OA
ATOM     26  O   UNL     1     113.695 125.896 138.073  0.00  0.00    +0.000 OA
ENDBRANCH  22  23
ENDBRANCH   6  22
TORSDOF 4
ENDMDL
MODEL 7
REMARK VINA RESULT:      -7.9     11.946     13.383
REMARK  Name = 131832988
REMARK  4 active torsions:
REMARK  status: ('A' for Active; 'I' for Inactive)
REMARK    1  A    between atoms: S_1  and  O_3
REMARK    2  A    between atoms: O_3  and  C_12
REMARK    3  A    between atoms: O_6  and  C_23
REMARK    4  A    between atoms: C_11  and  C_13
REMARK                            x       y       z     vdW  Elec       q    Type
REMARK                         _______ _______ _______ _____ _____    ______ ____
ROOT
ATOM      1  O   UNL     1     113.581 127.071 136.490  0.00  0.00    +0.000 OA
ATOM      2  O   UNL     1     112.900 128.061 138.654  0.00  0.00    +0.000 OA
ATOM      3  O   UNL     1     112.883 129.382 138.076  0.00  0.00    +0.000 OA
ATOM      4  O   UNL     1     113.569 129.709 135.257  0.00  0.00    +0.000 OA
ATOM      5  C   UNL     1     113.472 126.586 137.148  0.00  0.00    +0.000 C 
ATOM      6  C   UNL     1     113.245 126.916 137.870  0.00  0.00    +0.000 C 
ATOM      7  C   UNL     1     113.127 127.731 137.932  0.00  0.00    +0.000 C 
ATOM      8  C   UNL     1     113.236 128.215 137.273  0.00  0.00    +0.000 A 
ATOM      9  C   UNL     1     113.463 127.885 136.552  0.00  0.00    +0.000 A 
ATOM     10  C   UNL     1     113.110 129.061 137.351  0.00  0.00    +0.000 A 
ATOM     11  C   UNL     1     113.580 128.379 135.858  0.00  0.00    +0.000 A 
ATOM     12  C   UNL     1     113.222 129.571 136.668  0.00  0.00    +0.000 A 
ATOM     13  C   UNL     1     113.459 129.227 135.917  0.00  0.00    +0.000 A 
ENDROOT
BRANCH   5  14
ATOM     14  C   UNL     1     113.589 125.773 137.086  0.00  0.00    +0.000 A 
ATOM     15  C   UNL     1     112.987 125.290 136.794  0.00  0.00    +0.000 A 
ATOM     16  C   UNL     1     114.309 125.440 137.316  0.00  0.00    +0.000 A 
ATOM     17  C   UNL     1     113.105 124.475 136.732  0.00  0.00    +0.000 A 
ATOM     18  C   UNL     1     114.427 124.627 137.254  0.00  0.00    +0.000 A 
ATOM     19  C   UNL     1     113.825 124.144 136.962  0.00  0.00    +0.000 A 
BRANCH  17  20
ATOM     20  O   UNL     1     112.503 123.992 136.440  0.00  0.00    +0.000 OA
ATOM     21  C   UNL     1     112.117 123.465 136.943  0.00  0.00    +0.000 C 
ENDBRANCH  17  20
ENDBRANCH   5  14
BRANCH   6  22
ATOM     22  O   UNL     1     113.135 126.432 138.529  0.00  0.00    +0.000 OA
BRANCH  22  23
ATOM     23  S   UNL     1     112.719 126.714 139.183  0.00  0.00    +0.000 S 
ATOM     24  O   UNL     1     112.303 126.995 139.838  0.00  0.00    +0.000 OA
ATOM     25  O   UNL     1     112.007 126.561 138.797  0.00  0.00    +0.000 OA
ATOM     26  O   UNL     1     113.432 126.867 139.570  0.00  0.00    +0.000 OA
ENDBRANCH  22  23
ENDBRANCH   6  22
TORSDOF 4
ENDMDL
MODEL 8
REMARK VINA RESULT:      -7.9     10.711     11.973
REMARK  Name = 131832988
REMARK  4 active torsions:
REMARK  status: ('A' for Active; 'I' for Inactive)
REMARK    1  A    between atoms: S_1  and  O_3
REMARK    2  A    between atoms: O_3  and  C_12
REMARK    3  A    between atoms: O_6  and  C_23
REMARK    4  A    between atoms: C_11  and  C_13
REMARK                            x       y       z     vdW  Elec       q    Type
REMARK                         _______ _______ _______ _____ _____    ______ ____
ROOT
ATOM      1  O   UNL     1     111.049 125.460 136.134  0.00  0.00    +0.000 OA
ATOM      2  O   UNL     1     110.058 126.271 138.252  0.00  0.00    +0.000 OA
ATOM      3  O   UNL     1     109.029 126.980 137.531  0.00  0.00    +0.000 OA
ATOM      4  O   UNL     1     109.001 126.866 134.614  0.00  0.00    +0.000 OA
ATOM      5  C   UNL     1     111.389 125.248 136.855  0.00  0.00    +0.000 C 
ATOM      6  C   UNL     1     111.058 125.519 137.561  0.00  0.00    +0.000 C 
ATOM      7  C   UNL     1     110.388 126.001 137.546  0.00  0.00    +0.000 C 
ATOM      8  C   UNL     1     110.050 126.212 136.824  0.00  0.00    +0.000 A 
ATOM      9  C   UNL     1     110.380 125.942 136.118  0.00  0.00    +0.000 A 
ATOM     10  C   UNL     1     109.352 126.715 136.820  0.00  0.00    +0.000 A 
ATOM     11  C   UNL     1     110.035 126.155 135.360  0.00  0.00    +0.000 A 
ATOM     12  C   UNL     1     108.994 126.938 136.072  0.00  0.00    +0.000 A 
ATOM     13  C   UNL     1     109.338 126.656 135.337  0.00  0.00    +0.000 A 
ENDROOT
BRANCH   5  14
ATOM     14  C   UNL     1     112.058 124.767 136.871  0.00  0.00    +0.000 A 
ATOM     15  C   UNL     1     112.808 125.102 136.802  0.00  0.00    +0.000 A 
ATOM     16  C   UNL     1     111.977 123.950 136.956  0.00  0.00    +0.000 A 
ATOM     17  C   UNL     1     113.479 124.620 136.818  0.00  0.00    +0.000 A 
ATOM     18  C   UNL     1     112.646 123.469 136.972  0.00  0.00    +0.000 A 
ATOM     19  C   UNL     1     113.397 123.804 136.903  0.00  0.00    +0.000 A 
BRANCH  17  20
ATOM     20  O   UNL     1     114.229 124.955 136.750  0.00  0.00    +0.000 OA
ATOM     21  C   UNL     1     114.771 124.883 137.367  0.00  0.00    +0.000 C 
ENDBRANCH  17  20
ENDBRANCH   5  14
BRANCH   6  22
ATOM     22  O   UNL     1     111.397 125.308 138.283  0.00  0.00    +0.000 OA
BRANCH  22  23
ATOM     23  S   UNL     1     111.169 125.695 138.975  0.00  0.00    +0.000 S 
ATOM     24  O   UNL     1     110.941 126.082 139.667  0.00  0.00    +0.000 OA
ATOM     25  O   UNL     1     111.701 126.303 138.810  0.00  0.00    +0.000 OA
ATOM     26  O   UNL     1     110.637 125.086 139.140  0.00  0.00    +0.000 OA
ENDBRANCH  22  23
ENDBRANCH   6  22
TORSDOF 4
ENDMDL
MODEL 9
REMARK VINA RESULT:      -7.8     10.668     11.859
REMARK  Name = 131832988
REMARK  4 active torsions:
REMARK  status: ('A' for Active; 'I' for Inactive)
REMARK    1  A    between atoms: S_1  and  O_3
REMARK    2  A    between atoms: O_3  and  C_12
REMARK    3  A    between atoms: O_6  and  C_23
REMARK    4  A    between atoms: C_11  and  C_13
REMARK                            x       y       z     vdW  Elec       q    Type
REMARK                         _______ _______ _______ _____ _____    ______ ____
ROOT
ATOM      1  O   UNL     1     111.455 125.386 138.181  0.00  0.00    +0.000 OA
ATOM      2  O   UNL     1     109.879 126.196 136.453  0.00  0.00    +0.000 OA
ATOM      3  O   UNL     1     108.955 126.646 137.466  0.00  0.00    +0.000 OA
ATOM      4  O   UNL     1     109.639 126.269 140.280  0.00  0.00    +0.000 OA
ATOM      5  C   UNL     1     111.641 125.302 137.382  0.00  0.00    +0.000 C 
ATOM      6  C   UNL     1     111.116 125.573 136.806  0.00  0.00    +0.000 C 
ATOM      7  C   UNL     1     110.404 125.926 137.029  0.00  0.00    +0.000 C 
ATOM      8  C   UNL     1     110.219 126.009 137.829  0.00  0.00    +0.000 A 
ATOM      9  C   UNL     1     110.744 125.739 138.405  0.00  0.00    +0.000 A 
ATOM     10  C   UNL     1     109.474 126.379 138.049  0.00  0.00    +0.000 A 
ATOM     11  C   UNL     1     110.561 125.820 139.241  0.00  0.00    +0.000 A 
ATOM     12  C   UNL     1     109.275 126.468 138.880  0.00  0.00    +0.000 A 
ATOM     13  C   UNL     1     109.822 126.187 139.480  0.00  0.00    +0.000 A 
ENDROOT
BRANCH   5  14
ATOM     14  C   UNL     1     112.352 124.950 137.158  0.00  0.00    +0.000 A 
ATOM     15  C   UNL     1     113.039 125.403 137.106  0.00  0.00    +0.000 A 
ATOM     16  C   UNL     1     112.377 124.143 136.986  0.00  0.00    +0.000 A 
ATOM     17  C   UNL     1     113.751 125.050 136.882  0.00  0.00    +0.000 A 
ATOM     18  C   UNL     1     113.087 123.790 136.763  0.00  0.00    +0.000 A 
ATOM     19  C   UNL     1     113.775 124.243 136.711  0.00  0.00    +0.000 A 
BRANCH  17  20
ATOM     20  O   UNL     1     114.438 125.504 136.830  0.00  0.00    +0.000 OA
ATOM     21  C   UNL     1     114.962 125.387 136.204  0.00  0.00    +0.000 C 
ENDBRANCH  17  20
ENDBRANCH   5  14
BRANCH   6  22
ATOM     22  O   UNL     1     111.301 125.490 136.006  0.00  0.00    +0.000 OA
BRANCH  22  23
ATOM     23  S   UNL     1     110.834 125.856 135.434  0.00  0.00    +0.000 S 
ATOM     24  O   UNL     1     110.366 126.222 134.861  0.00  0.00    +0.000 OA
ATOM     25  O   UNL     1     110.401 125.159 135.342  0.00  0.00    +0.000 OA
ATOM     26  O   UNL     1     111.266 126.552 135.525  0.00  0.00    +0.000 OA
ENDBRANCH  22  23
ENDBRANCH   6  22
TORSDOF 4
ENDMDL
MODEL 10
REMARK VINA RESULT:      -7.8      1.833      3.920
REMARK  Name = 131832988
REMARK  4 active torsions:
REMARK  status: ('A' for Active; 'I' for Inactive)
REMARK    1  A    between atoms: S_1  and  O_3
REMARK    2  A    between atoms: O_3  and  C_12
REMARK    3  A    between atoms: O_6  and  C_23
REMARK    4  A    between atoms: C_11  and  C_13
REMARK                            x       y       z     vdW  Elec       q    Type
REMARK                         _______ _______ _______ _____ _____    ______ ____
ROOT
ATOM      1  O   UNL     1     106.764 125.240 146.720  0.00  0.00    +0.000 OA
ATOM      2  O   UNL     1     104.715 124.649 147.975  0.00  0.00    +0.000 OA
ATOM      3  O   UNL     1     105.491 124.332 149.149  0.00  0.00    +0.000 OA
ATOM      4  O   UNL     1     108.395 124.620 149.051  0.00  0.00    +0.000 OA
ATOM      5  C   UNL     1     106.027 125.295 146.354  0.00  0.00    +0.000 C 
ATOM      6  C   UNL     1     105.343 125.098 146.772  0.00  0.00    +0.000 C 
ATOM      7  C   UNL     1     105.398 124.846 147.557  0.00  0.00    +0.000 C 
ATOM      8  C   UNL     1     106.136 124.791 147.921  0.00  0.00    +0.000 A 
ATOM      9  C   UNL     1     106.819 124.989 147.503  0.00  0.00    +0.000 A 
ATOM     10  C   UNL     1     106.180 124.528 148.738  0.00  0.00    +0.000 A 
ATOM     11  C   UNL     1     107.593 124.936 147.872  0.00  0.00    +0.000 A 
ATOM     12  C   UNL     1     106.945 124.469 149.124  0.00  0.00    +0.000 A 
ATOM     13  C   UNL     1     107.656 124.674 148.688  0.00  0.00    +0.000 A 
ENDROOT
BRANCH   5  14
ATOM     14  C   UNL     1     105.972 125.547 145.571  0.00  0.00    +0.000 A 
ATOM     15  C   UNL     1     106.058 125.004 144.956  0.00  0.00    +0.000 A 
ATOM     16  C   UNL     1     105.831 126.342 145.401  0.00  0.00    +0.000 A 
ATOM     17  C   UNL     1     106.003 125.255 144.171  0.00  0.00    +0.000 A 
ATOM     18  C   UNL     1     105.776 126.594 144.618  0.00  0.00    +0.000 A 
ATOM     19  C   UNL     1     105.862 126.051 144.003  0.00  0.00    +0.000 A 
BRANCH  17  20
ATOM     20  O   UNL     1     106.089 124.712 143.557  0.00  0.00    +0.000 OA
ATOM     21  C   UNL     1     105.957 124.947 142.778  0.00  0.00    +0.000 C 
ENDBRANCH  17  20
ENDBRANCH   5  14
BRANCH   6  22
ATOM     22  O   UNL     1     104.606 125.152 146.408  0.00  0.00    +0.000 OA
BRANCH  22  23
ATOM     23  S   UNL     1     103.958 124.752 146.724  0.00  0.00    +0.000 S 
ATOM     24  O   UNL     1     103.310 124.351 147.041  0.00  0.00    +0.000 OA
ATOM     25  O   UNL     1     103.689 125.454 147.063  0.00  0.00    +0.000 OA
ATOM     26  O   UNL     1     104.227 124.049 146.386  0.00  0.00    +0.000 OA
ENDBRANCH  22  23
ENDBRANCH   6  22
TORSDOF 4
ENDMDL
