MODEL 1
REMARK VINA RESULT:     -10.4      0.000      0.000
REMARK  Name = 44258790
REMARK  10 active torsions:
REMARK  status: ('A' for Active; 'I' for Inactive)
REMARK    1  A    between atoms: O_1  and  C_20
REMARK    2  A    between atoms: O_1  and  C_25
REMARK    3  A    between atoms: O_4  and  C_23
REMARK    4  A    between atoms: O_4  and  C_36
REMARK    5  A    between atoms: O_10  and  C_35
REMARK    6  A    between atoms: O_10  and  C_38
REMARK    7  A    between atoms: C_34  and  C_37
REMARK    8  A    between atoms: C_40  and  C_47
REMARK    9  A    between atoms: C_43  and  C_46
REMARK   10  A    between atoms: C_46  and  C_48
REMARK                            x       y       z     vdW  Elec       q    Type
REMARK                         _______ _______ _______ _____ _____    ______ ____
ROOT
ATOM      1  O   UNL     1     111.510 129.468 137.242  0.00  0.00    +0.000 OA
ATOM      2  O   UNL     1     110.907 127.203 138.038  0.00  0.00    +0.000 OA
ATOM      3  O   UNL     1     109.892 127.747 138.908  0.00  0.00    +0.000 OA
ATOM      4  C   UNL     1     111.707 128.053 137.214  0.00  0.00    +0.000 A 
ATOM      5  C   UNL     1     109.877 129.975 138.682  0.00  0.00    +0.000 A 
ATOM      6  C   UNL     1     111.108 127.958 137.773  0.00  0.00    +0.000 A 
ATOM      7  C   UNL     1     111.908 128.808 136.949  0.00  0.00    +0.000 A 
ATOM      8  C   UNL     1     110.709 128.618 138.066  0.00  0.00    +0.000 A 
ATOM      9  C   UNL     1     110.910 129.373 137.802  0.00  0.00    +0.000 A 
ATOM     10  C   UNL     1     110.502 130.068 138.100  0.00  0.00    +0.000 A 
ATOM     11  C   UNL     1     110.087 128.505 138.648  0.00  0.00    +0.000 A 
ATOM     12  C   UNL     1     109.668 129.189 138.958  0.00  0.00    +0.000 A 
ENDROOT
BRANCH   7  14
ATOM     13  O   UNL     1     114.306 129.190 134.714  0.00  0.00    +0.000 OA
ATOM     14  C   UNL     1     112.507 128.903 136.390  0.00  0.00    +0.000 A 
ATOM     15  C   UNL     1     113.296 128.918 136.630  0.00  0.00    +0.000 A 
ATOM     16  C   UNL     1     112.318 128.984 135.591  0.00  0.00    +0.000 A 
ATOM     17  C   UNL     1     113.896 129.013 136.071  0.00  0.00    +0.000 A 
ATOM     18  C   UNL     1     112.917 129.080 135.033  0.00  0.00    +0.000 A 
ATOM     19  C   UNL     1     113.706 129.094 135.273  0.00  0.00    +0.000 A 
ENDBRANCH   7  14
BRANCH   4  20
ATOM     20  O   UNL     1     112.106 127.393 136.920  0.00  0.00    +0.000 OA
BRANCH  20  27
ATOM     21  O   UNL     1     111.085 126.966 136.016  0.00  0.00    +0.000 OA
ATOM     22  O   UNL     1     111.619 124.605 136.528  0.00  0.00    +0.000 OA
ATOM     23  O   UNL     1     110.421 124.965 135.452  0.00  0.00    +0.000 OA
ATOM     24  C   UNL     1     111.863 125.999 136.725  0.00  0.00    +0.000 C 
ATOM     25  C   UNL     1     111.441 125.392 136.357  0.00  0.00    +0.000 C 
ATOM     26  C   UNL     1     110.842 125.572 135.820  0.00  0.00    +0.000 C 
ATOM     27  C   UNL     1     111.685 126.786 136.554  0.00  0.00    +0.000 C 
ATOM     28  C   UNL     1     110.665 126.359 135.649  0.00  0.00    +0.000 C 
ATOM     29  C   UNL     1     110.065 126.539 135.111  0.00  0.00    +0.000 C 
BRANCH  24  30
ATOM     30  O   UNL     1     112.461 125.819 137.262  0.00  0.00    +0.000 OA
BRANCH  30  35
ATOM     31  O   UNL     1     113.362 125.577 136.179  0.00  0.00    +0.000 OA
ATOM     32  O   UNL     1     113.652 125.433 138.337  0.00  0.00    +0.000 OA
ATOM     33  O   UNL     1     115.147 124.999 137.792  0.00  0.00    +0.000 OA
ATOM     34  O   UNL     1     115.452 124.950 136.171  0.00  0.00    +0.000 OA
ATOM     35  C   UNL     1     113.209 125.602 136.989  0.00  0.00    +0.000 C 
ATOM     36  C   UNL     1     113.805 125.408 137.527  0.00  0.00    +0.000 C 
ATOM     37  C   UNL     1     114.553 125.191 137.254  0.00  0.00    +0.000 C 
ATOM     38  C   UNL     1     114.704 125.167 136.443  0.00  0.00    +0.000 C 
ATOM     39  C   UNL     1     114.110 125.360 135.906  0.00  0.00    +0.000 C 
ENDBRANCH  30  35
ENDBRANCH  24  30
ENDBRANCH  20  27
ENDBRANCH   4  20
BRANCH   5  40
ATOM     40  O   UNL     1     109.480 130.637 138.974  0.00  0.00    +0.000 OA
BRANCH  40  49
ATOM     41  O   UNL     1     110.014 130.730 140.297  0.00  0.00    +0.000 OA
ATOM     42  O   UNL     1     107.724 130.979 141.203  0.00  0.00    +0.000 OA
ATOM     43  O   UNL     1     109.021 130.989 142.223  0.00  0.00    +0.000 OA
ATOM     44  O   UNL     1     107.954 130.803 139.578  0.00  0.00    +0.000 OA
ATOM     45  C   UNL     1     108.488 130.896 140.901  0.00  0.00    +0.000 C 
ATOM     46  C   UNL     1     109.136 130.901 141.411  0.00  0.00    +0.000 C 
ATOM     47  C   UNL     1     108.603 130.808 140.088  0.00  0.00    +0.000 C 
ATOM     48  C   UNL     1     109.899 130.818 141.109  0.00  0.00    +0.000 C 
ATOM     49  C   UNL     1     109.366 130.725 139.787  0.00  0.00    +0.000 C 
BRANCH  48  51
ATOM     50  O   UNL     1     111.234 131.232 141.410  0.00  0.00    +0.000 OA
ATOM     51  C   UNL     1     110.548 130.823 141.619  0.00  0.00    +0.000 C 
ENDBRANCH  48  51
ENDBRANCH  40  49
ENDBRANCH   5  40
BRANCH  10  52
ATOM     52  C   UNL     1     110.710 130.819 137.829  0.00  0.00    +0.000 C 
BRANCH  52  53
ATOM     53  C   UNL     1     110.266 131.180 137.234  0.00  0.00    +0.000 C 
ATOM     54  C   UNL     1     110.492 131.918 136.941  0.00  0.00    +0.000 C 
ATOM     55  C   UNL     1     110.049 132.278 136.347  0.00  0.00    +0.000 C 
ATOM     56  C   UNL     1     111.161 132.294 137.243  0.00  0.00    +0.000 C 
ENDBRANCH  52  53
ENDBRANCH  10  52
TORSDOF 10
ENDMDL
MODEL 2
REMARK VINA RESULT:     -10.1      2.054      4.297
REMARK  Name = 44258790
REMARK  10 active torsions:
REMARK  status: ('A' for Active; 'I' for Inactive)
REMARK    1  A    between atoms: O_1  and  C_20
REMARK    2  A    between atoms: O_1  and  C_25
REMARK    3  A    between atoms: O_4  and  C_23
REMARK    4  A    between atoms: O_4  and  C_36
REMARK    5  A    between atoms: O_10  and  C_35
REMARK    6  A    between atoms: O_10  and  C_38
REMARK    7  A    between atoms: C_34  and  C_37
REMARK    8  A    between atoms: C_40  and  C_47
REMARK    9  A    between atoms: C_43  and  C_46
REMARK   10  A    between atoms: C_46  and  C_48
REMARK                            x       y       z     vdW  Elec       q    Type
REMARK                         _______ _______ _______ _____ _____    ______ ____
ROOT
ATOM      1  O   UNL     1     112.527 127.745 139.258  0.00  0.00    +0.000 OA
ATOM      2  O   UNL     1     111.470 129.511 137.882  0.00  0.00    +0.000 OA
ATOM      3  O   UNL     1     111.752 130.505 138.889  0.00  0.00    +0.000 OA
ATOM      4  C   UNL     1     111.853 128.146 138.063  0.00  0.00    +0.000 A 
ATOM      5  C   UNL     1     112.807 129.512 140.597  0.00  0.00    +0.000 A 
ATOM      6  C   UNL     1     111.822 128.922 138.340  0.00  0.00    +0.000 A 
ATOM      7  C   UNL     1     112.205 127.557 138.522  0.00  0.00    +0.000 A 
ATOM      8  C   UNL     1     112.144 129.110 139.076  0.00  0.00    +0.000 A 
ATOM      9  C   UNL     1     112.497 128.522 139.535  0.00  0.00    +0.000 A 
ATOM     10  C   UNL     1     112.836 128.705 140.303  0.00  0.00    +0.000 A 
ATOM     11  C   UNL     1     112.106 129.923 139.354  0.00  0.00    +0.000 A 
ATOM     12  C   UNL     1     112.439 130.126 140.120  0.00  0.00    +0.000 A 
ENDROOT
BRANCH   7  14
ATOM     13  O   UNL     1     112.329 124.451 137.413  0.00  0.00    +0.000 OA
ATOM     14  C   UNL     1     112.236 126.781 138.245  0.00  0.00    +0.000 A 
ATOM     15  C   UNL     1     112.904 126.513 137.842  0.00  0.00    +0.000 A 
ATOM     16  C   UNL     1     111.599 126.272 138.370  0.00  0.00    +0.000 A 
ATOM     17  C   UNL     1     112.935 125.736 137.564  0.00  0.00    +0.000 A 
ATOM     18  C   UNL     1     111.630 125.496 138.094  0.00  0.00    +0.000 A 
ATOM     19  C   UNL     1     112.298 125.228 137.691  0.00  0.00    +0.000 A 
ENDBRANCH   7  14
BRANCH   4  20
ATOM     20  O   UNL     1     111.531 127.958 137.328  0.00  0.00    +0.000 OA
BRANCH  20  27
ATOM     21  O   UNL     1     112.599 128.532 136.571  0.00  0.00    +0.000 OA
ATOM     22  O   UNL     1     111.005 129.121 134.771  0.00  0.00    +0.000 OA
ATOM     23  O   UNL     1     112.604 129.499 134.614  0.00  0.00    +0.000 OA
ATOM     24  C   UNL     1     111.267 128.539 136.049  0.00  0.00    +0.000 C 
ATOM     25  C   UNL     1     111.536 128.925 135.371  0.00  0.00    +0.000 C 
ATOM     26  C   UNL     1     112.335 129.113 135.292  0.00  0.00    +0.000 C 
ATOM     27  C   UNL     1     111.799 128.343 136.649  0.00  0.00    +0.000 C 
ATOM     28  C   UNL     1     112.866 128.917 135.892  0.00  0.00    +0.000 C 
ATOM     29  C   UNL     1     113.666 129.105 135.814  0.00  0.00    +0.000 C 
BRANCH  24  30
ATOM     30  O   UNL     1     110.469 128.351 136.128  0.00  0.00    +0.000 OA
BRANCH  30  35
ATOM     31  O   UNL     1     110.643 127.234 135.254  0.00  0.00    +0.000 OA
ATOM     32  O   UNL     1     108.909 127.890 136.406  0.00  0.00    +0.000 OA
ATOM     33  O   UNL     1     108.304 126.542 135.671  0.00  0.00    +0.000 OA
ATOM     34  O   UNL     1     109.258 125.656 134.658  0.00  0.00    +0.000 OA
ATOM     35  C   UNL     1     110.166 127.677 135.760  0.00  0.00    +0.000 C 
ATOM     36  C   UNL     1     109.386 127.446 135.899  0.00  0.00    +0.000 C 
ATOM     37  C   UNL     1     109.083 126.772 135.532  0.00  0.00    +0.000 C 
ATOM     38  C   UNL     1     109.561 126.329 135.025  0.00  0.00    +0.000 C 
ATOM     39  C   UNL     1     110.340 126.560 134.886  0.00  0.00    +0.000 C 
ENDBRANCH  30  35
ENDBRANCH  24  30
ENDBRANCH  20  27
ENDBRANCH   4  20
BRANCH   5  40
ATOM     40  O   UNL     1     113.129 129.697 141.334  0.00  0.00    +0.000 OA
BRANCH  40  49
ATOM     41  O   UNL     1     111.974 129.902 142.151  0.00  0.00    +0.000 OA
ATOM     42  O   UNL     1     112.887 132.080 142.893  0.00  0.00    +0.000 OA
ATOM     43  O   UNL     1     111.429 131.559 143.463  0.00  0.00    +0.000 OA
ATOM     44  O   UNL     1     113.737 131.149 141.829  0.00  0.00    +0.000 OA
ATOM     45  C   UNL     1     112.583 131.354 142.646  0.00  0.00    +0.000 C 
ATOM     46  C   UNL     1     111.854 131.094 142.931  0.00  0.00    +0.000 C 
ATOM     47  C   UNL     1     113.008 130.888 142.114  0.00  0.00    +0.000 C 
ATOM     48  C   UNL     1     111.550 130.368 142.683  0.00  0.00    +0.000 C 
ATOM     49  C   UNL     1     112.704 130.163 141.866  0.00  0.00    +0.000 C 
BRANCH  48  51
ATOM     50  O   UNL     1     110.621 129.307 142.922  0.00  0.00    +0.000 OA
ATOM     51  C   UNL     1     110.820 130.107 142.968  0.00  0.00    +0.000 C 
ENDBRANCH  48  51
ENDBRANCH  40  49
ENDBRANCH   5  40
BRANCH  10  52
ATOM     52  C   UNL     1     113.186 128.111 140.755  0.00  0.00    +0.000 C 
BRANCH  52  53
ATOM     53  C   UNL     1     113.984 127.930 140.650  0.00  0.00    +0.000 C 
ATOM     54  C   UNL     1     114.316 127.285 141.045  0.00  0.00    +0.000 C 
ATOM     55  C   UNL     1     115.114 127.105 140.940  0.00  0.00    +0.000 C 
ATOM     56  C   UNL     1     113.850 126.822 141.542  0.00  0.00    +0.000 C 
ENDBRANCH  52  53
ENDBRANCH  10  52
TORSDOF 10
ENDMDL
MODEL 3
REMARK VINA RESULT:     -10.0      2.164      6.150
REMARK  Name = 44258790
REMARK  10 active torsions:
REMARK  status: ('A' for Active; 'I' for Inactive)
REMARK    1  A    between atoms: O_1  and  C_20
REMARK    2  A    between atoms: O_1  and  C_25
REMARK    3  A    between atoms: O_4  and  C_23
REMARK    4  A    between atoms: O_4  and  C_36
REMARK    5  A    between atoms: O_10  and  C_35
REMARK    6  A    between atoms: O_10  and  C_38
REMARK    7  A    between atoms: C_34  and  C_37
REMARK    8  A    between atoms: C_40  and  C_47
REMARK    9  A    between atoms: C_43  and  C_46
REMARK   10  A    between atoms: C_46  and  C_48
REMARK                            x       y       z     vdW  Elec       q    Type
REMARK                         _______ _______ _______ _____ _____    ______ ____
ROOT
ATOM      1  O   UNL     1     112.995 129.130 138.478  0.00  0.00    +0.000 OA
ATOM      2  O   UNL     1     110.859 128.955 139.716  0.00  0.00    +0.000 OA
ATOM      3  O   UNL     1     110.216 128.342 138.579  0.00  0.00    +0.000 OA
ATOM      4  C   UNL     1     112.232 129.345 139.667  0.00  0.00    +0.000 A 
ATOM      5  C   UNL     1     111.712 128.170 136.921  0.00  0.00    +0.000 A 
ATOM      6  C   UNL     1     111.571 129.014 139.304  0.00  0.00    +0.000 A 
ATOM      7  C   UNL     1     112.945 129.404 139.255  0.00  0.00    +0.000 A 
ATOM      8  C   UNL     1     111.621 128.740 138.527  0.00  0.00    +0.000 A 
ATOM      9  C   UNL     1     112.333 128.798 138.114  0.00  0.00    +0.000 A 
ATOM     10  C   UNL     1     112.398 128.517 137.305  0.00  0.00    +0.000 A 
ATOM     11  C   UNL     1     110.924 128.396 138.159  0.00  0.00    +0.000 A 
ATOM     12  C   UNL     1     110.970 128.109 137.350  0.00  0.00    +0.000 A 
ENDROOT
BRANCH   7  14
ATOM     13  O   UNL     1     115.593 130.730 140.710  0.00  0.00    +0.000 OA
ATOM     14  C   UNL     1     113.606 129.735 139.619  0.00  0.00    +0.000 A 
ATOM     15  C   UNL     1     114.156 129.250 139.997  0.00  0.00    +0.000 A 
ATOM     16  C   UNL     1     113.720 130.553 139.605  0.00  0.00    +0.000 A 
ATOM     17  C   UNL     1     114.819 129.581 140.361  0.00  0.00    +0.000 A 
ATOM     18  C   UNL     1     114.381 130.884 139.968  0.00  0.00    +0.000 A 
ATOM     19  C   UNL     1     114.931 130.399 140.346  0.00  0.00    +0.000 A 
ENDBRANCH   7  14
BRANCH   4  20
ATOM     20  O   UNL     1     112.182 129.619 140.444  0.00  0.00    +0.000 OA
BRANCH  20  27
ATOM     21  O   UNL     1     112.160 128.319 141.037  0.00  0.00    +0.000 OA
ATOM     22  O   UNL     1     110.729 129.176 142.865  0.00  0.00    +0.000 OA
ATOM     23  O   UNL     1     111.184 127.590 142.848  0.00  0.00    +0.000 OA
ATOM     24  C   UNL     1     111.456 129.398 141.655  0.00  0.00    +0.000 C 
ATOM     25  C   UNL     1     111.206 128.890 142.255  0.00  0.00    +0.000 C 
ATOM     26  C   UNL     1     111.434 128.098 142.247  0.00  0.00    +0.000 C 
ATOM     27  C   UNL     1     111.933 129.112 141.045  0.00  0.00    +0.000 C 
ATOM     28  C   UNL     1     111.911 127.812 141.638  0.00  0.00    +0.000 C 
ATOM     29  C   UNL     1     112.139 127.019 141.629  0.00  0.00    +0.000 C 
BRANCH  24  30
ATOM     30  O   UNL     1     111.228 130.191 141.663  0.00  0.00    +0.000 OA
BRANCH  30  35
ATOM     31  O   UNL     1     112.207 130.461 142.669  0.00  0.00    +0.000 OA
ATOM     32  O   UNL     1     110.767 131.775 141.687  0.00  0.00    +0.000 OA
ATOM     33  O   UNL     1     111.515 132.836 142.704  0.00  0.00    +0.000 OA
ATOM     34  O   UNL     1     112.724 132.314 143.698  0.00  0.00    +0.000 OA
ATOM     35  C   UNL     1     111.602 130.721 142.172  0.00  0.00    +0.000 C 
ATOM     36  C   UNL     1     111.371 131.514 142.184  0.00  0.00    +0.000 C 
ATOM     37  C   UNL     1     111.745 132.045 142.693  0.00  0.00    +0.000 C 
ATOM     38  C   UNL     1     112.350 131.783 143.189  0.00  0.00    +0.000 C 
ATOM     39  C   UNL     1     112.581 130.992 143.178  0.00  0.00    +0.000 C 
ENDBRANCH  30  35
ENDBRANCH  24  30
ENDBRANCH  20  27
ENDBRANCH   4  20
BRANCH   5  40
ATOM     40  O   UNL     1     111.765 127.897 136.144  0.00  0.00    +0.000 OA
BRANCH  40  49
ATOM     41  O   UNL     1     111.745 126.477 136.307  0.00  0.00    +0.000 OA
ATOM     42  O   UNL     1     109.949 126.309 134.612  0.00  0.00    +0.000 OA
ATOM     43  O   UNL     1     110.527 124.946 135.340  0.00  0.00    +0.000 OA
ATOM     44  O   UNL     1     110.568 127.784 135.014  0.00  0.00    +0.000 OA
ATOM     45  C   UNL     1     110.548 126.365 135.177  0.00  0.00    +0.000 C 
ATOM     46  C   UNL     1     110.837 125.683 135.541  0.00  0.00    +0.000 C 
ATOM     47  C   UNL     1     110.857 127.103 135.378  0.00  0.00    +0.000 C 
ATOM     48  C   UNL     1     111.435 125.739 136.106  0.00  0.00    +0.000 C 
ATOM     49  C   UNL     1     111.456 127.159 135.943  0.00  0.00    +0.000 C 
BRANCH  48  51
ATOM     50  O   UNL     1     112.517 125.016 136.697  0.00  0.00    +0.000 OA
ATOM     51  C   UNL     1     111.724 125.058 136.470  0.00  0.00    +0.000 C 
ENDBRANCH  48  51
ENDBRANCH  40  49
ENDBRANCH   5  40
BRANCH  10  52
ATOM     52  C   UNL     1     113.114 128.579 136.900  0.00  0.00    +0.000 C 
BRANCH  52  53
ATOM     53  C   UNL     1     113.257 129.230 136.414  0.00  0.00    +0.000 C 
ATOM     54  C   UNL     1     113.962 129.277 135.986  0.00  0.00    +0.000 C 
ATOM     55  C   UNL     1     114.105 129.928 135.499  0.00  0.00    +0.000 C 
ATOM     56  C   UNL     1     114.522 128.676 136.045  0.00  0.00    +0.000 C 
ENDBRANCH  52  53
ENDBRANCH  10  52
TORSDOF 10
ENDMDL
MODEL 4
REMARK VINA RESULT:     -10.0      1.607      6.672
REMARK  Name = 44258790
REMARK  10 active torsions:
REMARK  status: ('A' for Active; 'I' for Inactive)
REMARK    1  A    between atoms: O_1  and  C_20
REMARK    2  A    between atoms: O_1  and  C_25
REMARK    3  A    between atoms: O_4  and  C_23
REMARK    4  A    between atoms: O_4  and  C_36
REMARK    5  A    between atoms: O_10  and  C_35
REMARK    6  A    between atoms: O_10  and  C_38
REMARK    7  A    between atoms: C_34  and  C_37
REMARK    8  A    between atoms: C_40  and  C_47
REMARK    9  A    between atoms: C_43  and  C_46
REMARK   10  A    between atoms: C_46  and  C_48
REMARK                            x       y       z     vdW  Elec       q    Type
REMARK                         _______ _______ _______ _____ _____    ______ ____
ROOT
ATOM      1  O   UNL     1     111.392 128.754 138.562  0.00  0.00    +0.000 OA
ATOM      2  O   UNL     1     110.951 127.442 140.614  0.00  0.00    +0.000 OA
ATOM      3  O   UNL     1     111.808 126.377 140.152  0.00  0.00    +0.000 OA
ATOM      4  C   UNL     1     110.745 128.618 139.828  0.00  0.00    +0.000 A 
ATOM      5  C   UNL     1     112.636 126.945 138.149  0.00  0.00    +0.000 A 
ATOM      6  C   UNL     1     111.098 127.880 139.930  0.00  0.00    +0.000 A 
ATOM      7  C   UNL     1     110.891 129.056 139.144  0.00  0.00    +0.000 A 
ATOM      8  C   UNL     1     111.598 127.579 139.347  0.00  0.00    +0.000 A 
ATOM      9  C   UNL     1     111.746 128.015 138.663  0.00  0.00    +0.000 A 
ATOM     10  C   UNL     1     112.265 127.713 138.049  0.00  0.00    +0.000 A 
ATOM     11  C   UNL     1     111.960 126.808 139.465  0.00  0.00    +0.000 A 
ATOM     12  C   UNL     1     112.483 126.488 138.862  0.00  0.00    +0.000 A 
ENDROOT
BRANCH   7  14
ATOM     13  O   UNL     1     109.477 132.010 138.738  0.00  0.00    +0.000 OA
ATOM     14  C   UNL     1     110.538 129.794 139.043  0.00  0.00    +0.000 A 
ATOM     15  C   UNL     1     109.781 129.848 138.720  0.00  0.00    +0.000 A 
ATOM     16  C   UNL     1     110.942 130.479 139.264  0.00  0.00    +0.000 A 
ATOM     17  C   UNL     1     109.427 130.587 138.619  0.00  0.00    +0.000 A 
ATOM     18  C   UNL     1     110.589 131.217 139.162  0.00  0.00    +0.000 A 
ATOM     19  C   UNL     1     109.831 131.271 138.840  0.00  0.00    +0.000 A 
ENDBRANCH   7  14
BRANCH   4  20
ATOM     20  O   UNL     1     110.244 128.919 140.411  0.00  0.00    +0.000 OA
BRANCH  20  27
ATOM     21  O   UNL     1     111.289 129.218 141.338  0.00  0.00    +0.000 OA
ATOM     22  O   UNL     1     109.755 128.745 143.221  0.00  0.00    +0.000 OA
ATOM     23  O   UNL     1     111.312 129.202 143.520  0.00  0.00    +0.000 OA
ATOM     24  C   UNL     1     109.999 128.832 141.816  0.00  0.00    +0.000 C 
ATOM     25  C   UNL     1     110.267 128.903 142.593  0.00  0.00    +0.000 C 
ATOM     26  C   UNL     1     111.044 129.131 142.743  0.00  0.00    +0.000 C 
ATOM     27  C   UNL     1     110.510 128.990 141.188  0.00  0.00    +0.000 C 
ATOM     28  C   UNL     1     111.556 129.289 142.115  0.00  0.00    +0.000 C 
ATOM     29  C   UNL     1     112.335 129.517 142.265  0.00  0.00    +0.000 C 
BRANCH  24  30
ATOM     30  O   UNL     1     109.221 128.604 141.666  0.00  0.00    +0.000 OA
BRANCH  30  35
ATOM     31  O   UNL     1     108.771 129.924 141.979  0.00  0.00    +0.000 OA
ATOM     32  O   UNL     1     107.681 128.177 141.255  0.00  0.00    +0.000 OA
ATOM     33  O   UNL     1     106.462 129.284 141.362  0.00  0.00    +0.000 OA
ATOM     34  O   UNL     1     106.783 130.817 141.881  0.00  0.00    +0.000 OA
ATOM     35  C   UNL     1     108.611 129.157 141.720  0.00  0.00    +0.000 C 
ATOM     36  C   UNL     1     107.841 128.944 141.514  0.00  0.00    +0.000 C 
ATOM     37  C   UNL     1     107.231 129.497 141.568  0.00  0.00    +0.000 C 
ATOM     38  C   UNL     1     107.392 130.263 141.827  0.00  0.00    +0.000 C 
ATOM     39  C   UNL     1     108.161 130.477 142.033  0.00  0.00    +0.000 C 
ENDBRANCH  30  35
ENDBRANCH  24  30
ENDBRANCH  20  27
ENDBRANCH   4  20
BRANCH   5  40
ATOM     40  O   UNL     1     113.136 126.646 137.565  0.00  0.00    +0.000 OA
BRANCH  40  49
ATOM     41  O   UNL     1     112.361 125.572 137.027  0.00  0.00    +0.000 OA
ATOM     42  O   UNL     1     114.310 124.061 137.236  0.00  0.00    +0.000 OA
ATOM     43  O   UNL     1     112.885 123.491 136.628  0.00  0.00    +0.000 OA
ATOM     44  O   UNL     1     114.435 125.638 137.704  0.00  0.00    +0.000 OA
ATOM     45  C   UNL     1     113.660 124.565 137.166  0.00  0.00    +0.000 C 
ATOM     46  C   UNL     1     112.948 124.280 136.862  0.00  0.00    +0.000 C 
ATOM     47  C   UNL     1     113.722 125.353 137.400  0.00  0.00    +0.000 C 
ATOM     48  C   UNL     1     112.298 124.784 136.792  0.00  0.00    +0.000 C 
ATOM     49  C   UNL     1     113.073 125.857 137.330  0.00  0.00    +0.000 C 
BRANCH  48  51
ATOM     50  O   UNL     1     111.143 124.965 135.970  0.00  0.00    +0.000 OA
ATOM     51  C   UNL     1     111.586 124.499 136.488  0.00  0.00    +0.000 C 
ENDBRANCH  48  51
ENDBRANCH  40  49
ENDBRANCH   5  40
BRANCH  10  52
ATOM     52  C   UNL     1     112.406 128.157 137.369  0.00  0.00    +0.000 C 
BRANCH  52  53
ATOM     53  C   UNL     1     113.069 128.647 137.327  0.00  0.00    +0.000 C 
ATOM     54  C   UNL     1     113.199 129.107 136.654  0.00  0.00    +0.000 C 
ATOM     55  C   UNL     1     113.862 129.597 136.612  0.00  0.00    +0.000 C 
ATOM     56  C   UNL     1     112.668 129.077 136.024  0.00  0.00    +0.000 C 
ENDBRANCH  52  53
ENDBRANCH  10  52
TORSDOF 10
ENDMDL
MODEL 5
REMARK VINA RESULT:      -9.9      1.718      6.371
REMARK  Name = 44258790
REMARK  10 active torsions:
REMARK  status: ('A' for Active; 'I' for Inactive)
REMARK    1  A    between atoms: O_1  and  C_20
REMARK    2  A    between atoms: O_1  and  C_25
REMARK    3  A    between atoms: O_4  and  C_23
REMARK    4  A    between atoms: O_4  and  C_36
REMARK    5  A    between atoms: O_10  and  C_35
REMARK    6  A    between atoms: O_10  and  C_38
REMARK    7  A    between atoms: C_34  and  C_37
REMARK    8  A    between atoms: C_40  and  C_47
REMARK    9  A    between atoms: C_43  and  C_46
REMARK   10  A    between atoms: C_46  and  C_48
REMARK                            x       y       z     vdW  Elec       q    Type
REMARK                         _______ _______ _______ _____ _____    ______ ____
ROOT
ATOM      1  O   UNL     1     111.819 128.928 138.192  0.00  0.00    +0.000 OA
ATOM      2  O   UNL     1     112.494 127.930 140.354  0.00  0.00    +0.000 OA
ATOM      3  O   UNL     1     113.218 126.881 139.677  0.00  0.00    +0.000 OA
ATOM      4  C   UNL     1     111.802 128.942 139.621  0.00  0.00    +0.000 A 
ATOM      5  C   UNL     1     113.019 127.188 137.467  0.00  0.00    +0.000 A 
ATOM      6  C   UNL     1     112.269 128.263 139.633  0.00  0.00    +0.000 A 
ATOM      7  C   UNL     1     111.577 129.276 138.900  0.00  0.00    +0.000 A 
ATOM      8  C   UNL     1     112.511 127.916 138.925  0.00  0.00    +0.000 A 
ATOM      9  C   UNL     1     112.287 128.248 138.205  0.00  0.00    +0.000 A 
ATOM     10  C   UNL     1     112.532 127.896 137.460  0.00  0.00    +0.000 A 
ATOM     11  C   UNL     1     112.997 127.208 138.952  0.00  0.00    +0.000 A 
ATOM     12  C   UNL     1     113.253 126.841 138.218  0.00  0.00    +0.000 A 
ENDROOT
BRANCH   7  14
ATOM     13  O   UNL     1     109.710 131.996 138.849  0.00  0.00    +0.000 OA
ATOM     14  C   UNL     1     111.110 129.955 138.887  0.00  0.00    +0.000 A 
ATOM     15  C   UNL     1     111.460 130.697 138.972  0.00  0.00    +0.000 A 
ATOM     16  C   UNL     1     110.293 129.894 138.790  0.00  0.00    +0.000 A 
ATOM     17  C   UNL     1     110.993 131.378 138.959  0.00  0.00    +0.000 A 
ATOM     18  C   UNL     1     109.827 130.573 138.777  0.00  0.00    +0.000 A 
ATOM     19  C   UNL     1     110.177 131.315 138.862  0.00  0.00    +0.000 A 
ENDBRANCH   7  14
BRANCH   4  20
ATOM     20  O   UNL     1     111.560 129.290 140.329  0.00  0.00    +0.000 OA
BRANCH  20  27
ATOM     21  O   UNL     1     110.542 128.332 140.626  0.00  0.00    +0.000 OA
ATOM     22  O   UNL     1     111.034 128.558 143.041  0.00  0.00    +0.000 OA
ATOM     23  O   UNL     1     109.852 127.525 142.533  0.00  0.00    +0.000 OA
ATOM     24  C   UNL     1     111.298 128.924 141.685  0.00  0.00    +0.000 C 
ATOM     25  C   UNL     1     110.870 128.483 142.236  0.00  0.00    +0.000 C 
ATOM     26  C   UNL     1     110.279 127.967 141.982  0.00  0.00    +0.000 C 
ATOM     27  C   UNL     1     111.133 128.849 140.880  0.00  0.00    +0.000 C 
ATOM     28  C   UNL     1     110.115 127.892 141.177  0.00  0.00    +0.000 C 
ATOM     29  C   UNL     1     109.523 127.375 140.923  0.00  0.00    +0.000 C 
BRANCH  24  30
ATOM     30  O   UNL     1     111.888 129.440 141.939  0.00  0.00    +0.000 OA
BRANCH  30  35
ATOM     31  O   UNL     1     110.895 130.384 142.345  0.00  0.00    +0.000 OA
ATOM     32  O   UNL     1     113.072 130.528 142.310  0.00  0.00    +0.000 OA
ATOM     33  O   UNL     1     112.670 132.015 142.902  0.00  0.00    +0.000 OA
ATOM     34  O   UNL     1     111.085 132.414 143.123  0.00  0.00    +0.000 OA
ATOM     35  C   UNL     1     111.687 130.184 142.235  0.00  0.00    +0.000 C 
ATOM     36  C   UNL     1     112.280 130.728 142.421  0.00  0.00    +0.000 C 
ATOM     37  C   UNL     1     112.079 131.471 142.717  0.00  0.00    +0.000 C 
ATOM     38  C   UNL     1     111.286 131.670 142.827  0.00  0.00    +0.000 C 
ATOM     39  C   UNL     1     110.694 131.127 142.641  0.00  0.00    +0.000 C 
ENDBRANCH  30  35
ENDBRANCH  24  30
ENDBRANCH  20  27
ENDBRANCH   4  20
BRANCH   5  40
ATOM     40  O   UNL     1     113.259 126.843 136.757  0.00  0.00    +0.000 OA
BRANCH  40  49
ATOM     41  O   UNL     1     112.486 125.641 136.736  0.00  0.00    +0.000 OA
ATOM     42  O   UNL     1     114.524 124.340 136.207  0.00  0.00    +0.000 OA
ATOM     43  O   UNL     1     113.072 123.572 136.362  0.00  0.00    +0.000 OA
ATOM     44  O   UNL     1     114.617 125.975 136.405  0.00  0.00    +0.000 OA
ATOM     45  C   UNL     1     113.845 124.773 136.384  0.00  0.00    +0.000 C 
ATOM     46  C   UNL     1     113.119 124.389 136.461  0.00  0.00    +0.000 C 
ATOM     47  C   UNL     1     113.891 125.591 136.482  0.00  0.00    +0.000 C 
ATOM     48  C   UNL     1     112.439 124.823 136.637  0.00  0.00    +0.000 C 
ATOM     49  C   UNL     1     113.212 126.025 136.659  0.00  0.00    +0.000 C 
BRANCH  48  51
ATOM     50  O   UNL     1     111.021 124.808 136.453  0.00  0.00    +0.000 OA
ATOM     51  C   UNL     1     111.713 124.439 136.714  0.00  0.00    +0.000 C 
ENDBRANCH  48  51
ENDBRANCH  40  49
ENDBRANCH   5  40
BRANCH  10  52
ATOM     52  C   UNL     1     112.303 128.236 136.744  0.00  0.00    +0.000 C 
BRANCH  52  53
ATOM     53  C   UNL     1     112.817 128.742 136.345  0.00  0.00    +0.000 C 
ATOM     54  C   UNL     1     112.579 129.099 135.639  0.00  0.00    +0.000 C 
ATOM     55  C   UNL     1     113.094 129.604 135.240  0.00  0.00    +0.000 C 
ATOM     56  C   UNL     1     111.828 128.950 135.335  0.00  0.00    +0.000 C 
ENDBRANCH  52  53
ENDBRANCH  10  52
TORSDOF 10
ENDMDL
MODEL 6
REMARK VINA RESULT:      -9.8      1.929      3.464
REMARK  Name = 44258790
REMARK  10 active torsions:
REMARK  status: ('A' for Active; 'I' for Inactive)
REMARK    1  A    between atoms: O_1  and  C_20
REMARK    2  A    between atoms: O_1  and  C_25
REMARK    3  A    between atoms: O_4  and  C_23
REMARK    4  A    between atoms: O_4  and  C_36
REMARK    5  A    between atoms: O_10  and  C_35
REMARK    6  A    between atoms: O_10  and  C_38
REMARK    7  A    between atoms: C_34  and  C_37
REMARK    8  A    between atoms: C_40  and  C_47
REMARK    9  A    between atoms: C_43  and  C_46
REMARK   10  A    between atoms: C_46  and  C_48
REMARK                            x       y       z     vdW  Elec       q    Type
REMARK                         _______ _______ _______ _____ _____    ______ ____
ROOT
ATOM      1  O   UNL     1     111.676 128.594 140.710  0.00  0.00    +0.000 OA
ATOM      2  O   UNL     1     110.787 128.197 138.434  0.00  0.00    +0.000 OA
ATOM      3  O   UNL     1     109.585 128.932 138.744  0.00  0.00    +0.000 OA
ATOM      4  C   UNL     1     111.822 128.030 139.405  0.00  0.00    +0.000 A 
ATOM      5  C   UNL     1     109.716 129.657 140.859  0.00  0.00    +0.000 A 
ATOM      6  C   UNL     1     111.084 128.329 139.192  0.00  0.00    +0.000 A 
ATOM      7  C   UNL     1     112.119 128.162 140.164  0.00  0.00    +0.000 A 
ATOM      8  C   UNL     1     110.642 128.761 139.738  0.00  0.00    +0.000 A 
ATOM      9  C   UNL     1     110.937 128.894 140.497  0.00  0.00    +0.000 A 
ATOM     10  C   UNL     1     110.486 129.342 141.075  0.00  0.00    +0.000 A 
ATOM     11  C   UNL     1     109.874 129.068 139.504  0.00  0.00    +0.000 A 
ATOM     12  C   UNL     1     109.407 129.520 140.069  0.00  0.00    +0.000 A 
ENDROOT
BRANCH   7  14
ATOM     13  O   UNL     1     115.073 126.962 141.015  0.00  0.00    +0.000 OA
ATOM     14  C   UNL     1     112.857 127.862 140.376  0.00  0.00    +0.000 A 
ATOM     15  C   UNL     1     112.927 127.079 140.628  0.00  0.00    +0.000 A 
ATOM     16  C   UNL     1     113.525 128.344 140.338  0.00  0.00    +0.000 A 
ATOM     17  C   UNL     1     113.666 126.779 140.841  0.00  0.00    +0.000 A 
ATOM     18  C   UNL     1     114.263 128.044 140.551  0.00  0.00    +0.000 A 
ATOM     19  C   UNL     1     114.334 127.262 140.802  0.00  0.00    +0.000 A 
ENDBRANCH   7  14
BRANCH   4  20
ATOM     20  O   UNL     1     112.265 127.598 138.859  0.00  0.00    +0.000 OA
BRANCH  20  27
ATOM     21  O   UNL     1     112.671 128.734 138.094  0.00  0.00    +0.000 OA
ATOM     22  O   UNL     1     112.680 127.349 136.042  0.00  0.00    +0.000 OA
ATOM     23  O   UNL     1     113.083 128.947 135.961  0.00  0.00    +0.000 OA
ATOM     24  C   UNL     1     112.472 127.472 137.451  0.00  0.00    +0.000 C 
ATOM     25  C   UNL     1     112.677 127.810 136.726  0.00  0.00    +0.000 C 
ATOM     26  C   UNL     1     112.878 128.609 136.685  0.00  0.00    +0.000 C 
ATOM     27  C   UNL     1     112.469 127.934 138.134  0.00  0.00    +0.000 C 
ATOM     28  C   UNL     1     112.876 129.070 137.369  0.00  0.00    +0.000 C 
ATOM     29  C   UNL     1     113.077 129.870 137.328  0.00  0.00    +0.000 C 
BRANCH  24  30
ATOM     30  O   UNL     1     112.270 126.674 137.492  0.00  0.00    +0.000 OA
BRANCH  30  35
ATOM     31  O   UNL     1     113.654 126.317 137.452  0.00  0.00    +0.000 OA
ATOM     32  O   UNL     1     111.857 125.080 137.393  0.00  0.00    +0.000 OA
ATOM     33  O   UNL     1     113.033 123.926 137.305  0.00  0.00    +0.000 OA
ATOM     34  O   UNL     1     114.623 124.367 137.314  0.00  0.00    +0.000 OA
ATOM     35  C   UNL     1     112.859 126.098 137.447  0.00  0.00    +0.000 C 
ATOM     36  C   UNL     1     112.652 125.300 137.398  0.00  0.00    +0.000 C 
ATOM     37  C   UNL     1     113.240 124.723 137.354  0.00  0.00    +0.000 C 
ATOM     38  C   UNL     1     114.035 124.944 137.358  0.00  0.00    +0.000 C 
ATOM     39  C   UNL     1     114.242 125.741 137.408  0.00  0.00    +0.000 C 
ENDBRANCH  30  35
ENDBRANCH  24  30
ENDBRANCH  20  27
ENDBRANCH   4  20
BRANCH   5  40
ATOM     40  O   UNL     1     109.276 130.089 141.407  0.00  0.00    +0.000 OA
BRANCH  40  49
ATOM     41  O   UNL     1     108.177 129.212 141.668  0.00  0.00    +0.000 OA
ATOM     42  O   UNL     1     106.599 131.083 141.300  0.00  0.00    +0.000 OA
ATOM     43  O   UNL     1     106.026 129.584 141.683  0.00  0.00    +0.000 OA
ATOM     44  O   UNL     1     108.223 131.335 141.162  0.00  0.00    +0.000 OA
ATOM     45  C   UNL     1     107.125 130.459 141.422  0.00  0.00    +0.000 C 
ATOM     46  C   UNL     1     106.839 129.710 141.614  0.00  0.00    +0.000 C 
ATOM     47  C   UNL     1     107.937 130.585 141.353  0.00  0.00    +0.000 C 
ATOM     48  C   UNL     1     107.365 129.086 141.737  0.00  0.00    +0.000 C 
ATOM     49  C   UNL     1     108.463 129.962 141.476  0.00  0.00    +0.000 C 
BRANCH  48  51
ATOM     50  O   UNL     1     107.485 127.866 142.472  0.00  0.00    +0.000 OA
ATOM     51  C   UNL     1     107.078 128.337 141.929  0.00  0.00    +0.000 C 
ENDBRANCH  48  51
ENDBRANCH  40  49
ENDBRANCH   5  40
BRANCH  10  52
ATOM     52  C   UNL     1     110.790 129.469 141.831  0.00  0.00    +0.000 C 
BRANCH  52  53
ATOM     53  C   UNL     1     111.200 130.166 141.999  0.00  0.00    +0.000 C 
ATOM     54  C   UNL     1     111.530 130.279 142.747  0.00  0.00    +0.000 C 
ATOM     55  C   UNL     1     111.940 130.975 142.914  0.00  0.00    +0.000 C 
ATOM     56  C   UNL     1     111.450 129.698 143.326  0.00  0.00    +0.000 C 
ENDBRANCH  52  53
ENDBRANCH  10  52
TORSDOF 10
ENDMDL
MODEL 7
REMARK VINA RESULT:      -9.7      2.189      4.329
REMARK  Name = 44258790
REMARK  10 active torsions:
REMARK  status: ('A' for Active; 'I' for Inactive)
REMARK    1  A    between atoms: O_1  and  C_20
REMARK    2  A    between atoms: O_1  and  C_25
REMARK    3  A    between atoms: O_4  and  C_23
REMARK    4  A    between atoms: O_4  and  C_36
REMARK    5  A    between atoms: O_10  and  C_35
REMARK    6  A    between atoms: O_10  and  C_38
REMARK    7  A    between atoms: C_34  and  C_37
REMARK    8  A    between atoms: C_40  and  C_47
REMARK    9  A    between atoms: C_43  and  C_46
REMARK   10  A    between atoms: C_46  and  C_48
REMARK                            x       y       z     vdW  Elec       q    Type
REMARK                         _______ _______ _______ _____ _____    ______ ____
ROOT
ATOM      1  O   UNL     1     112.539 129.651 139.285  0.00  0.00    +0.000 OA
ATOM      2  O   UNL     1     110.148 130.248 139.057  0.00  0.00    +0.000 OA
ATOM      3  O   UNL     1     110.140 130.839 140.373  0.00  0.00    +0.000 OA
ATOM      4  C   UNL     1     111.334 129.660 138.518  0.00  0.00    +0.000 A 
ATOM      5  C   UNL     1     112.187 130.637 141.259  0.00  0.00    +0.000 A 
ATOM      6  C   UNL     1     110.945 130.049 139.132  0.00  0.00    +0.000 A 
ATOM      7  C   UNL     1     112.131 129.461 138.594  0.00  0.00    +0.000 A 
ATOM      8  C   UNL     1     111.353 130.239 139.824  0.00  0.00    +0.000 A 
ATOM      9  C   UNL     1     112.150 130.040 139.901  0.00  0.00    +0.000 A 
ATOM     10  C   UNL     1     112.587 130.232 140.616  0.00  0.00    +0.000 A 
ATOM     11  C   UNL     1     110.937 130.644 140.457  0.00  0.00    +0.000 A 
ATOM     12  C   UNL     1     111.357 130.845 141.181  0.00  0.00    +0.000 A 
ENDROOT
BRANCH   7  14
ATOM     13  O   UNL     1     113.688 127.906 136.134  0.00  0.00    +0.000 OA
ATOM     14  C   UNL     1     112.520 129.072 137.980  0.00  0.00    +0.000 A 
ATOM     15  C   UNL     1     112.946 129.506 137.422  0.00  0.00    +0.000 A 
ATOM     16  C   UNL     1     112.484 128.250 137.922  0.00  0.00    +0.000 A 
ATOM     17  C   UNL     1     113.335 129.117 136.806  0.00  0.00    +0.000 A 
ATOM     18  C   UNL     1     112.873 127.861 137.308  0.00  0.00    +0.000 A 
ATOM     19  C   UNL     1     113.298 128.295 136.750  0.00  0.00    +0.000 A 
ENDBRANCH   7  14
BRANCH   4  20
ATOM     20  O   UNL     1     110.926 129.470 137.827  0.00  0.00    +0.000 OA
BRANCH  20  27
ATOM     21  O   UNL     1     110.886 130.810 137.332  0.00  0.00    +0.000 OA
ATOM     22  O   UNL     1     108.716 130.342 136.238  0.00  0.00    +0.000 OA
ATOM     23  O   UNL     1     109.399 131.838 136.109  0.00  0.00    +0.000 OA
ATOM     24  C   UNL     1     109.821 129.905 137.032  0.00  0.00    +0.000 C 
ATOM     25  C   UNL     1     109.439 130.498 136.603  0.00  0.00    +0.000 C 
ATOM     26  C   UNL     1     109.780 131.246 136.538  0.00  0.00    +0.000 C 
ATOM     27  C   UNL     1     110.544 130.062 137.397  0.00  0.00    +0.000 C 
ATOM     28  C   UNL     1     110.504 131.402 136.903  0.00  0.00    +0.000 C 
ATOM     29  C   UNL     1     110.846 132.151 136.838  0.00  0.00    +0.000 C 
BRANCH  24  30
ATOM     30  O   UNL     1     109.479 129.158 137.097  0.00  0.00    +0.000 OA
BRANCH  30  35
ATOM     31  O   UNL     1     109.896 128.849 135.766  0.00  0.00    +0.000 OA
ATOM     32  O   UNL     1     108.910 127.619 137.275  0.00  0.00    +0.000 OA
ATOM     33  O   UNL     1     109.042 126.542 136.032  0.00  0.00    +0.000 OA
ATOM     34  O   UNL     1     109.744 127.003 134.612  0.00  0.00    +0.000 OA
ATOM     35  C   UNL     1     109.545 128.619 136.476  0.00  0.00    +0.000 C 
ATOM     36  C   UNL     1     109.260 127.849 136.565  0.00  0.00    +0.000 C 
ATOM     37  C   UNL     1     109.326 127.310 135.943  0.00  0.00    +0.000 C 
ATOM     38  C   UNL     1     109.678 127.542 135.233  0.00  0.00    +0.000 C 
ATOM     39  C   UNL     1     109.962 128.310 135.144  0.00  0.00    +0.000 C 
ENDBRANCH  30  35
ENDBRANCH  24  30
ENDBRANCH  20  27
ENDBRANCH   4  20
BRANCH   5  40
ATOM     40  O   UNL     1     112.598 130.825 141.950  0.00  0.00    +0.000 OA
BRANCH  40  49
ATOM     41  O   UNL     1     111.932 130.010 142.917  0.00  0.00    +0.000 OA
ATOM     42  O   UNL     1     111.729 131.964 144.423  0.00  0.00    +0.000 OA
ATOM     43  O   UNL     1     111.131 130.499 144.888  0.00  0.00    +0.000 OA
ATOM     44  O   UNL     1     112.462 132.127 142.954  0.00  0.00    +0.000 OA
ATOM     45  C   UNL     1     111.796 131.313 143.921  0.00  0.00    +0.000 C 
ATOM     46  C   UNL     1     111.498 130.580 144.154  0.00  0.00    +0.000 C 
ATOM     47  C   UNL     1     112.163 131.394 143.186  0.00  0.00    +0.000 C 
ATOM     48  C   UNL     1     111.565 129.929 143.652  0.00  0.00    +0.000 C 
ATOM     49  C   UNL     1     112.231 130.743 142.685  0.00  0.00    +0.000 C 
BRANCH  48  51
ATOM     50  O   UNL     1     111.651 128.502 143.655  0.00  0.00    +0.000 OA
ATOM     51  C   UNL     1     111.266 129.196 143.884  0.00  0.00    +0.000 C 
ENDBRANCH  48  51
ENDBRANCH  40  49
ENDBRANCH   5  40
BRANCH  10  52
ATOM     52  C   UNL     1     113.383 130.029 140.683  0.00  0.00    +0.000 C 
BRANCH  52  53
ATOM     53  C   UNL     1     113.966 130.601 140.562  0.00  0.00    +0.000 C 
ATOM     54  C   UNL     1     114.763 130.385 140.572  0.00  0.00    +0.000 C 
ATOM     55  C   UNL     1     115.345 130.957 140.451  0.00  0.00    +0.000 C 
ATOM     56  C   UNL     1     114.976 129.600 140.702  0.00  0.00    +0.000 C 
ENDBRANCH  52  53
ENDBRANCH  10  52
TORSDOF 10
ENDMDL
MODEL 8
REMARK VINA RESULT:      -9.6      3.164      6.334
REMARK  Name = 44258790
REMARK  10 active torsions:
REMARK  status: ('A' for Active; 'I' for Inactive)
REMARK    1  A    between atoms: O_1  and  C_20
REMARK    2  A    between atoms: O_1  and  C_25
REMARK    3  A    between atoms: O_4  and  C_23
REMARK    4  A    between atoms: O_4  and  C_36
REMARK    5  A    between atoms: O_10  and  C_35
REMARK    6  A    between atoms: O_10  and  C_38
REMARK    7  A    between atoms: C_34  and  C_37
REMARK    8  A    between atoms: C_40  and  C_47
REMARK    9  A    between atoms: C_43  and  C_46
REMARK   10  A    between atoms: C_46  and  C_48
REMARK                            x       y       z     vdW  Elec       q    Type
REMARK                         _______ _______ _______ _____ _____    ______ ____
ROOT
ATOM      1  O   UNL     1     111.360 129.432 143.090  0.00  0.00    +0.000 OA
ATOM      2  O   UNL     1     111.563 131.272 141.446  0.00  0.00    +0.000 OA
ATOM      3  O   UNL     1     111.579 132.254 142.504  0.00  0.00    +0.000 OA
ATOM      4  C   UNL     1     111.455 129.877 141.736  0.00  0.00    +0.000 A 
ATOM      5  C   UNL     1     111.414 131.191 144.468  0.00  0.00    +0.000 A 
ATOM      6  C   UNL     1     111.495 130.658 141.994  0.00  0.00    +0.000 A 
ATOM      7  C   UNL     1     111.387 129.263 142.283  0.00  0.00    +0.000 A 
ATOM      8  C   UNL     1     111.468 130.828 142.801  0.00  0.00    +0.000 A 
ATOM      9  C   UNL     1     111.401 130.215 143.350  0.00  0.00    +0.000 A 
ATOM     10  C   UNL     1     111.372 130.378 144.193  0.00  0.00    +0.000 A 
ATOM     11  C   UNL     1     111.511 131.647 143.058  0.00  0.00    +0.000 A 
ATOM     12  C   UNL     1     111.484 131.830 143.898  0.00  0.00    +0.000 A 
ENDROOT
BRANCH   7  14
ATOM     13  O   UNL     1     111.225 126.134 141.248  0.00  0.00    +0.000 OA
ATOM     14  C   UNL     1     111.347 128.481 142.025  0.00  0.00    +0.000 A 
ATOM     15  C   UNL     1     110.619 128.153 141.815  0.00  0.00    +0.000 A 
ATOM     16  C   UNL     1     112.034 128.026 141.975  0.00  0.00    +0.000 A 
ATOM     17  C   UNL     1     110.579 127.371 141.556  0.00  0.00    +0.000 A 
ATOM     18  C   UNL     1     111.993 127.245 141.717  0.00  0.00    +0.000 A 
ATOM     19  C   UNL     1     111.266 126.917 141.507  0.00  0.00    +0.000 A 
ENDBRANCH   7  14
BRANCH   4  20
ATOM     20  O   UNL     1     111.482 129.707 140.929  0.00  0.00    +0.000 OA
BRANCH  20  27
ATOM     21  O   UNL     1     112.883 129.949 140.787  0.00  0.00    +0.000 OA
ATOM     22  O   UNL     1     112.508 130.774 138.483  0.00  0.00    +0.000 OA
ATOM     23  O   UNL     1     114.034 130.741 139.110  0.00  0.00    +0.000 OA
ATOM     24  C   UNL     1     111.994 130.241 139.706  0.00  0.00    +0.000 C 
ATOM     25  C   UNL     1     112.633 130.499 139.251  0.00  0.00    +0.000 C 
ATOM     26  C   UNL     1     113.395 130.483 139.564  0.00  0.00    +0.000 C 
ATOM     27  C   UNL     1     112.119 129.966 140.473  0.00  0.00    +0.000 C 
ATOM     28  C   UNL     1     113.520 130.208 140.332  0.00  0.00    +0.000 C 
ATOM     29  C   UNL     1     114.284 130.191 140.645  0.00  0.00    +0.000 C 
BRANCH  24  30
ATOM     30  O   UNL     1     111.231 130.257 139.393  0.00  0.00    +0.000 OA
BRANCH  30  35
ATOM     31  O   UNL     1     111.509 129.068 138.650  0.00  0.00    +0.000 OA
ATOM     32  O   UNL     1     109.680 130.245 138.831  0.00  0.00    +0.000 OA
ATOM     33  O   UNL     1     109.183 129.050 137.807  0.00  0.00    +0.000 OA
ATOM     34  O   UNL     1     110.237 127.868 137.345  0.00  0.00    +0.000 OA
ATOM     35  C   UNL     1     110.983 129.660 138.881  0.00  0.00    +0.000 C 
ATOM     36  C   UNL     1     110.207 129.653 138.600  0.00  0.00    +0.000 C 
ATOM     37  C   UNL     1     109.958 129.056 138.087  0.00  0.00    +0.000 C 
ATOM     38  C   UNL     1     110.486 128.465 137.857  0.00  0.00    +0.000 C 
ATOM     39  C   UNL     1     111.261 128.471 138.138  0.00  0.00    +0.000 C 
ENDBRANCH  30  35
ENDBRANCH  24  30
ENDBRANCH  20  27
ENDBRANCH   4  20
BRANCH   5  40
ATOM     40  O   UNL     1     111.386 131.357 145.276  0.00  0.00    +0.000 OA
BRANCH  40  49
ATOM     41  O   UNL     1     110.075 131.914 145.394  0.00  0.00    +0.000 OA
ATOM     42  O   UNL     1     110.988 133.777 146.744  0.00  0.00    +0.000 OA
ATOM     43  O   UNL     1     109.373 133.712 146.413  0.00  0.00    +0.000 OA
ATOM     44  O   UNL     1     111.994 132.599 146.175  0.00  0.00    +0.000 OA
ATOM     45  C   UNL     1     110.684 133.156 146.294  0.00  0.00    +0.000 C 
ATOM     46  C   UNL     1     109.876 133.124 146.128  0.00  0.00    +0.000 C 
ATOM     47  C   UNL     1     111.187 132.567 146.010  0.00  0.00    +0.000 C 
ATOM     48  C   UNL     1     109.572 132.503 145.678  0.00  0.00    +0.000 C 
ATOM     49  C   UNL     1     110.882 131.946 145.560  0.00  0.00    +0.000 C 
BRANCH  48  51
ATOM     50  O   UNL     1     108.373 131.743 145.508  0.00  0.00    +0.000 OA
ATOM     51  C   UNL     1     108.764 132.470 145.513  0.00  0.00    +0.000 C 
ENDBRANCH  48  51
ENDBRANCH  40  49
ENDBRANCH   5  40
BRANCH  10  52
ATOM     52  C   UNL     1     111.304 129.759 144.733  0.00  0.00    +0.000 C 
BRANCH  52  53
ATOM     53  C   UNL     1     111.971 129.492 145.139  0.00  0.00    +0.000 C 
ATOM     54  C   UNL     1     111.912 128.843 145.646  0.00  0.00    +0.000 C 
ATOM     55  C   UNL     1     112.579 128.576 146.052  0.00  0.00    +0.000 C 
ATOM     56  C   UNL     1     111.189 128.462 145.747  0.00  0.00    +0.000 C 
ENDBRANCH  52  53
ENDBRANCH  10  52
TORSDOF 10
ENDMDL
MODEL 9
REMARK VINA RESULT:      -9.6      1.763      3.549
REMARK  Name = 44258790
REMARK  10 active torsions:
REMARK  status: ('A' for Active; 'I' for Inactive)
REMARK    1  A    between atoms: O_1  and  C_20
REMARK    2  A    between atoms: O_1  and  C_25
REMARK    3  A    between atoms: O_4  and  C_23
REMARK    4  A    between atoms: O_4  and  C_36
REMARK    5  A    between atoms: O_10  and  C_35
REMARK    6  A    between atoms: O_10  and  C_38
REMARK    7  A    between atoms: C_34  and  C_37
REMARK    8  A    between atoms: C_40  and  C_47
REMARK    9  A    between atoms: C_43  and  C_46
REMARK   10  A    between atoms: C_46  and  C_48
REMARK                            x       y       z     vdW  Elec       q    Type
REMARK                         _______ _______ _______ _____ _____    ______ ____
ROOT
ATOM      1  O   UNL     1     110.819 128.528 138.339  0.00  0.00    +0.000 OA
ATOM      2  O   UNL     1     111.557 127.959 136.046  0.00  0.00    +0.000 OA
ATOM      3  O   UNL     1     111.654 129.356 135.699  0.00  0.00    +0.000 OA
ATOM      4  C   UNL     1     111.144 127.548 137.351  0.00  0.00    +0.000 A 
ATOM      5  C   UNL     1     111.071 130.577 137.484  0.00  0.00    +0.000 A 
ATOM      6  C   UNL     1     111.311 128.148 136.811  0.00  0.00    +0.000 A 
ATOM      7  C   UNL     1     110.898 127.738 138.116  0.00  0.00    +0.000 A 
ATOM      8  C   UNL     1     111.231 128.938 137.034  0.00  0.00    +0.000 A 
ATOM      9  C   UNL     1     110.985 129.129 137.798  0.00  0.00    +0.000 A 
ATOM     10  C   UNL     1     110.899 129.948 138.043  0.00  0.00    +0.000 A 
ATOM     11  C   UNL     1     111.408 129.554 136.461  0.00  0.00    +0.000 A 
ATOM     12  C   UNL     1     111.327 130.380 136.687  0.00  0.00    +0.000 A 
ENDROOT
BRANCH   7  14
ATOM     13  O   UNL     1     110.231 125.338 140.280  0.00  0.00    +0.000 OA
ATOM     14  C   UNL     1     110.731 127.138 138.656  0.00  0.00    +0.000 A 
ATOM     15  C   UNL     1     111.344 126.780 139.076  0.00  0.00    +0.000 A 
ATOM     16  C   UNL     1     109.952 126.896 138.778  0.00  0.00    +0.000 A 
ATOM     17  C   UNL     1     111.178 126.179 139.618  0.00  0.00    +0.000 A 
ATOM     18  C   UNL     1     109.785 126.297 139.319  0.00  0.00    +0.000 A 
ATOM     19  C   UNL     1     110.398 125.938 139.739  0.00  0.00    +0.000 A 
ENDBRANCH   7  14
BRANCH   4  20
ATOM     20  O   UNL     1     111.223 126.758 137.128  0.00  0.00    +0.000 OA
BRANCH  20  27
ATOM     21  O   UNL     1     109.998 126.702 136.395  0.00  0.00    +0.000 OA
ATOM     22  O   UNL     1     111.014 125.086 134.820  0.00  0.00    +0.000 OA
ATOM     23  O   UNL     1     109.450 125.568 134.612  0.00  0.00    +0.000 OA
ATOM     24  C   UNL     1     111.119 125.922 135.974  0.00  0.00    +0.000 C 
ATOM     25  C   UNL     1     110.675 125.624 135.345  0.00  0.00    +0.000 C 
ATOM     26  C   UNL     1     109.894 125.865 135.241  0.00  0.00    +0.000 C 
ATOM     27  C   UNL     1     110.781 126.460 136.499  0.00  0.00    +0.000 C 
ATOM     28  C   UNL     1     109.555 126.404 135.766  0.00  0.00    +0.000 C 
ATOM     29  C   UNL     1     108.772 126.645 135.662  0.00  0.00    +0.000 C 
BRANCH  24  30
ATOM     30  O   UNL     1     111.901 125.681 136.078  0.00  0.00    +0.000 OA
BRANCH  30  35
ATOM     31  O   UNL     1     111.447 124.435 136.612  0.00  0.00    +0.000 OA
ATOM     32  O   UNL     1     113.464 125.229 136.355  0.00  0.00    +0.000 OA
ATOM     33  O   UNL     1     113.791 123.759 137.027  0.00  0.00    +0.000 OA
ATOM     34  O   UNL     1     112.555 122.739 137.423  0.00  0.00    +0.000 OA
ATOM     35  C   UNL     1     112.064 124.945 136.414  0.00  0.00    +0.000 C 
ATOM     36  C   UNL     1     112.846 124.719 136.553  0.00  0.00    +0.000 C 
ATOM     37  C   UNL     1     113.010 123.984 136.889  0.00  0.00    +0.000 C 
ATOM     38  C   UNL     1     112.392 123.474 137.087  0.00  0.00    +0.000 C 
ATOM     39  C   UNL     1     111.611 123.700 136.948  0.00  0.00    +0.000 C 
ENDBRANCH  30  35
ENDBRANCH  24  30
ENDBRANCH  20  27
ENDBRANCH   4  20
BRANCH   5  40
ATOM     40  O   UNL     1     110.991 131.366 137.710  0.00  0.00    +0.000 OA
BRANCH  40  49
ATOM     41  O   UNL     1     109.845 131.706 136.925  0.00  0.00    +0.000 OA
ATOM     42  O   UNL     1     110.883 133.877 136.348  0.00  0.00    +0.000 OA
ATOM     43  O   UNL     1     109.392 133.492 135.756  0.00  0.00    +0.000 OA
ATOM     44  O   UNL     1     111.682 132.814 137.324  0.00  0.00    +0.000 OA
ATOM     45  C   UNL     1     110.537 133.153 136.540  0.00  0.00    +0.000 C 
ATOM     46  C   UNL     1     109.791 132.961 136.245  0.00  0.00    +0.000 C 
ATOM     47  C   UNL     1     110.937 132.622 137.029  0.00  0.00    +0.000 C 
ATOM     48  C   UNL     1     109.445 132.237 136.437  0.00  0.00    +0.000 C 
ATOM     49  C   UNL     1     110.590 131.898 137.221  0.00  0.00    +0.000 C 
BRANCH  48  51
ATOM     50  O   UNL     1     108.101 131.802 136.657  0.00  0.00    +0.000 OA
ATOM     51  C   UNL     1     108.699 132.045 136.141  0.00  0.00    +0.000 C 
ENDBRANCH  48  51
ENDBRANCH  40  49
ENDBRANCH   5  40
BRANCH  10  52
ATOM     52  C   UNL     1     110.652 130.128 138.809  0.00  0.00    +0.000 C 
BRANCH  52  53
ATOM     53  C   UNL     1     111.211 130.241 139.406  0.00  0.00    +0.000 C 
ATOM     54  C   UNL     1     110.963 130.402 140.177  0.00  0.00    +0.000 C 
ATOM     55  C   UNL     1     111.521 130.514 140.773  0.00  0.00    +0.000 C 
ATOM     56  C   UNL     1     110.159 130.450 140.350  0.00  0.00    +0.000 C 
ENDBRANCH  52  53
ENDBRANCH  10  52
TORSDOF 10
ENDMDL
MODEL 10
REMARK VINA RESULT:      -9.5      4.240      5.994
REMARK  Name = 44258790
REMARK  10 active torsions:
REMARK  status: ('A' for Active; 'I' for Inactive)
REMARK    1  A    between atoms: O_1  and  C_20
REMARK    2  A    between atoms: O_1  and  C_25
REMARK    3  A    between atoms: O_4  and  C_23
REMARK    4  A    between atoms: O_4  and  C_36
REMARK    5  A    between atoms: O_10  and  C_35
REMARK    6  A    between atoms: O_10  and  C_38
REMARK    7  A    between atoms: C_34  and  C_37
REMARK    8  A    between atoms: C_40  and  C_47
REMARK    9  A    between atoms: C_43  and  C_46
REMARK   10  A    between atoms: C_46  and  C_48
REMARK                            x       y       z     vdW  Elec       q    Type
REMARK                         _______ _______ _______ _____ _____    ______ ____
ROOT
ATOM      1  O   UNL     1     108.278 127.033 141.124  0.00  0.00    +0.000 OA
ATOM      2  O   UNL     1     109.821 125.230 140.419  0.00  0.00    +0.000 OA
ATOM      3  O   UNL     1     108.818 124.228 140.683  0.00  0.00    +0.000 OA
ATOM      4  C   UNL     1     109.556 126.617 140.636  0.00  0.00    +0.000 A 
ATOM      5  C   UNL     1     106.968 125.248 141.427  0.00  0.00    +0.000 A 
ATOM      6  C   UNL     1     109.307 125.832 140.654  0.00  0.00    +0.000 A 
ATOM      7  C   UNL     1     109.041 127.219 140.871  0.00  0.00    +0.000 A 
ATOM      8  C   UNL     1     108.544 125.646 140.906  0.00  0.00    +0.000 A 
ATOM      9  C   UNL     1     108.029 126.246 141.142  0.00  0.00    +0.000 A 
ATOM     10  C   UNL     1     107.232 126.066 141.407  0.00  0.00    +0.000 A 
ATOM     11  C   UNL     1     108.297 124.822 140.920  0.00  0.00    +0.000 A 
ATOM     12  C   UNL     1     107.503 124.622 141.182  0.00  0.00    +0.000 A 
ENDROOT
BRANCH   7  14
ATOM     13  O   UNL     1     110.035 130.365 140.802  0.00  0.00    +0.000 OA
ATOM     14  C   UNL     1     109.290 128.004 140.854  0.00  0.00    +0.000 A 
ATOM     15  C   UNL     1     109.730 128.312 141.480  0.00  0.00    +0.000 A 
ATOM     16  C   UNL     1     109.098 128.484 140.211  0.00  0.00    +0.000 A 
ATOM     17  C   UNL     1     109.979 129.099 141.463  0.00  0.00    +0.000 A 
ATOM     18  C   UNL     1     109.346 129.270 140.193  0.00  0.00    +0.000 A 
ATOM     19  C   UNL     1     109.787 129.578 140.819  0.00  0.00    +0.000 A 
ENDBRANCH   7  14
BRANCH   4  20
ATOM     20  O   UNL     1     110.319 126.803 140.384  0.00  0.00    +0.000 OA
BRANCH  20  27
ATOM     21  O   UNL     1     110.040 126.590 138.998  0.00  0.00    +0.000 OA
ATOM     22  O   UNL     1     112.384 125.886 138.634  0.00  0.00    +0.000 OA
ATOM     23  O   UNL     1     111.324 125.908 137.371  0.00  0.00    +0.000 OA
ATOM     24  C   UNL     1     111.352 126.345 139.509  0.00  0.00    +0.000 C 
ATOM     25  C   UNL     1     111.603 126.121 138.756  0.00  0.00    +0.000 C 
ATOM     26  C   UNL     1     111.073 126.132 138.124  0.00  0.00    +0.000 C 
ATOM     27  C   UNL     1     110.570 126.579 139.631  0.00  0.00    +0.000 C 
ATOM     28  C   UNL     1     110.291 126.366 138.246  0.00  0.00    +0.000 C 
ATOM     29  C   UNL     1     109.760 126.377 137.613  0.00  0.00    +0.000 C 
BRANCH  24  30
ATOM     30  O   UNL     1     111.882 126.334 140.141  0.00  0.00    +0.000 OA
BRANCH  30  35
ATOM     31  O   UNL     1     112.466 127.551 139.673  0.00  0.00    +0.000 OA
ATOM     32  O   UNL     1     112.986 126.275 141.365  0.00  0.00    +0.000 OA
ATOM     33  O   UNL     1     114.123 127.463 141.509  0.00  0.00    +0.000 OA
ATOM     34  O   UNL     1     114.155 128.709 140.428  0.00  0.00    +0.000 OA
ATOM     35  C   UNL     1     112.450 126.928 140.213  0.00  0.00    +0.000 C 
ATOM     36  C   UNL     1     113.003 126.898 140.825  0.00  0.00    +0.000 C 
ATOM     37  C   UNL     1     113.571 127.492 140.897  0.00  0.00    +0.000 C 
ATOM     38  C   UNL     1     113.586 128.115 140.356  0.00  0.00    +0.000 C 
ATOM     39  C   UNL     1     113.035 128.145 139.744  0.00  0.00    +0.000 C 
ENDBRANCH  30  35
ENDBRANCH  24  30
ENDBRANCH  20  27
ENDBRANCH   4  20
BRANCH   5  40
ATOM     40  O   UNL     1     106.204 125.065 141.680  0.00  0.00    +0.000 OA
BRANCH  40  49
ATOM     41  O   UNL     1     105.617 124.716 140.424  0.00  0.00    +0.000 OA
ATOM     42  O   UNL     1     104.518 122.766 141.481  0.00  0.00    +0.000 OA
ATOM     43  O   UNL     1     104.297 123.067 139.874  0.00  0.00    +0.000 OA
ATOM     44  O   UNL     1     105.472 123.766 142.384  0.00  0.00    +0.000 OA
ATOM     45  C   UNL     1     104.884 123.416 141.129  0.00  0.00    +0.000 C 
ATOM     46  C   UNL     1     104.774 123.566 140.325  0.00  0.00    +0.000 C 
ATOM     47  C   UNL     1     105.361 123.916 141.580  0.00  0.00    +0.000 C 
ATOM     48  C   UNL     1     105.140 124.216 139.973  0.00  0.00    +0.000 C 
ATOM     49  C   UNL     1     105.727 124.566 141.228  0.00  0.00    +0.000 C 
BRANCH  48  51
ATOM     50  O   UNL     1     104.904 125.140 138.908  0.00  0.00    +0.000 OA
ATOM     51  C   UNL     1     105.030 124.367 139.169  0.00  0.00    +0.000 C 
ENDBRANCH  48  51
ENDBRANCH  40  49
ENDBRANCH   5  40
BRANCH  10  52
ATOM     52  C   UNL     1     106.725 126.672 141.640  0.00  0.00    +0.000 C 
BRANCH  52  53
ATOM     53  C   UNL     1     106.665 126.876 142.437  0.00  0.00    +0.000 C 
ATOM     54  C   UNL     1     106.169 127.494 142.669  0.00  0.00    +0.000 C 
ATOM     55  C   UNL     1     106.109 127.697 143.466  0.00  0.00    +0.000 C 
ATOM     56  C   UNL     1     105.733 127.907 142.104  0.00  0.00    +0.000 C 
ENDBRANCH  52  53
ENDBRANCH  10  52
TORSDOF 10
ENDMDL
