MODEL 1
REMARK VINA RESULT:      -9.8      0.000      0.000
REMARK  Name = 76401292
REMARK  9 active torsions:
REMARK  status: ('A' for Active; 'I' for Inactive)
REMARK    1  A    between atoms: O_3  and  C_22
REMARK    2  A    between atoms: O_3  and  C_27
REMARK    3  A    between atoms: O_6  and  C_25
REMARK    4  A    between atoms: O_6  and  C_29
REMARK    5  A    between atoms: O_14  and  C_41
REMARK    6  A    between atoms: O_15  and  C_42
REMARK    7  A    between atoms: O_16  and  C_43
REMARK    8  A    between atoms: C_17  and  C_27
REMARK    9  A    between atoms: C_36  and  C_38
REMARK                            x       y       z     vdW  Elec       q    Type
REMARK                         _______ _______ _______ _____ _____    ______ ____
ROOT
ATOM      1  O   UNL     1     112.860 127.482 137.439  0.00  0.00    +0.000 OA
ATOM      2  O   UNL     1     113.641 129.977 136.210  0.00  0.00    +0.000 OA
ATOM      3  O   UNL     1     113.623 128.748 135.455  0.00  0.00    +0.000 OA
ATOM      4  C   UNL     1     112.996 129.536 138.309  0.00  0.00    +0.000 A 
ATOM      5  C   UNL     1     112.861 128.690 138.246  0.00  0.00    +0.000 A 
ATOM      6  C   UNL     1     113.261 129.975 137.621  0.00  0.00    +0.000 A 
ATOM      7  C   UNL     1     112.992 128.295 137.494  0.00  0.00    +0.000 A 
ATOM      8  C   UNL     1     113.387 129.563 136.876  0.00  0.00    +0.000 A 
ATOM      9  C   UNL     1     113.246 128.717 136.833  0.00  0.00    +0.000 A 
ATOM     10  C   UNL     1     113.368 128.326 136.116  0.00  0.00    +0.000 A 
ATOM     11  C   UNL     1     112.982 127.092 136.723  0.00  0.00    +0.000 A 
ATOM     12  C   UNL     1     113.237 127.513 136.061  0.00  0.00    +0.000 A 
ENDROOT
BRANCH  11  13
ATOM     13  C   UNL     1     112.851 126.279 136.668  0.00  0.00    +0.000 A 
ATOM     14  C   UNL     1     113.439 125.749 136.897  0.00  0.00    +0.000 A 
ATOM     15  C   UNL     1     112.129 125.997 136.384  0.00  0.00    +0.000 A 
ATOM     16  C   UNL     1     111.997 125.184 136.329  0.00  0.00    +0.000 A 
ATOM     17  C   UNL     1     113.307 124.937 136.842  0.00  0.00    +0.000 A 
ATOM     18  C   UNL     1     112.586 124.654 136.558  0.00  0.00    +0.000 A 
BRANCH  16  19
ATOM     19  O   UNL     1     111.275 124.901 136.045  0.00  0.00    +0.000 OA
ATOM     20  C   UNL     1     110.797 125.386 135.579  0.00  0.00    +0.000 C 
ENDBRANCH  16  19
BRANCH  17  21
ATOM     21  O   UNL     1     113.896 124.406 137.071  0.00  0.00    +0.000 OA
ATOM     22  C   UNL     1     114.662 124.678 137.214  0.00  0.00    +0.000 C 
ENDBRANCH  17  21
BRANCH  18  23
ATOM     23  O   UNL     1     112.454 123.842 136.503  0.00  0.00    +0.000 OA
ATOM     24  C   UNL     1     112.085 123.440 137.122  0.00  0.00    +0.000 C 
ENDBRANCH  18  23
ENDBRANCH  11  13
BRANCH   4  25
ATOM     25  O   UNL     1     112.873 129.924 139.027  0.00  0.00    +0.000 OA
BRANCH  25  34
ATOM     26  O   UNL     1     111.496 130.196 138.760  0.00  0.00    +0.000 OA
ATOM     27  O   UNL     1     109.801 130.449 140.113  0.00  0.00    +0.000 OA
ATOM     28  O   UNL     1     111.020 130.168 141.189  0.00  0.00    +0.000 OA
ATOM     29  O   UNL     1     112.556 129.905 140.646  0.00  0.00    +0.000 OA
ATOM     30  C   UNL     1     110.728 130.327 139.031  0.00  0.00    +0.000 C 
ATOM     31  C   UNL     1     110.569 130.318 139.842  0.00  0.00    +0.000 C 
ATOM     32  C   UNL     1     111.179 130.177 140.379  0.00  0.00    +0.000 C 
ATOM     33  C   UNL     1     111.947 130.046 140.108  0.00  0.00    +0.000 C 
ATOM     34  C   UNL     1     112.105 130.055 139.299  0.00  0.00    +0.000 C 
BRANCH  30  35
ATOM     35  C   UNL     1     110.118 130.468 138.494  0.00  0.00    +0.000 C 
BRANCH  35  36
ATOM     36  O   UNL     1     109.943 129.909 137.913  0.00  0.00    +0.000 OA
BRANCH  36  42
ATOM     37  O   UNL     1     109.095 130.855 137.258  0.00  0.00    +0.000 OA
ATOM     38  O   UNL     1     109.515 128.761 136.808  0.00  0.00    +0.000 OA
ATOM     39  O   UNL     1     108.453 129.132 135.601  0.00  0.00    +0.000 OA
ATOM     40  O   UNL     1     107.819 130.652 135.499  0.00  0.00    +0.000 OA
ATOM     41  C   UNL     1     109.198 129.521 136.757  0.00  0.00    +0.000 C 
ATOM     42  C   UNL     1     109.412 130.096 137.309  0.00  0.00    +0.000 C 
ATOM     43  C   UNL     1     108.667 129.706 136.153  0.00  0.00    +0.000 C 
ATOM     44  C   UNL     1     108.350 130.466 136.103  0.00  0.00    +0.000 C 
ATOM     45  C   UNL     1     108.564 131.040 136.655  0.00  0.00    +0.000 C 
ATOM     46  C   UNL     1     108.247 131.800 136.603  0.00  0.00    +0.000 C 
ENDBRANCH  36  42
ENDBRANCH  35  36
ENDBRANCH  30  35
ENDBRANCH  25  34
ENDBRANCH   4  25
TORSDOF 9
ENDMDL
MODEL 2
REMARK VINA RESULT:      -9.8      0.024      1.149
REMARK  Name = 76401292
REMARK  9 active torsions:
REMARK  status: ('A' for Active; 'I' for Inactive)
REMARK    1  A    between atoms: O_3  and  C_22
REMARK    2  A    between atoms: O_3  and  C_27
REMARK    3  A    between atoms: O_6  and  C_25
REMARK    4  A    between atoms: O_6  and  C_29
REMARK    5  A    between atoms: O_14  and  C_41
REMARK    6  A    between atoms: O_15  and  C_42
REMARK    7  A    between atoms: O_16  and  C_43
REMARK    8  A    between atoms: C_17  and  C_27
REMARK    9  A    between atoms: C_36  and  C_38
REMARK                            x       y       z     vdW  Elec       q    Type
REMARK                         _______ _______ _______ _____ _____    ______ ____
ROOT
ATOM      1  O   UNL     1     112.856 127.480 137.451  0.00  0.00    +0.000 OA
ATOM      2  O   UNL     1     113.667 129.971 136.233  0.00  0.00    +0.000 OA
ATOM      3  O   UNL     1     113.646 128.743 135.475  0.00  0.00    +0.000 OA
ATOM      4  C   UNL     1     112.999 129.531 138.325  0.00  0.00    +0.000 A 
ATOM      5  C   UNL     1     112.858 128.687 138.259  0.00  0.00    +0.000 A 
ATOM      6  C   UNL     1     113.273 129.970 137.640  0.00  0.00    +0.000 A 
ATOM      7  C   UNL     1     112.993 128.292 137.509  0.00  0.00    +0.000 A 
ATOM      8  C   UNL     1     113.403 129.558 136.896  0.00  0.00    +0.000 A 
ATOM      9  C   UNL     1     113.257 128.713 136.850  0.00  0.00    +0.000 A 
ATOM     10  C   UNL     1     113.383 128.322 136.134  0.00  0.00    +0.000 A 
ATOM     11  C   UNL     1     112.982 127.090 136.735  0.00  0.00    +0.000 A 
ATOM     12  C   UNL     1     113.245 127.510 136.077  0.00  0.00    +0.000 A 
ENDROOT
BRANCH  11  13
ATOM     13  C   UNL     1     112.845 126.278 136.678  0.00  0.00    +0.000 A 
ATOM     14  C   UNL     1     112.121 126.000 136.397  0.00  0.00    +0.000 A 
ATOM     15  C   UNL     1     113.432 125.744 136.902  0.00  0.00    +0.000 A 
ATOM     16  C   UNL     1     113.296 124.932 136.845  0.00  0.00    +0.000 A 
ATOM     17  C   UNL     1     111.984 125.190 136.340  0.00  0.00    +0.000 A 
ATOM     18  C   UNL     1     112.571 124.655 136.564  0.00  0.00    +0.000 A 
BRANCH  16  19
ATOM     19  O   UNL     1     113.883 124.398 137.069  0.00  0.00    +0.000 OA
ATOM     20  C   UNL     1     114.654 124.661 137.197  0.00  0.00    +0.000 C 
ENDBRANCH  16  19
BRANCH  17  21
ATOM     21  O   UNL     1     111.259 124.912 136.059  0.00  0.00    +0.000 OA
ATOM     22  C   UNL     1     110.798 125.388 135.567  0.00  0.00    +0.000 C 
ENDBRANCH  17  21
BRANCH  18  23
ATOM     23  O   UNL     1     112.434 123.844 136.507  0.00  0.00    +0.000 OA
ATOM     24  C   UNL     1     112.057 123.444 137.123  0.00  0.00    +0.000 C 
ENDBRANCH  18  23
ENDBRANCH  11  13
BRANCH   4  25
ATOM     25  O   UNL     1     112.872 129.920 139.043  0.00  0.00    +0.000 OA
BRANCH  25  34
ATOM     26  O   UNL     1     111.499 130.195 138.761  0.00  0.00    +0.000 OA
ATOM     27  O   UNL     1     109.794 130.473 140.097  0.00  0.00    +0.000 OA
ATOM     28  O   UNL     1     111.003 130.199 141.186  0.00  0.00    +0.000 OA
ATOM     29  O   UNL     1     112.542 129.922 140.659  0.00  0.00    +0.000 OA
ATOM     30  C   UNL     1     110.729 130.333 139.024  0.00  0.00    +0.000 C 
ATOM     31  C   UNL     1     110.564 130.335 139.833  0.00  0.00    +0.000 C 
ATOM     32  C   UNL     1     111.168 130.198 140.377  0.00  0.00    +0.000 C 
ATOM     33  C   UNL     1     111.938 130.059 140.114  0.00  0.00    +0.000 C 
ATOM     34  C   UNL     1     112.103 130.058 139.306  0.00  0.00    +0.000 C 
BRANCH  30  35
ATOM     35  C   UNL     1     110.125 130.470 138.480  0.00  0.00    +0.000 C 
BRANCH  35  36
ATOM     36  O   UNL     1     109.967 129.917 137.889  0.00  0.00    +0.000 OA
BRANCH  36  42
ATOM     37  O   UNL     1     109.095 130.848 137.246  0.00  0.00    +0.000 OA
ATOM     38  O   UNL     1     109.563 128.768 136.776  0.00  0.00    +0.000 OA
ATOM     39  O   UNL     1     108.489 129.126 135.575  0.00  0.00    +0.000 OA
ATOM     40  O   UNL     1     107.819 130.631 135.488  0.00  0.00    +0.000 OA
ATOM     41  C   UNL     1     109.228 129.522 136.732  0.00  0.00    +0.000 C 
ATOM     42  C   UNL     1     109.430 130.096 137.289  0.00  0.00    +0.000 C 
ATOM     43  C   UNL     1     108.691 129.700 136.132  0.00  0.00    +0.000 C 
ATOM     44  C   UNL     1     108.357 130.453 136.089  0.00  0.00    +0.000 C 
ATOM     45  C   UNL     1     108.559 131.027 136.646  0.00  0.00    +0.000 C 
ATOM     46  C   UNL     1     108.224 131.780 136.602  0.00  0.00    +0.000 C 
ENDBRANCH  36  42
ENDBRANCH  35  36
ENDBRANCH  30  35
ENDBRANCH  25  34
ENDBRANCH   4  25
TORSDOF 9
ENDMDL
MODEL 3
REMARK VINA RESULT:      -9.5      2.116      3.385
REMARK  Name = 76401292
REMARK  9 active torsions:
REMARK  status: ('A' for Active; 'I' for Inactive)
REMARK    1  A    between atoms: O_3  and  C_22
REMARK    2  A    between atoms: O_3  and  C_27
REMARK    3  A    between atoms: O_6  and  C_25
REMARK    4  A    between atoms: O_6  and  C_29
REMARK    5  A    between atoms: O_14  and  C_41
REMARK    6  A    between atoms: O_15  and  C_42
REMARK    7  A    between atoms: O_16  and  C_43
REMARK    8  A    between atoms: C_17  and  C_27
REMARK    9  A    between atoms: C_36  and  C_38
REMARK                            x       y       z     vdW  Elec       q    Type
REMARK                         _______ _______ _______ _____ _____    ______ ____
ROOT
ATOM      1  O   UNL     1     112.267 126.617 138.856  0.00  0.00    +0.000 OA
ATOM      2  O   UNL     1     114.655 126.775 140.474  0.00  0.00    +0.000 OA
ATOM      3  O   UNL     1     114.687 126.193 139.154  0.00  0.00    +0.000 OA
ATOM      4  C   UNL     1     112.563 127.444 140.910  0.00  0.00    +0.000 A 
ATOM      5  C   UNL     1     112.179 127.213 140.178  0.00  0.00    +0.000 A 
ATOM      6  C   UNL     1     113.402 127.297 141.015  0.00  0.00    +0.000 A 
ATOM      7  C   UNL     1     112.641 126.837 139.558  0.00  0.00    +0.000 A 
ATOM      8  C   UNL     1     113.849 126.920 140.383  0.00  0.00    +0.000 A 
ATOM      9  C   UNL     1     113.447 126.696 139.657  0.00  0.00    +0.000 A 
ATOM     10  C   UNL     1     113.880 126.335 139.054  0.00  0.00    +0.000 A 
ATOM     11  C   UNL     1     112.700 126.256 138.254  0.00  0.00    +0.000 A 
ATOM     12  C   UNL     1     113.506 126.115 138.353  0.00  0.00    +0.000 A 
ENDROOT
BRANCH  11  13
ATOM     13  C   UNL     1     112.326 126.036 137.552  0.00  0.00    +0.000 A 
ATOM     14  C   UNL     1     112.159 126.604 136.977  0.00  0.00    +0.000 A 
ATOM     15  C   UNL     1     112.120 125.248 137.424  0.00  0.00    +0.000 A 
ATOM     16  C   UNL     1     111.746 125.027 136.722  0.00  0.00    +0.000 A 
ATOM     17  C   UNL     1     111.785 126.384 136.276  0.00  0.00    +0.000 A 
ATOM     18  C   UNL     1     111.579 125.595 136.149  0.00  0.00    +0.000 A 
BRANCH  16  19
ATOM     19  O   UNL     1     111.539 124.238 136.595  0.00  0.00    +0.000 OA
ATOM     20  C   UNL     1     111.940 123.637 136.993  0.00  0.00    +0.000 C 
ENDBRANCH  16  19
BRANCH  17  21
ATOM     21  O   UNL     1     111.618 126.952 135.702  0.00  0.00    +0.000 OA
ATOM     22  C   UNL     1     111.996 127.685 135.724  0.00  0.00    +0.000 C 
ENDBRANCH  17  21
BRANCH  18  23
ATOM     23  O   UNL     1     111.205 125.375 135.447  0.00  0.00    +0.000 OA
ATOM     24  C   UNL     1     110.385 125.436 135.379  0.00  0.00    +0.000 C 
ENDBRANCH  18  23
ENDBRANCH  11  13
BRANCH   4  25
ATOM     25  O   UNL     1     112.127 127.805 141.512  0.00  0.00    +0.000 OA
BRANCH  25  34
ATOM     26  O   UNL     1     112.174 129.093 140.895  0.00  0.00    +0.000 OA
ATOM     27  O   UNL     1     112.070 131.096 141.759  0.00  0.00    +0.000 OA
ATOM     28  O   UNL     1     111.947 130.164 143.115  0.00  0.00    +0.000 OA
ATOM     29  O   UNL     1     111.976 128.519 142.992  0.00  0.00    +0.000 OA
ATOM     30  C   UNL     1     112.160 129.916 140.957  0.00  0.00    +0.000 C 
ATOM     31  C   UNL     1     112.084 130.273 141.697  0.00  0.00    +0.000 C 
ATOM     32  C   UNL     1     112.023 129.807 142.375  0.00  0.00    +0.000 C 
ATOM     33  C   UNL     1     112.037 128.984 142.313  0.00  0.00    +0.000 C 
ATOM     34  C   UNL     1     112.113 128.628 141.574  0.00  0.00    +0.000 C 
BRANCH  30  35
ATOM     35  C   UNL     1     112.221 130.382 140.279  0.00  0.00    +0.000 C 
BRANCH  35  36
ATOM     36  O   UNL     1     112.918 130.380 139.838  0.00  0.00    +0.000 OA
BRANCH  36  42
ATOM     37  O   UNL     1     112.200 130.844 138.693  0.00  0.00    +0.000 OA
ATOM     38  O   UNL     1     114.278 130.215 138.918  0.00  0.00    +0.000 OA
ATOM     39  O   UNL     1     114.240 130.596 137.313  0.00  0.00    +0.000 OA
ATOM     40  O   UNL     1     112.842 131.143 136.628  0.00  0.00    +0.000 OA
ATOM     41  C   UNL     1     113.579 130.488 138.576  0.00  0.00    +0.000 C 
ATOM     42  C   UNL     1     112.899 130.571 139.035  0.00  0.00    +0.000 C 
ATOM     43  C   UNL     1     113.560 130.679 137.773  0.00  0.00    +0.000 C 
ATOM     44  C   UNL     1     112.861 130.952 137.431  0.00  0.00    +0.000 C 
ATOM     45  C   UNL     1     112.181 131.035 137.891  0.00  0.00    +0.000 C 
ATOM     46  C   UNL     1     111.483 131.308 137.548  0.00  0.00    +0.000 C 
ENDBRANCH  36  42
ENDBRANCH  35  36
ENDBRANCH  30  35
ENDBRANCH  25  34
ENDBRANCH   4  25
TORSDOF 9
ENDMDL
MODEL 4
REMARK VINA RESULT:      -9.4      1.690      5.200
REMARK  Name = 76401292
REMARK  9 active torsions:
REMARK  status: ('A' for Active; 'I' for Inactive)
REMARK    1  A    between atoms: O_3  and  C_22
REMARK    2  A    between atoms: O_3  and  C_27
REMARK    3  A    between atoms: O_6  and  C_25
REMARK    4  A    between atoms: O_6  and  C_29
REMARK    5  A    between atoms: O_14  and  C_41
REMARK    6  A    between atoms: O_15  and  C_42
REMARK    7  A    between atoms: O_16  and  C_43
REMARK    8  A    between atoms: C_17  and  C_27
REMARK    9  A    between atoms: C_36  and  C_38
REMARK                            x       y       z     vdW  Elec       q    Type
REMARK                         _______ _______ _______ _____ _____    ______ ____
ROOT
ATOM      1  O   UNL     1     111.210 130.019 137.391  0.00  0.00    +0.000 OA
ATOM      2  O   UNL     1     113.811 128.945 136.738  0.00  0.00    +0.000 OA
ATOM      3  O   UNL     1     113.011 129.615 135.742  0.00  0.00    +0.000 OA
ATOM      4  C   UNL     1     112.686 128.939 138.675  0.00  0.00    +0.000 A 
ATOM      5  C   UNL     1     111.974 129.353 138.432  0.00  0.00    +0.000 A 
ATOM      6  C   UNL     1     113.312 128.799 138.103  0.00  0.00    +0.000 A 
ATOM      7  C   UNL     1     111.896 129.622 137.619  0.00  0.00    +0.000 A 
ATOM      8  C   UNL     1     113.216 129.075 137.294  0.00  0.00    +0.000 A 
ATOM      9  C   UNL     1     112.497 129.487 137.070  0.00  0.00    +0.000 A 
ATOM     10  C   UNL     1     112.410 129.750 136.292  0.00  0.00    +0.000 A 
ATOM     11  C   UNL     1     111.124 130.281 136.614  0.00  0.00    +0.000 A 
ATOM     12  C   UNL     1     111.724 130.147 136.064  0.00  0.00    +0.000 A 
ENDROOT
BRANCH  11  13
ATOM     13  C   UNL     1     110.438 130.679 136.386  0.00  0.00    +0.000 A 
ATOM     14  C   UNL     1     109.785 130.254 136.116  0.00  0.00    +0.000 A 
ATOM     15  C   UNL     1     110.405 131.502 136.428  0.00  0.00    +0.000 A 
ATOM     16  C   UNL     1     109.719 131.900 136.200  0.00  0.00    +0.000 A 
ATOM     17  C   UNL     1     109.099 130.651 135.889  0.00  0.00    +0.000 A 
ATOM     18  C   UNL     1     109.066 131.474 135.931  0.00  0.00    +0.000 A 
BRANCH  16  19
ATOM     19  O   UNL     1     109.685 132.723 136.242  0.00  0.00    +0.000 OA
ATOM     20  C   UNL     1     110.256 133.138 136.670  0.00  0.00    +0.000 C 
ENDBRANCH  16  19
BRANCH  17  21
ATOM     21  O   UNL     1     108.446 130.225 135.619  0.00  0.00    +0.000 OA
ATOM     22  C   UNL     1     108.365 129.427 135.812  0.00  0.00    +0.000 C 
ENDBRANCH  17  21
BRANCH  18  23
ATOM     23  O   UNL     1     108.380 131.871 135.703  0.00  0.00    +0.000 OA
ATOM     24  C   UNL     1     108.272 132.092 134.915  0.00  0.00    +0.000 C 
ENDBRANCH  18  23
ENDBRANCH  11  13
BRANCH   4  25
ATOM     25  O   UNL     1     112.770 128.678 139.453  0.00  0.00    +0.000 OA
BRANCH  25  34
ATOM     26  O   UNL     1     112.277 127.365 139.176  0.00  0.00    +0.000 OA
ATOM     27  O   UNL     1     111.226 125.936 140.448  0.00  0.00    +0.000 OA
ATOM     28  O   UNL     1     111.439 127.190 141.499  0.00  0.00    +0.000 OA
ATOM     29  O   UNL     1     112.211 128.561 141.002  0.00  0.00    +0.000 OA
ATOM     30  C   UNL     1     111.891 126.680 139.424  0.00  0.00    +0.000 C 
ATOM     31  C   UNL     1     111.612 126.621 140.199  0.00  0.00    +0.000 C 
ATOM     32  C   UNL     1     111.719 127.248 140.724  0.00  0.00    +0.000 C 
ATOM     33  C   UNL     1     112.105 127.934 140.475  0.00  0.00    +0.000 C 
ATOM     34  C   UNL     1     112.384 127.992 139.702  0.00  0.00    +0.000 C 
BRANCH  30  35
ATOM     35  C   UNL     1     111.784 126.053 138.899  0.00  0.00    +0.000 C 
BRANCH  35  36
ATOM     36  O   UNL     1     111.382 126.173 138.189  0.00  0.00    +0.000 OA
BRANCH  36  42
ATOM     37  O   UNL     1     111.914 124.949 137.679  0.00  0.00    +0.000 OA
ATOM     38  O   UNL     1     110.498 126.364 136.809  0.00  0.00    +0.000 OA
ATOM     39  O   UNL     1     110.589 125.235 135.609  0.00  0.00    +0.000 OA
ATOM     40  O   UNL     1     111.563 123.915 135.789  0.00  0.00    +0.000 OA
ATOM     41  C   UNL     1     110.986 125.703 136.899  0.00  0.00    +0.000 C 
ATOM     42  C   UNL     1     111.428 125.608 137.589  0.00  0.00    +0.000 C 
ATOM     43  C   UNL     1     111.031 125.140 136.299  0.00  0.00    +0.000 C 
ATOM     44  C   UNL     1     111.518 124.480 136.389  0.00  0.00    +0.000 C 
ATOM     45  C   UNL     1     111.960 124.385 137.080  0.00  0.00    +0.000 C 
ATOM     46  C   UNL     1     112.447 123.725 137.169  0.00  0.00    +0.000 C 
ENDBRANCH  36  42
ENDBRANCH  35  36
ENDBRANCH  30  35
ENDBRANCH  25  34
ENDBRANCH   4  25
TORSDOF 9
ENDMDL
MODEL 5
REMARK VINA RESULT:      -9.4      1.268      4.720
REMARK  Name = 76401292
REMARK  9 active torsions:
REMARK  status: ('A' for Active; 'I' for Inactive)
REMARK    1  A    between atoms: O_3  and  C_22
REMARK    2  A    between atoms: O_3  and  C_27
REMARK    3  A    between atoms: O_6  and  C_25
REMARK    4  A    between atoms: O_6  and  C_29
REMARK    5  A    between atoms: O_14  and  C_41
REMARK    6  A    between atoms: O_15  and  C_42
REMARK    7  A    between atoms: O_16  and  C_43
REMARK    8  A    between atoms: C_17  and  C_27
REMARK    9  A    between atoms: C_36  and  C_38
REMARK                            x       y       z     vdW  Elec       q    Type
REMARK                         _______ _______ _______ _____ _____    ______ ____
ROOT
ATOM      1  O   UNL     1     113.076 128.702 138.286  0.00  0.00    +0.000 OA
ATOM      2  O   UNL     1     113.822 129.116 135.526  0.00  0.00    +0.000 OA
ATOM      3  O   UNL     1     113.802 130.211 136.465  0.00  0.00    +0.000 OA
ATOM      4  C   UNL     1     113.209 127.246 136.596  0.00  0.00    +0.000 A 
ATOM      5  C   UNL     1     113.079 127.564 137.384  0.00  0.00    +0.000 A 
ATOM      6  C   UNL     1     113.461 127.770 135.964  0.00  0.00    +0.000 A 
ATOM      7  C   UNL     1     113.202 128.402 137.528  0.00  0.00    +0.000 A 
ATOM      8  C   UNL     1     113.580 128.605 136.127  0.00  0.00    +0.000 A 
ATOM      9  C   UNL     1     113.445 128.905 136.921  0.00  0.00    +0.000 A 
ATOM     10  C   UNL     1     113.560 129.708 137.072  0.00  0.00    +0.000 A 
ATOM     11  C   UNL     1     113.191 129.504 138.437  0.00  0.00    +0.000 A 
ATOM     12  C   UNL     1     113.433 130.008 137.830  0.00  0.00    +0.000 A 
ENDROOT
BRANCH  11  13
ATOM     13  C   UNL     1     113.065 129.804 139.195  0.00  0.00    +0.000 A 
ATOM     14  C   UNL     1     113.704 129.937 139.699  0.00  0.00    +0.000 A 
ATOM     15  C   UNL     1     112.298 129.972 139.450  0.00  0.00    +0.000 A 
ATOM     16  C   UNL     1     112.170 130.271 140.208  0.00  0.00    +0.000 A 
ATOM     17  C   UNL     1     113.577 130.236 140.456  0.00  0.00    +0.000 A 
ATOM     18  C   UNL     1     112.810 130.404 140.711  0.00  0.00    +0.000 A 
BRANCH  16  19
ATOM     19  O   UNL     1     111.404 130.439 140.462  0.00  0.00    +0.000 OA
ATOM     20  C   UNL     1     110.801 130.554 139.910  0.00  0.00    +0.000 C 
ENDBRANCH  16  19
BRANCH  17  21
ATOM     21  O   UNL     1     114.217 130.369 140.960  0.00  0.00    +0.000 OA
ATOM     22  C   UNL     1     114.960 130.541 140.646  0.00  0.00    +0.000 C 
ENDBRANCH  17  21
BRANCH  18  23
ATOM     23  O   UNL     1     112.684 130.704 141.469  0.00  0.00    +0.000 OA
ATOM     24  C   UNL     1     112.531 130.190 142.097  0.00  0.00    +0.000 C 
ENDBRANCH  18  23
ENDBRANCH  11  13
BRANCH   4  25
ATOM     25  O   UNL     1     113.093 126.442 136.448  0.00  0.00    +0.000 OA
BRANCH  25  34
ATOM     26  O   UNL     1     111.778 126.713 135.959  0.00  0.00    +0.000 OA
ATOM     27  O   UNL     1     110.150 125.363 135.415  0.00  0.00    +0.000 OA
ATOM     28  O   UNL     1     111.310 124.283 135.877  0.00  0.00    +0.000 OA
ATOM     29  O   UNL     1     112.781 124.823 136.393  0.00  0.00    +0.000 OA
ATOM     30  C   UNL     1     111.042 126.443 135.701  0.00  0.00    +0.000 C 
ATOM     31  C   UNL     1     110.886 125.633 135.674  0.00  0.00    +0.000 C 
ATOM     32  C   UNL     1     111.466 125.094 135.904  0.00  0.00    +0.000 C 
ATOM     33  C   UNL     1     112.201 125.363 136.163  0.00  0.00    +0.000 C 
ATOM     34  C   UNL     1     112.357 126.172 136.190  0.00  0.00    +0.000 C 
BRANCH  30  35
ATOM     35  C   UNL     1     110.462 126.982 135.470  0.00  0.00    +0.000 C 
BRANCH  35  36
ATOM     36  O   UNL     1     110.107 127.472 136.031  0.00  0.00    +0.000 OA
BRANCH  36  42
ATOM     37  O   UNL     1     110.192 128.710 135.322  0.00  0.00    +0.000 OA
ATOM     38  O   UNL     1     108.577 127.854 136.515  0.00  0.00    +0.000 OA
ATOM     39  O   UNL     1     107.896 129.283 136.049  0.00  0.00    +0.000 OA
ATOM     40  O   UNL     1     108.746 130.330 135.098  0.00  0.00    +0.000 OA
ATOM     41  C   UNL     1     109.002 128.378 136.039  0.00  0.00    +0.000 C 
ATOM     42  C   UNL     1     109.767 128.187 135.797  0.00  0.00    +0.000 C 
ATOM     43  C   UNL     1     108.661 129.092 135.807  0.00  0.00    +0.000 C 
ATOM     44  C   UNL     1     109.086 129.615 135.331  0.00  0.00    +0.000 C 
ATOM     45  C   UNL     1     109.852 129.424 135.089  0.00  0.00    +0.000 C 
ATOM     46  C   UNL     1     110.276 129.948 134.614  0.00  0.00    +0.000 C 
ENDBRANCH  36  42
ENDBRANCH  35  36
ENDBRANCH  30  35
ENDBRANCH  25  34
ENDBRANCH   4  25
TORSDOF 9
ENDMDL
MODEL 6
REMARK VINA RESULT:      -9.3      2.892      5.352
REMARK  Name = 76401292
REMARK  9 active torsions:
REMARK  status: ('A' for Active; 'I' for Inactive)
REMARK    1  A    between atoms: O_3  and  C_22
REMARK    2  A    between atoms: O_3  and  C_27
REMARK    3  A    between atoms: O_6  and  C_25
REMARK    4  A    between atoms: O_6  and  C_29
REMARK    5  A    between atoms: O_14  and  C_41
REMARK    6  A    between atoms: O_15  and  C_42
REMARK    7  A    between atoms: O_16  and  C_43
REMARK    8  A    between atoms: C_17  and  C_27
REMARK    9  A    between atoms: C_36  and  C_38
REMARK                            x       y       z     vdW  Elec       q    Type
REMARK                         _______ _______ _______ _____ _____    ______ ____
ROOT
ATOM      1  O   UNL     1     113.090 129.206 138.541  0.00  0.00    +0.000 OA
ATOM      2  O   UNL     1     114.752 130.555 140.480  0.00  0.00    +0.000 OA
ATOM      3  O   UNL     1     114.601 131.072 139.142  0.00  0.00    +0.000 OA
ATOM      4  C   UNL     1     113.537 128.684 140.667  0.00  0.00    +0.000 A 
ATOM      5  C   UNL     1     113.208 128.643 139.874  0.00  0.00    +0.000 A 
ATOM      6  C   UNL     1     114.061 129.331 140.876  0.00  0.00    +0.000 A 
ATOM      7  C   UNL     1     113.408 129.251 139.301  0.00  0.00    +0.000 A 
ATOM      8  C   UNL     1     114.250 129.930 140.289  0.00  0.00    +0.000 A 
ATOM      9  C   UNL     1     113.912 129.873 139.501  0.00  0.00    +0.000 A 
ATOM     10  C   UNL     1     114.097 130.450 138.941  0.00  0.00    +0.000 A 
ATOM     11  C   UNL     1     113.275 129.784 137.982  0.00  0.00    +0.000 A 
ATOM     12  C   UNL     1     113.778 130.406 138.181  0.00  0.00    +0.000 A 
ENDROOT
BRANCH  11  13
ATOM     13  C   UNL     1     112.957 129.739 137.222  0.00  0.00    +0.000 A 
ATOM     14  C   UNL     1     112.216 130.066 137.064  0.00  0.00    +0.000 A 
ATOM     15  C   UNL     1     113.379 129.367 136.619  0.00  0.00    +0.000 A 
ATOM     16  C   UNL     1     113.061 129.322 135.858  0.00  0.00    +0.000 A 
ATOM     17  C   UNL     1     111.898 130.022 136.305  0.00  0.00    +0.000 A 
ATOM     18  C   UNL     1     112.320 129.650 135.702  0.00  0.00    +0.000 A 
BRANCH  16  19
ATOM     19  O   UNL     1     113.484 128.951 135.255  0.00  0.00    +0.000 OA
ATOM     20  C   UNL     1     114.307 128.907 135.294  0.00  0.00    +0.000 C 
ENDBRANCH  16  19
BRANCH  17  21
ATOM     21  O   UNL     1     111.157 130.349 136.148  0.00  0.00    +0.000 OA
ATOM     22  C   UNL     1     110.847 130.926 136.649  0.00  0.00    +0.000 C 
ENDBRANCH  17  21
BRANCH  18  23
ATOM     23  O   UNL     1     112.002 129.605 134.942  0.00  0.00    +0.000 OA
ATOM     24  C   UNL     1     111.526 128.965 134.731  0.00  0.00    +0.000 C 
ENDBRANCH  18  23
ENDBRANCH  11  13
BRANCH   4  25
ATOM     25  O   UNL     1     113.350 128.105 141.225  0.00  0.00    +0.000 OA
BRANCH  25  34
ATOM     26  O   UNL     1     112.510 128.830 142.126  0.00  0.00    +0.000 OA
ATOM     27  O   UNL     1     110.558 128.335 142.970  0.00  0.00    +0.000 OA
ATOM     28  O   UNL     1     110.843 127.001 142.042  0.00  0.00    +0.000 OA
ATOM     29  O   UNL     1     112.239 126.886 141.169  0.00  0.00    +0.000 OA
ATOM     30  C   UNL     1     111.812 128.887 142.562  0.00  0.00    +0.000 C 
ATOM     31  C   UNL     1     111.256 128.277 142.534  0.00  0.00    +0.000 C 
ATOM     32  C   UNL     1     111.399 127.611 142.070  0.00  0.00    +0.000 C 
ATOM     33  C   UNL     1     112.097 127.553 141.633  0.00  0.00    +0.000 C 
ATOM     34  C   UNL     1     112.652 128.162 141.661  0.00  0.00    +0.000 C 
BRANCH  30  35
ATOM     35  C   UNL     1     111.669 129.554 143.026  0.00  0.00    +0.000 C 
BRANCH  35  36
ATOM     36  O   UNL     1     111.868 130.303 142.745  0.00  0.00    +0.000 OA
BRANCH  36  42
ATOM     37  O   UNL     1     111.824 130.840 144.069  0.00  0.00    +0.000 OA
ATOM     38  O   UNL     1     111.853 131.832 142.125  0.00  0.00    +0.000 OA
ATOM     39  O   UNL     1     111.801 133.133 143.138  0.00  0.00    +0.000 OA
ATOM     40  O   UNL     1     111.765 132.906 144.772  0.00  0.00    +0.000 OA
ATOM     41  C   UNL     1     111.835 131.718 142.942  0.00  0.00    +0.000 C 
ATOM     42  C   UNL     1     111.842 130.954 143.253  0.00  0.00    +0.000 C 
ATOM     43  C   UNL     1     111.809 132.369 143.448  0.00  0.00    +0.000 C 
ATOM     44  C   UNL     1     111.791 132.255 144.265  0.00  0.00    +0.000 C 
ATOM     45  C   UNL     1     111.798 131.490 144.575  0.00  0.00    +0.000 C 
ATOM     46  C   UNL     1     111.780 131.377 145.393  0.00  0.00    +0.000 C 
ENDBRANCH  36  42
ENDBRANCH  35  36
ENDBRANCH  30  35
ENDBRANCH  25  34
ENDBRANCH   4  25
TORSDOF 9
ENDMDL
MODEL 7
REMARK VINA RESULT:      -9.3      1.464      5.303
REMARK  Name = 76401292
REMARK  9 active torsions:
REMARK  status: ('A' for Active; 'I' for Inactive)
REMARK    1  A    between atoms: O_3  and  C_22
REMARK    2  A    between atoms: O_3  and  C_27
REMARK    3  A    between atoms: O_6  and  C_25
REMARK    4  A    between atoms: O_6  and  C_29
REMARK    5  A    between atoms: O_14  and  C_41
REMARK    6  A    between atoms: O_15  and  C_42
REMARK    7  A    between atoms: O_16  and  C_43
REMARK    8  A    between atoms: C_17  and  C_27
REMARK    9  A    between atoms: C_36  and  C_38
REMARK                            x       y       z     vdW  Elec       q    Type
REMARK                         _______ _______ _______ _____ _____    ______ ____
ROOT
ATOM      1  O   UNL     1     111.157 130.001 137.717  0.00  0.00    +0.000 OA
ATOM      2  O   UNL     1     113.870 129.627 136.798  0.00  0.00    +0.000 OA
ATOM      3  O   UNL     1     112.820 130.008 135.885  0.00  0.00    +0.000 OA
ATOM      4  C   UNL     1     112.994 129.422 138.849  0.00  0.00    +0.000 A 
ATOM      5  C   UNL     1     112.175 129.618 138.679  0.00  0.00    +0.000 A 
ATOM      6  C   UNL     1     113.571 129.424 138.214  0.00  0.00    +0.000 A 
ATOM      7  C   UNL     1     111.944 129.814 137.875  0.00  0.00    +0.000 A 
ATOM      8  C   UNL     1     113.322 129.622 137.415  0.00  0.00    +0.000 A 
ATOM      9  C   UNL     1     112.499 129.816 137.264  0.00  0.00    +0.000 A 
ATOM     10  C   UNL     1     112.265 130.006 136.496  0.00  0.00    +0.000 A 
ATOM     11  C   UNL     1     110.924 130.191 136.949  0.00  0.00    +0.000 A 
ATOM     12  C   UNL     1     111.477 130.193 136.338  0.00  0.00    +0.000 A 
ENDROOT
BRANCH  11  13
ATOM     13  C   UNL     1     110.136 130.379 136.791  0.00  0.00    +0.000 A 
ATOM     14  C   UNL     1     109.656 129.844 136.387  0.00  0.00    +0.000 A 
ATOM     15  C   UNL     1     109.827 131.103 137.039  0.00  0.00    +0.000 A 
ATOM     16  C   UNL     1     109.039 131.291 136.882  0.00  0.00    +0.000 A 
ATOM     17  C   UNL     1     108.869 130.031 136.229  0.00  0.00    +0.000 A 
ATOM     18  C   UNL     1     108.560 130.755 136.477  0.00  0.00    +0.000 A 
BRANCH  16  19
ATOM     19  O   UNL     1     108.730 132.015 137.129  0.00  0.00    +0.000 OA
ATOM     20  C   UNL     1     109.088 132.426 137.749  0.00  0.00    +0.000 C 
ENDBRANCH  16  19
BRANCH  17  21
ATOM     21  O   UNL     1     108.390 129.495 135.824  0.00  0.00    +0.000 OA
ATOM     22  C   UNL     1     108.604 128.700 135.784  0.00  0.00    +0.000 C 
ENDBRANCH  17  21
BRANCH  18  23
ATOM     23  O   UNL     1     107.773 130.943 136.319  0.00  0.00    +0.000 OA
ATOM     24  C   UNL     1     107.583 131.420 135.673  0.00  0.00    +0.000 C 
ENDBRANCH  18  23
ENDBRANCH  11  13
BRANCH   4  25
ATOM     25  O   UNL     1     113.224 129.232 139.619  0.00  0.00    +0.000 OA
BRANCH  25  34
ATOM     26  O   UNL     1     113.115 127.814 139.480  0.00  0.00    +0.000 OA
ATOM     27  O   UNL     1     112.456 126.287 140.894  0.00  0.00    +0.000 OA
ATOM     28  O   UNL     1     112.291 127.651 141.809  0.00  0.00    +0.000 OA
ATOM     29  O   UNL     1     112.676 129.123 141.171  0.00  0.00    +0.000 OA
ATOM     30  C   UNL     1     112.923 127.078 139.799  0.00  0.00    +0.000 C 
ATOM     31  C   UNL     1     112.648 127.023 140.576  0.00  0.00    +0.000 C 
ATOM     32  C   UNL     1     112.566 127.705 141.032  0.00  0.00    +0.000 C 
ATOM     33  C   UNL     1     112.758 128.442 140.713  0.00  0.00    +0.000 C 
ATOM     34  C   UNL     1     113.032 128.496 139.938  0.00  0.00    +0.000 C 
BRANCH  30  35
ATOM     35  C   UNL     1     113.005 126.396 139.342  0.00  0.00    +0.000 C 
BRANCH  35  36
ATOM     36  O   UNL     1     112.577 126.314 138.642  0.00  0.00    +0.000 OA
BRANCH  36  42
ATOM     37  O   UNL     1     113.587 125.551 137.979  0.00  0.00    +0.000 OA
ATOM     38  O   UNL     1     111.415 125.533 137.768  0.00  0.00    +0.000 OA
ATOM     39  O   UNL     1     111.845 124.380 136.669  0.00  0.00    +0.000 OA
ATOM     40  O   UNL     1     113.437 124.008 136.443  0.00  0.00    +0.000 OA
ATOM     41  C   UNL     1     112.211 125.347 137.656  0.00  0.00    +0.000 C 
ATOM     42  C   UNL     1     112.792 125.737 138.092  0.00  0.00    +0.000 C 
ATOM     43  C   UNL     1     112.426 124.770 137.106  0.00  0.00    +0.000 C 
ATOM     44  C   UNL     1     113.222 124.585 136.994  0.00  0.00    +0.000 C 
ATOM     45  C   UNL     1     113.802 124.975 137.430  0.00  0.00    +0.000 C 
ATOM     46  C   UNL     1     114.598 124.789 137.317  0.00  0.00    +0.000 C 
ENDBRANCH  36  42
ENDBRANCH  35  36
ENDBRANCH  30  35
ENDBRANCH  25  34
ENDBRANCH   4  25
TORSDOF 9
ENDMDL
MODEL 8
REMARK VINA RESULT:      -9.2      1.327      3.530
REMARK  Name = 76401292
REMARK  9 active torsions:
REMARK  status: ('A' for Active; 'I' for Inactive)
REMARK    1  A    between atoms: O_3  and  C_22
REMARK    2  A    between atoms: O_3  and  C_27
REMARK    3  A    between atoms: O_6  and  C_25
REMARK    4  A    between atoms: O_6  and  C_29
REMARK    5  A    between atoms: O_14  and  C_41
REMARK    6  A    between atoms: O_15  and  C_42
REMARK    7  A    between atoms: O_16  and  C_43
REMARK    8  A    between atoms: C_17  and  C_27
REMARK    9  A    between atoms: C_36  and  C_38
REMARK                            x       y       z     vdW  Elec       q    Type
REMARK                         _______ _______ _______ _____ _____    ______ ____
ROOT
ATOM      1  O   UNL     1     111.397 127.696 136.864  0.00  0.00    +0.000 OA
ATOM      2  O   UNL     1     111.142 129.730 134.829  0.00  0.00    +0.000 OA
ATOM      3  O   UNL     1     112.129 128.684 134.716  0.00  0.00    +0.000 OA
ATOM      4  C   UNL     1     109.997 129.431 136.729  0.00  0.00    +0.000 A 
ATOM      5  C   UNL     1     110.387 128.726 137.026  0.00  0.00    +0.000 A 
ATOM      6  C   UNL     1     110.250 129.775 135.984  0.00  0.00    +0.000 A 
ATOM      7  C   UNL     1     111.026 128.373 136.574  0.00  0.00    +0.000 A 
ATOM      8  C   UNL     1     110.892 129.408 135.545  0.00  0.00    +0.000 A 
ATOM      9  C   UNL     1     111.270 128.703 135.858  0.00  0.00    +0.000 A 
ATOM     10  C   UNL     1     111.886 128.354 135.432  0.00  0.00    +0.000 A 
ATOM     11  C   UNL     1     112.012 127.348 136.438  0.00  0.00    +0.000 A 
ATOM     12  C   UNL     1     112.257 127.677 135.722  0.00  0.00    +0.000 A 
ENDROOT
BRANCH  11  13
ATOM     13  C   UNL     1     112.384 126.671 136.727  0.00  0.00    +0.000 A 
ATOM     14  C   UNL     1     112.918 126.728 137.353  0.00  0.00    +0.000 A 
ATOM     15  C   UNL     1     112.220 125.935 136.392  0.00  0.00    +0.000 A 
ATOM     16  C   UNL     1     112.591 125.257 136.681  0.00  0.00    +0.000 A 
ATOM     17  C   UNL     1     113.289 126.051 137.642  0.00  0.00    +0.000 A 
ATOM     18  C   UNL     1     113.126 125.315 137.307  0.00  0.00    +0.000 A 
BRANCH  16  19
ATOM     19  O   UNL     1     112.427 124.521 136.346  0.00  0.00    +0.000 OA
ATOM     20  C   UNL     1     111.658 124.337 136.110  0.00  0.00    +0.000 C 
ENDBRANCH  16  19
BRANCH  17  21
ATOM     21  O   UNL     1     113.824 126.109 138.268  0.00  0.00    +0.000 OA
ATOM     22  C   UNL     1     113.652 126.592 138.914  0.00  0.00    +0.000 C 
ENDBRANCH  17  21
BRANCH  18  23
ATOM     23  O   UNL     1     113.497 124.638 137.597  0.00  0.00    +0.000 OA
ATOM     24  C   UNL     1     114.234 124.412 137.302  0.00  0.00    +0.000 C 
ENDBRANCH  18  23
ENDBRANCH  11  13
BRANCH   4  25
ATOM     25  O   UNL     1     109.381 129.777 137.158  0.00  0.00    +0.000 OA
BRANCH  25  34
ATOM     26  O   UNL     1     110.237 130.433 138.095  0.00  0.00    +0.000 OA
ATOM     27  O   UNL     1     109.997 132.316 139.173  0.00  0.00    +0.000 OA
ATOM     28  O   UNL     1     108.595 132.274 138.305  0.00  0.00    +0.000 OA
ATOM     29  O   UNL     1     108.287 131.004 137.297  0.00  0.00    +0.000 OA
ATOM     30  C   UNL     1     110.391 131.068 138.599  0.00  0.00    +0.000 C 
ATOM     31  C   UNL     1     109.843 131.682 138.669  0.00  0.00    +0.000 C 
ATOM     32  C   UNL     1     109.142 131.660 138.235  0.00  0.00    +0.000 C 
ATOM     33  C   UNL     1     108.988 131.025 137.731  0.00  0.00    +0.000 C 
ATOM     34  C   UNL     1     109.535 130.412 137.662  0.00  0.00    +0.000 C 
BRANCH  30  35
ATOM     35  C   UNL     1     111.092 131.090 139.034  0.00  0.00    +0.000 C 
BRANCH  35  36
ATOM     36  O   UNL     1     111.328 130.431 139.471  0.00  0.00    +0.000 OA
BRANCH  36  42
ATOM     37  O   UNL     1     112.706 130.459 139.093  0.00  0.00    +0.000 OA
ATOM     38  O   UNL     1     111.755 129.956 140.992  0.00  0.00    +0.000 OA
ATOM     39  O   UNL     1     113.347 129.747 141.375  0.00  0.00    +0.000 OA
ATOM     40  O   UNL     1     114.511 130.013 140.236  0.00  0.00    +0.000 OA
ATOM     41  C   UNL     1     112.338 130.089 140.422  0.00  0.00    +0.000 C 
ATOM     42  C   UNL     1     112.124 130.327 139.661  0.00  0.00    +0.000 C 
ATOM     43  C   UNL     1     113.133 129.985 140.614  0.00  0.00    +0.000 C 
ATOM     44  C   UNL     1     113.715 130.118 140.044  0.00  0.00    +0.000 C 
ATOM     45  C   UNL     1     113.501 130.355 139.283  0.00  0.00    +0.000 C 
ATOM     46  C   UNL     1     114.084 130.488 138.714  0.00  0.00    +0.000 C 
ENDBRANCH  36  42
ENDBRANCH  35  36
ENDBRANCH  30  35
ENDBRANCH  25  34
ENDBRANCH   4  25
TORSDOF 9
ENDMDL
MODEL 9
REMARK VINA RESULT:      -9.1      1.559      4.120
REMARK  Name = 76401292
REMARK  9 active torsions:
REMARK  status: ('A' for Active; 'I' for Inactive)
REMARK    1  A    between atoms: O_3  and  C_22
REMARK    2  A    between atoms: O_3  and  C_27
REMARK    3  A    between atoms: O_6  and  C_25
REMARK    4  A    between atoms: O_6  and  C_29
REMARK    5  A    between atoms: O_14  and  C_41
REMARK    6  A    between atoms: O_15  and  C_42
REMARK    7  A    between atoms: O_16  and  C_43
REMARK    8  A    between atoms: C_17  and  C_27
REMARK    9  A    between atoms: C_36  and  C_38
REMARK                            x       y       z     vdW  Elec       q    Type
REMARK                         _______ _______ _______ _____ _____    ______ ____
ROOT
ATOM      1  O   UNL     1     111.070 127.201 136.390  0.00  0.00    +0.000 OA
ATOM      2  O   UNL     1     108.208 127.581 136.488  0.00  0.00    +0.000 OA
ATOM      3  O   UNL     1     108.830 126.444 137.121  0.00  0.00    +0.000 OA
ATOM      4  C   UNL     1     109.803 128.827 135.529  0.00  0.00    +0.000 A 
ATOM      5  C   UNL     1     110.495 128.363 135.736  0.00  0.00    +0.000 A 
ATOM      6  C   UNL     1     109.025 128.565 135.782  0.00  0.00    +0.000 A 
ATOM      7  C   UNL     1     110.401 127.642 136.194  0.00  0.00    +0.000 A 
ATOM      8  C   UNL     1     108.950 127.841 136.240  0.00  0.00    +0.000 A 
ATOM      9  C   UNL     1     109.654 127.390 136.437  0.00  0.00    +0.000 A 
ATOM     10  C   UNL     1     109.577 126.696 136.877  0.00  0.00    +0.000 A 
ATOM     11  C   UNL     1     110.992 126.507 136.829  0.00  0.00    +0.000 A 
ATOM     12  C   UNL     1     110.246 126.254 137.073  0.00  0.00    +0.000 A 
ENDROOT
BRANCH  11  13
ATOM     13  C   UNL     1     111.661 126.065 137.025  0.00  0.00    +0.000 A 
ATOM     14  C   UNL     1     111.823 125.362 136.625  0.00  0.00    +0.000 A 
ATOM     15  C   UNL     1     112.168 126.327 137.621  0.00  0.00    +0.000 A 
ATOM     16  C   UNL     1     112.837 125.886 137.817  0.00  0.00    +0.000 A 
ATOM     17  C   UNL     1     112.491 124.921 136.821  0.00  0.00    +0.000 A 
ATOM     18  C   UNL     1     112.998 125.182 137.417  0.00  0.00    +0.000 A 
BRANCH  16  19
ATOM     19  O   UNL     1     113.344 126.147 138.413  0.00  0.00    +0.000 OA
ATOM     20  C   UNL     1     113.049 126.601 139.036  0.00  0.00    +0.000 C 
ENDBRANCH  16  19
BRANCH  17  21
ATOM     21  O   UNL     1     112.654 124.217 136.421  0.00  0.00    +0.000 OA
ATOM     22  C   UNL     1     112.034 123.728 136.180  0.00  0.00    +0.000 C 
ENDBRANCH  17  21
BRANCH  18  23
ATOM     23  O   UNL     1     113.667 124.741 137.613  0.00  0.00    +0.000 OA
ATOM     24  C   UNL     1     114.387 124.892 137.238  0.00  0.00    +0.000 C 
ENDBRANCH  18  23
ENDBRANCH  11  13
BRANCH   4  25
ATOM     25  O   UNL     1     109.884 129.521 135.089  0.00  0.00    +0.000 OA
BRANCH  25  34
ATOM     26  O   UNL     1     110.483 130.337 136.097  0.00  0.00    +0.000 OA
ATOM     27  O   UNL     1     110.149 132.429 136.627  0.00  0.00    +0.000 OA
ATOM     28  O   UNL     1     109.082 132.249 135.381  0.00  0.00    +0.000 OA
ATOM     29  O   UNL     1     108.949 130.795 134.612  0.00  0.00    +0.000 OA
ATOM     30  C   UNL     1     110.550 131.064 136.481  0.00  0.00    +0.000 C 
ATOM     31  C   UNL     1     110.082 131.702 136.243  0.00  0.00    +0.000 C 
ATOM     32  C   UNL     1     109.549 131.611 135.620  0.00  0.00    +0.000 C 
ATOM     33  C   UNL     1     109.483 130.884 135.235  0.00  0.00    +0.000 C 
ATOM     34  C   UNL     1     109.950 130.248 135.474  0.00  0.00    +0.000 C 
BRANCH  30  35
ATOM     35  C   UNL     1     111.083 131.155 137.104  0.00  0.00    +0.000 C 
BRANCH  35  36
ATOM     36  O   UNL     1     111.850 130.859 137.038  0.00  0.00    +0.000 OA
BRANCH  36  42
ATOM     37  O   UNL     1     111.912 130.449 138.405  0.00  0.00    +0.000 OA
ATOM     38  O   UNL     1     113.489 131.044 137.019  0.00  0.00    +0.000 OA
ATOM     39  O   UNL     1     114.371 130.728 138.377  0.00  0.00    +0.000 OA
ATOM     40  O   UNL     1     113.614 130.225 139.754  0.00  0.00    +0.000 OA
ATOM     41  C   UNL     1     113.110 130.793 137.708  0.00  0.00    +0.000 C 
ATOM     42  C   UNL     1     112.291 130.700 137.717  0.00  0.00    +0.000 C 
ATOM     43  C   UNL     1     113.552 130.635 138.386  0.00  0.00    +0.000 C 
ATOM     44  C   UNL     1     113.173 130.383 139.074  0.00  0.00    +0.000 C 
ATOM     45  C   UNL     1     112.353 130.291 139.084  0.00  0.00    +0.000 C 
ATOM     46  C   UNL     1     111.975 130.039 139.773  0.00  0.00    +0.000 C 
ENDBRANCH  36  42
ENDBRANCH  35  36
ENDBRANCH  30  35
ENDBRANCH  25  34
ENDBRANCH   4  25
TORSDOF 9
ENDMDL
