MODEL 1
REMARK VINA RESULT:      -8.5      0.000      0.000
REMARK  Name = 13963764
REMARK  8 active torsions:
REMARK  status: ('A' for Active; 'I' for Inactive)
REMARK    1  A    between atoms: O_2  and  C_18
REMARK    2  A    between atoms: O_2  and  C_20
REMARK    3  A    between atoms: O_8  and  C_24
REMARK    4  A    between atoms: O_9  and  C_25
REMARK    5  A    between atoms: O_11  and  C_30
REMARK    6  A    between atoms: O_12  and  C_32
REMARK    7  A    between atoms: C_17  and  C_19
REMARK    8  A    between atoms: C_27  and  C_29
REMARK                            x       y       z     vdW  Elec       q    Type
REMARK                         _______ _______ _______ _____ _____    ______ ____
ROOT
ATOM      1  O   UNL     1     112.912 127.432 137.758  0.00  0.00    +0.000 OA
ATOM      2  O   UNL     1     113.051 127.531 140.284  0.00  0.00    +0.000 OA
ATOM      3  C   UNL     1     112.749 128.921 139.396  0.00  0.00    +0.000 A 
ATOM      4  C   UNL     1     112.852 128.202 139.002  0.00  0.00    +0.000 A 
ATOM      5  C   UNL     1     112.600 129.608 138.966  0.00  0.00    +0.000 A 
ATOM      6  C   UNL     1     112.807 128.173 138.179  0.00  0.00    +0.000 A 
ATOM      7  C   UNL     1     112.554 129.579 138.143  0.00  0.00    +0.000 A 
ATOM      8  C   UNL     1     112.658 128.862 137.750  0.00  0.00    +0.000 A 
ATOM      9  C   UNL     1     113.007 127.493 139.461  0.00  0.00    +0.000 A 
ATOM     10  C   UNL     1     113.068 126.711 138.199  0.00  0.00    +0.000 A 
ATOM     11  C   UNL     1     113.116 126.742 139.057  0.00  0.00    +0.000 A 
ENDROOT
BRANCH  10  13
ATOM     12  O   UNL     1     113.481 123.847 136.615  0.00  0.00    +0.000 OA
ATOM     13  C   UNL     1     113.171 125.995 137.803  0.00  0.00    +0.000 A 
ATOM     14  C   UNL     1     112.522 125.508 137.656  0.00  0.00    +0.000 A 
ATOM     15  C   UNL     1     113.923 125.766 137.554  0.00  0.00    +0.000 A 
ATOM     16  C   UNL     1     112.625 124.792 137.259  0.00  0.00    +0.000 A 
ATOM     17  C   UNL     1     114.027 125.050 137.159  0.00  0.00    +0.000 A 
ATOM     18  C   UNL     1     113.378 124.562 137.011  0.00  0.00    +0.000 A 
BRANCH  14  19
ATOM     19  O   UNL     1     111.769 125.737 137.905  0.00  0.00    +0.000 OA
ATOM     20  C   UNL     1     111.119 125.623 137.410  0.00  0.00    +0.000 C 
ENDBRANCH  14  19
BRANCH  16  21
ATOM     21  O   UNL     1     111.976 124.305 137.112  0.00  0.00    +0.000 OA
ATOM     22  C   UNL     1     112.021 123.497 137.273  0.00  0.00    +0.000 C 
ENDBRANCH  16  21
ENDBRANCH  10  13
BRANCH   7  23
ATOM     23  O   UNL     1     112.405 130.268 137.714  0.00  0.00    +0.000 OA
ATOM     24  C   UNL     1     111.795 130.773 137.943  0.00  0.00    +0.000 C 
ENDBRANCH   7  23
BRANCH   8  25
ATOM     25  O   UNL     1     112.612 128.833 136.927  0.00  0.00    +0.000 OA
ATOM     26  C   UNL     1     113.232 129.125 136.468  0.00  0.00    +0.000 C 
ENDBRANCH   8  25
BRANCH   3  27
ATOM     27  O   UNL     1     112.795 128.950 140.220  0.00  0.00    +0.000 OA
BRANCH  27  36
ATOM     28  O   UNL     1     113.977 129.734 140.390  0.00  0.00    +0.000 OA
ATOM     29  O   UNL     1     112.820 131.108 142.093  0.00  0.00    +0.000 OA
ATOM     30  O   UNL     1     114.387 131.434 141.696  0.00  0.00    +0.000 OA
ATOM     31  O   UNL     1     112.023 129.866 141.355  0.00  0.00    +0.000 OA
ATOM     32  C   UNL     1     113.206 130.650 141.526  0.00  0.00    +0.000 C 
ATOM     33  C   UNL     1     113.990 130.813 141.327  0.00  0.00    +0.000 C 
ATOM     34  C   UNL     1     112.807 130.028 141.156  0.00  0.00    +0.000 C 
ATOM     35  C   UNL     1     114.375 130.355 140.759  0.00  0.00    +0.000 C 
ATOM     36  C   UNL     1     113.193 129.570 140.588  0.00  0.00    +0.000 C 
BRANCH  35  38
ATOM     37  O   UNL     1     115.709 129.905 140.514  0.00  0.00    +0.000 OA
ATOM     38  C   UNL     1     115.159 130.518 140.561  0.00  0.00    +0.000 C 
ENDBRANCH  35  38
ENDBRANCH  27  36
ENDBRANCH   3  27
TORSDOF 8
ENDMDL
MODEL 2
REMARK VINA RESULT:      -8.5      0.958      5.329
REMARK  Name = 13963764
REMARK  8 active torsions:
REMARK  status: ('A' for Active; 'I' for Inactive)
REMARK    1  A    between atoms: O_2  and  C_18
REMARK    2  A    between atoms: O_2  and  C_20
REMARK    3  A    between atoms: O_8  and  C_24
REMARK    4  A    between atoms: O_9  and  C_25
REMARK    5  A    between atoms: O_11  and  C_30
REMARK    6  A    between atoms: O_12  and  C_32
REMARK    7  A    between atoms: C_17  and  C_19
REMARK    8  A    between atoms: C_27  and  C_29
REMARK                            x       y       z     vdW  Elec       q    Type
REMARK                         _______ _______ _______ _____ _____    ______ ____
ROOT
ATOM      1  O   UNL     1     113.075 129.021 138.762  0.00  0.00    +0.000 OA
ATOM      2  O   UNL     1     112.586 126.685 139.608  0.00  0.00    +0.000 OA
ATOM      3  C   UNL     1     112.400 127.055 137.984  0.00  0.00    +0.000 A 
ATOM      4  C   UNL     1     112.653 127.642 138.507  0.00  0.00    +0.000 A 
ATOM      5  C   UNL     1     112.307 127.229 137.183  0.00  0.00    +0.000 A 
ATOM      6  C   UNL     1     112.812 128.402 138.228  0.00  0.00    +0.000 A 
ATOM      7  C   UNL     1     112.466 127.989 136.905  0.00  0.00    +0.000 A 
ATOM      8  C   UNL     1     112.718 128.575 137.427  0.00  0.00    +0.000 A 
ATOM      9  C   UNL     1     112.747 127.448 139.338  0.00  0.00    +0.000 A 
ATOM     10  C   UNL     1     113.175 128.846 139.598  0.00  0.00    +0.000 A 
ATOM     11  C   UNL     1     113.009 128.055 139.888  0.00  0.00    +0.000 A 
ENDROOT
BRANCH  10  13
ATOM     12  O   UNL     1     114.186 131.198 141.679  0.00  0.00    +0.000 OA
ATOM     13  C   UNL     1     113.427 129.434 140.119  0.00  0.00    +0.000 A 
ATOM     14  C   UNL     1     112.875 129.875 140.543  0.00  0.00    +0.000 A 
ATOM     15  C   UNL     1     114.233 129.582 140.214  0.00  0.00    +0.000 A 
ATOM     16  C   UNL     1     113.127 130.463 141.064  0.00  0.00    +0.000 A 
ATOM     17  C   UNL     1     114.486 130.170 140.734  0.00  0.00    +0.000 A 
ATOM     18  C   UNL     1     113.933 130.611 141.159  0.00  0.00    +0.000 A 
BRANCH  14  19
ATOM     19  O   UNL     1     112.068 129.727 140.448  0.00  0.00    +0.000 OA
ATOM     20  C   UNL     1     111.543 130.355 140.347  0.00  0.00    +0.000 C 
ENDBRANCH  14  19
BRANCH  16  21
ATOM     21  O   UNL     1     112.574 130.903 141.489  0.00  0.00    +0.000 OA
ATOM     22  C   UNL     1     112.606 130.921 142.313  0.00  0.00    +0.000 C 
ENDBRANCH  16  21
ENDBRANCH  10  13
BRANCH   7  23
ATOM     23  O   UNL     1     112.372 128.162 136.103  0.00  0.00    +0.000 OA
ATOM     24  C   UNL     1     111.701 127.904 135.701  0.00  0.00    +0.000 C 
ENDBRANCH   7  23
BRANCH   8  25
ATOM     25  O   UNL     1     112.877 129.335 137.148  0.00  0.00    +0.000 OA
ATOM     26  C   UNL     1     113.549 129.475 136.691  0.00  0.00    +0.000 C 
ENDBRANCH   8  25
BRANCH   3  27
ATOM     27  O   UNL     1     112.242 126.294 138.262  0.00  0.00    +0.000 OA
BRANCH  27  36
ATOM     28  O   UNL     1     113.336 125.572 137.694  0.00  0.00    +0.000 OA
ATOM     29  O   UNL     1     111.779 123.797 136.952  0.00  0.00    +0.000 OA
ATOM     30  O   UNL     1     113.391 123.667 136.632  0.00  0.00    +0.000 OA
ATOM     31  O   UNL     1     111.204 125.111 137.768  0.00  0.00    +0.000 OA
ATOM     32  C   UNL     1     112.298 124.389 137.200  0.00  0.00    +0.000 C 
ATOM     33  C   UNL     1     113.104 124.324 137.040  0.00  0.00    +0.000 C 
ATOM     34  C   UNL     1     112.010 125.046 137.608  0.00  0.00    +0.000 C 
ATOM     35  C   UNL     1     113.623 124.916 137.287  0.00  0.00    +0.000 C 
ATOM     36  C   UNL     1     112.529 125.638 137.855  0.00  0.00    +0.000 C 
BRANCH  35  38
ATOM     37  O   UNL     1     114.983 125.047 137.706  0.00  0.00    +0.000 OA
ATOM     38  C   UNL     1     114.429 124.850 137.127  0.00  0.00    +0.000 C 
ENDBRANCH  35  38
ENDBRANCH  27  36
ENDBRANCH   3  27
TORSDOF 8
ENDMDL
MODEL 3
REMARK VINA RESULT:      -8.2      1.794      2.617
REMARK  Name = 13963764
REMARK  8 active torsions:
REMARK  status: ('A' for Active; 'I' for Inactive)
REMARK    1  A    between atoms: O_2  and  C_18
REMARK    2  A    between atoms: O_2  and  C_20
REMARK    3  A    between atoms: O_8  and  C_24
REMARK    4  A    between atoms: O_9  and  C_25
REMARK    5  A    between atoms: O_11  and  C_30
REMARK    6  A    between atoms: O_12  and  C_32
REMARK    7  A    between atoms: C_17  and  C_19
REMARK    8  A    between atoms: C_27  and  C_29
REMARK                            x       y       z     vdW  Elec       q    Type
REMARK                         _______ _______ _______ _____ _____    ______ ____
ROOT
ATOM      1  O   UNL     1     113.091 127.612 137.139  0.00  0.00    +0.000 OA
ATOM      2  O   UNL     1     111.821 128.095 139.276  0.00  0.00    +0.000 OA
ATOM      3  C   UNL     1     112.257 129.345 138.248  0.00  0.00    +0.000 A 
ATOM      4  C   UNL     1     112.460 128.569 138.051  0.00  0.00    +0.000 A 
ATOM      5  C   UNL     1     112.469 129.966 137.747  0.00  0.00    +0.000 A 
ATOM      6  C   UNL     1     112.874 128.415 137.354  0.00  0.00    +0.000 A 
ATOM      7  C   UNL     1     112.882 129.811 137.050  0.00  0.00    +0.000 A 
ATOM      8  C   UNL     1     113.085 129.036 136.854  0.00  0.00    +0.000 A 
ATOM      9  C   UNL     1     112.235 127.932 138.581  0.00  0.00    +0.000 A 
ATOM     10  C   UNL     1     112.874 126.961 137.656  0.00  0.00    +0.000 A 
ATOM     11  C   UNL     1     112.443 127.122 138.382  0.00  0.00    +0.000 A 
ENDROOT
BRANCH  10  13
ATOM     12  O   UNL     1     113.690 123.864 136.862  0.00  0.00    +0.000 OA
ATOM     13  C   UNL     1     113.078 126.187 137.458  0.00  0.00    +0.000 A 
ATOM     14  C   UNL     1     112.529 125.698 137.083  0.00  0.00    +0.000 A 
ATOM     15  C   UNL     1     113.831 125.900 137.634  0.00  0.00    +0.000 A 
ATOM     16  C   UNL     1     112.733 124.924 136.885  0.00  0.00    +0.000 A 
ATOM     17  C   UNL     1     114.035 125.127 137.435  0.00  0.00    +0.000 A 
ATOM     18  C   UNL     1     113.486 124.638 137.061  0.00  0.00    +0.000 A 
BRANCH  14  19
ATOM     19  O   UNL     1     111.774 125.984 136.907  0.00  0.00    +0.000 OA
ATOM     20  C   UNL     1     111.435 125.826 136.173  0.00  0.00    +0.000 C 
ENDBRANCH  14  19
BRANCH  16  21
ATOM     21  O   UNL     1     112.183 124.435 136.510  0.00  0.00    +0.000 OA
ATOM     22  C   UNL     1     111.978 123.711 136.847  0.00  0.00    +0.000 C 
ENDBRANCH  16  21
ENDBRANCH  10  13
BRANCH   7  23
ATOM     23  O   UNL     1     113.093 130.432 136.549  0.00  0.00    +0.000 OA
ATOM     24  C   UNL     1     113.419 131.122 136.862  0.00  0.00    +0.000 C 
ENDBRANCH   7  23
BRANCH   8  25
ATOM     25  O   UNL     1     113.498 128.882 136.157  0.00  0.00    +0.000 OA
ATOM     26  C   UNL     1     113.125 128.970 135.427  0.00  0.00    +0.000 C 
ENDBRANCH   8  25
BRANCH   3  27
ATOM     27  O   UNL     1     111.844 129.500 138.944  0.00  0.00    +0.000 OA
BRANCH  27  36
ATOM     28  O   UNL     1     110.575 129.869 138.400  0.00  0.00    +0.000 OA
ATOM     29  O   UNL     1     110.460 131.782 139.966  0.00  0.00    +0.000 OA
ATOM     30  O   UNL     1     109.231 131.514 138.900  0.00  0.00    +0.000 OA
ATOM     31  O   UNL     1     111.767 130.775 139.988  0.00  0.00    +0.000 OA
ATOM     32  C   UNL     1     110.499 131.145 139.444  0.00  0.00    +0.000 C 
ATOM     33  C   UNL     1     109.884 131.010 138.911  0.00  0.00    +0.000 C 
ATOM     34  C   UNL     1     111.153 130.641 139.455  0.00  0.00    +0.000 C 
ATOM     35  C   UNL     1     109.922 130.372 138.389  0.00  0.00    +0.000 C 
ATOM     36  C   UNL     1     111.191 130.003 138.933  0.00  0.00    +0.000 C 
BRANCH  35  38
ATOM     37  O   UNL     1     108.992 129.480 137.772  0.00  0.00    +0.000 OA
ATOM     38  C   UNL     1     109.307 130.238 137.856  0.00  0.00    +0.000 C 
ENDBRANCH  35  38
ENDBRANCH  27  36
ENDBRANCH   3  27
TORSDOF 8
ENDMDL
MODEL 4
REMARK VINA RESULT:      -8.2      1.444      2.987
REMARK  Name = 13963764
REMARK  8 active torsions:
REMARK  status: ('A' for Active; 'I' for Inactive)
REMARK    1  A    between atoms: O_2  and  C_18
REMARK    2  A    between atoms: O_2  and  C_20
REMARK    3  A    between atoms: O_8  and  C_24
REMARK    4  A    between atoms: O_9  and  C_25
REMARK    5  A    between atoms: O_11  and  C_30
REMARK    6  A    between atoms: O_12  and  C_32
REMARK    7  A    between atoms: C_17  and  C_19
REMARK    8  A    between atoms: C_27  and  C_29
REMARK                            x       y       z     vdW  Elec       q    Type
REMARK                         _______ _______ _______ _____ _____    ______ ____
ROOT
ATOM      1  O   UNL     1     113.063 127.296 138.377  0.00  0.00    +0.000 OA
ATOM      2  O   UNL     1     111.752 128.952 136.981  0.00  0.00    +0.000 OA
ATOM      3  C   UNL     1     112.262 129.361 138.524  0.00  0.00    +0.000 A 
ATOM      4  C   UNL     1     112.442 128.614 138.223  0.00  0.00    +0.000 A 
ATOM      5  C   UNL     1     112.510 129.570 139.283  0.00  0.00    +0.000 A 
ATOM      6  C   UNL     1     112.870 128.077 138.680  0.00  0.00    +0.000 A 
ATOM      7  C   UNL     1     112.937 129.032 139.740  0.00  0.00    +0.000 A 
ATOM      8  C   UNL     1     113.117 128.286 139.438  0.00  0.00    +0.000 A 
ATOM      9  C   UNL     1     112.179 128.409 137.431  0.00  0.00    +0.000 A 
ATOM     10  C   UNL     1     112.808 127.072 137.587  0.00  0.00    +0.000 A 
ATOM     11  C   UNL     1     112.363 127.632 137.111  0.00  0.00    +0.000 A 
ENDROOT
BRANCH  10  13
ATOM     12  O   UNL     1     113.534 124.084 136.391  0.00  0.00    +0.000 OA
ATOM     13  C   UNL     1     112.989 126.325 137.288  0.00  0.00    +0.000 A 
ATOM     14  C   UNL     1     112.435 125.716 137.334  0.00  0.00    +0.000 A 
ATOM     15  C   UNL     1     113.726 126.187 136.943  0.00  0.00    +0.000 A 
ATOM     16  C   UNL     1     112.616 124.969 137.035  0.00  0.00    +0.000 A 
ATOM     17  C   UNL     1     113.907 125.440 136.644  0.00  0.00    +0.000 A 
ATOM     18  C   UNL     1     113.353 124.831 136.689  0.00  0.00    +0.000 A 
BRANCH  14  19
ATOM     19  O   UNL     1     111.698 125.855 137.679  0.00  0.00    +0.000 OA
ATOM     20  C   UNL     1     111.368 125.294 138.185  0.00  0.00    +0.000 C 
ENDBRANCH  14  19
BRANCH  16  21
ATOM     21  O   UNL     1     112.061 124.361 137.081  0.00  0.00    +0.000 OA
ATOM     22  C   UNL     1     111.882 123.914 136.411  0.00  0.00    +0.000 C 
ENDBRANCH  16  21
ENDBRANCH  10  13
BRANCH   7  23
ATOM     23  O   UNL     1     113.185 129.242 140.499  0.00  0.00    +0.000 OA
ATOM     24  C   UNL     1     113.525 129.981 140.633  0.00  0.00    +0.000 C 
ENDBRANCH   7  23
BRANCH   8  25
ATOM     25  O   UNL     1     113.544 127.749 139.896  0.00  0.00    +0.000 OA
ATOM     26  C   UNL     1     113.193 127.393 140.551  0.00  0.00    +0.000 C 
ENDBRANCH   8  25
BRANCH   3  27
ATOM     27  O   UNL     1     111.835 129.899 138.067  0.00  0.00    +0.000 OA
BRANCH  27  36
ATOM     28  O   UNL     1     110.587 129.882 138.763  0.00  0.00    +0.000 OA
ATOM     29  O   UNL     1     110.489 132.352 138.647  0.00  0.00    +0.000 OA
ATOM     30  O   UNL     1     109.274 131.512 139.381  0.00  0.00    +0.000 OA
ATOM     31  O   UNL     1     111.769 131.546 137.990  0.00  0.00    +0.000 OA
ATOM     32  C   UNL     1     110.521 131.529 138.686  0.00  0.00    +0.000 C 
ATOM     33  C   UNL     1     109.914 131.109 139.053  0.00  0.00    +0.000 C 
ATOM     34  C   UNL     1     111.162 131.125 138.357  0.00  0.00    +0.000 C 
ATOM     35  C   UNL     1     109.947 130.285 139.092  0.00  0.00    +0.000 C 
ATOM     36  C   UNL     1     111.195 130.302 138.396  0.00  0.00    +0.000 C 
BRANCH  35  38
ATOM     37  O   UNL     1     109.032 129.187 139.103  0.00  0.00    +0.000 OA
ATOM     38  C   UNL     1     109.340 129.866 139.459  0.00  0.00    +0.000 C 
ENDBRANCH  35  38
ENDBRANCH  27  36
ENDBRANCH   3  27
TORSDOF 8
ENDMDL
MODEL 5
REMARK VINA RESULT:      -8.1      2.467      3.254
REMARK  Name = 13963764
REMARK  8 active torsions:
REMARK  status: ('A' for Active; 'I' for Inactive)
REMARK    1  A    between atoms: O_2  and  C_18
REMARK    2  A    between atoms: O_2  and  C_20
REMARK    3  A    between atoms: O_8  and  C_24
REMARK    4  A    between atoms: O_9  and  C_25
REMARK    5  A    between atoms: O_11  and  C_30
REMARK    6  A    between atoms: O_12  and  C_32
REMARK    7  A    between atoms: C_17  and  C_19
REMARK    8  A    between atoms: C_27  and  C_29
REMARK                            x       y       z     vdW  Elec       q    Type
REMARK                         _______ _______ _______ _____ _____    ______ ____
ROOT
ATOM      1  O   UNL     1     111.678 127.533 136.112  0.00  0.00    +0.000 OA
ATOM      2  O   UNL     1     110.428 128.043 138.254  0.00  0.00    +0.000 OA
ATOM      3  C   UNL     1     110.285 129.057 136.927  0.00  0.00    +0.000 A 
ATOM      4  C   UNL     1     110.767 128.389 136.876  0.00  0.00    +0.000 A 
ATOM      5  C   UNL     1     110.210 129.561 136.278  0.00  0.00    +0.000 A 
ATOM      6  C   UNL     1     111.173 128.225 136.177  0.00  0.00    +0.000 A 
ATOM      7  C   UNL     1     110.615 129.397 135.579  0.00  0.00    +0.000 A 
ATOM      8  C   UNL     1     111.097 128.730 135.529  0.00  0.00    +0.000 A 
ATOM      9  C   UNL     1     110.838 127.872 137.559  0.00  0.00    +0.000 A 
ATOM     10  C   UNL     1     111.761 127.004 136.784  0.00  0.00    +0.000 A 
ATOM     11  C   UNL     1     111.338 127.174 137.512  0.00  0.00    +0.000 A 
ENDROOT
BRANCH  10  13
ATOM     12  O   UNL     1     113.691 124.337 136.571  0.00  0.00    +0.000 OA
ATOM     13  C   UNL     1     112.243 126.337 136.731  0.00  0.00    +0.000 A 
ATOM     14  C   UNL     1     111.918 125.607 136.526  0.00  0.00    +0.000 A 
ATOM     15  C   UNL     1     113.052 126.399 136.882  0.00  0.00    +0.000 A 
ATOM     16  C   UNL     1     112.401 124.940 136.473  0.00  0.00    +0.000 A 
ATOM     17  C   UNL     1     113.534 125.733 136.829  0.00  0.00    +0.000 A 
ATOM     18  C   UNL     1     113.209 125.003 136.624  0.00  0.00    +0.000 A 
BRANCH  14  19
ATOM     19  O   UNL     1     111.109 125.545 136.375  0.00  0.00    +0.000 OA
ATOM     20  C   UNL     1     110.845 125.149 135.701  0.00  0.00    +0.000 C 
ENDBRANCH  14  19
BRANCH  16  21
ATOM     21  O   UNL     1     112.074 124.210 136.268  0.00  0.00    +0.000 OA
ATOM     22  C   UNL     1     112.140 123.570 136.784  0.00  0.00    +0.000 C 
ENDBRANCH  16  21
ENDBRANCH  10  13
BRANCH   7  23
ATOM     23  O   UNL     1     110.539 129.902 134.930  0.00  0.00    +0.000 OA
ATOM     24  C   UNL     1     109.799 130.198 134.723  0.00  0.00    +0.000 C 
ENDBRANCH   7  23
BRANCH   8  25
ATOM     25  O   UNL     1     111.503 128.566 134.829  0.00  0.00    +0.000 OA
ATOM     26  C   UNL     1     112.153 129.025 134.612  0.00  0.00    +0.000 C 
ENDBRANCH   8  25
BRANCH   3  27
ATOM     27  O   UNL     1     109.879 129.221 137.626  0.00  0.00    +0.000 OA
BRANCH  27  36
ATOM     28  O   UNL     1     110.637 130.345 138.079  0.00  0.00    +0.000 OA
ATOM     29  O   UNL     1     108.542 131.516 138.682  0.00  0.00    +0.000 OA
ATOM     30  O   UNL     1     109.998 132.248 138.932  0.00  0.00    +0.000 OA
ATOM     31  O   UNL     1     108.482 130.001 138.029  0.00  0.00    +0.000 OA
ATOM     32  C   UNL     1     109.240 131.125 138.481  0.00  0.00    +0.000 C 
ATOM     33  C   UNL     1     109.969 131.492 138.606  0.00  0.00    +0.000 C 
ATOM     34  C   UNL     1     109.210 130.368 138.154  0.00  0.00    +0.000 C 
ATOM     35  C   UNL     1     110.667 131.101 138.405  0.00  0.00    +0.000 C 
ATOM     36  C   UNL     1     109.909 129.977 137.953  0.00  0.00    +0.000 C 
BRANCH  35  38
ATOM     37  O   UNL     1     112.019 131.044 138.865  0.00  0.00    +0.000 OA
ATOM     38  C   UNL     1     111.395 131.468 138.530  0.00  0.00    +0.000 C 
ENDBRANCH  35  38
ENDBRANCH  27  36
ENDBRANCH   3  27
TORSDOF 8
ENDMDL
MODEL 6
REMARK VINA RESULT:      -8.1      3.107      6.236
REMARK  Name = 13963764
REMARK  8 active torsions:
REMARK  status: ('A' for Active; 'I' for Inactive)
REMARK    1  A    between atoms: O_2  and  C_18
REMARK    2  A    between atoms: O_2  and  C_20
REMARK    3  A    between atoms: O_8  and  C_24
REMARK    4  A    between atoms: O_9  and  C_25
REMARK    5  A    between atoms: O_11  and  C_30
REMARK    6  A    between atoms: O_12  and  C_32
REMARK    7  A    between atoms: C_17  and  C_19
REMARK    8  A    between atoms: C_27  and  C_29
REMARK                            x       y       z     vdW  Elec       q    Type
REMARK                         _______ _______ _______ _____ _____    ______ ____
ROOT
ATOM      1  O   UNL     1     110.681 129.526 135.813  0.00  0.00    +0.000 OA
ATOM      2  O   UNL     1     109.642 127.242 135.473  0.00  0.00    +0.000 OA
ATOM      3  C   UNL     1     111.245 127.383 135.945  0.00  0.00    +0.000 A 
ATOM      4  C   UNL     1     110.796 128.066 135.824  0.00  0.00    +0.000 A 
ATOM      5  C   UNL     1     112.034 127.445 136.177  0.00  0.00    +0.000 A 
ATOM      6  C   UNL     1     111.137 128.809 135.935  0.00  0.00    +0.000 A 
ATOM      7  C   UNL     1     112.375 128.188 136.289  0.00  0.00    +0.000 A 
ATOM      8  C   UNL     1     111.927 128.869 136.168  0.00  0.00    +0.000 A 
ATOM      9  C   UNL     1     109.976 127.989 135.582  0.00  0.00    +0.000 A 
ATOM     10  C   UNL     1     109.858 129.469 135.570  0.00  0.00    +0.000 A 
ATOM     11  C   UNL     1     109.503 128.696 135.454  0.00  0.00    +0.000 A 
ENDROOT
BRANCH  10  13
ATOM     12  O   UNL     1     108.075 132.203 135.088  0.00  0.00    +0.000 OA
ATOM     13  C   UNL     1     109.412 130.153 135.450  0.00  0.00    +0.000 A 
ATOM     14  C   UNL     1     108.908 130.426 136.042  0.00  0.00    +0.000 A 
ATOM     15  C   UNL     1     109.471 130.563 134.737  0.00  0.00    +0.000 A 
ATOM     16  C   UNL     1     108.462 131.110 135.922  0.00  0.00    +0.000 A 
ATOM     17  C   UNL     1     109.025 131.246 134.616  0.00  0.00    +0.000 A 
ATOM     18  C   UNL     1     108.520 131.520 135.209  0.00  0.00    +0.000 A 
BRANCH  14  19
ATOM     19  O   UNL     1     108.849 130.015 136.756  0.00  0.00    +0.000 OA
ATOM     20  C   UNL     1     108.874 130.426 137.471  0.00  0.00    +0.000 C 
ENDBRANCH  14  19
BRANCH  16  21
ATOM     21  O   UNL     1     107.957 131.383 136.515  0.00  0.00    +0.000 OA
ATOM     22  C   UNL     1     107.216 131.687 136.318  0.00  0.00    +0.000 C 
ENDBRANCH  16  21
ENDBRANCH  10  13
BRANCH   7  23
ATOM     23  O   UNL     1     113.164 128.248 136.521  0.00  0.00    +0.000 OA
ATOM     24  C   UNL     1     113.745 127.814 136.128  0.00  0.00    +0.000 C 
ENDBRANCH   7  23
BRANCH   8  25
ATOM     25  O   UNL     1     112.268 129.612 136.279  0.00  0.00    +0.000 OA
ATOM     26  C   UNL     1     112.529 129.838 137.028  0.00  0.00    +0.000 C 
ENDBRANCH   8  25
BRANCH   3  27
ATOM     27  O   UNL     1     110.904 126.640 135.834  0.00  0.00    +0.000 OA
BRANCH  27  36
ATOM     28  O   UNL     1     110.852 126.183 137.186  0.00  0.00    +0.000 OA
ATOM     29  O   UNL     1     111.722 123.978 136.474  0.00  0.00    +0.000 OA
ATOM     30  O   UNL     1     111.380 124.256 138.064  0.00  0.00    +0.000 OA
ATOM     31  O   UNL     1     111.484 125.170 135.359  0.00  0.00    +0.000 OA
ATOM     32  C   UNL     1     111.432 124.713 136.712  0.00  0.00    +0.000 C 
ATOM     33  C   UNL     1     111.261 124.852 137.506  0.00  0.00    +0.000 C 
ATOM     34  C   UNL     1     111.313 125.310 136.154  0.00  0.00    +0.000 C 
ATOM     35  C   UNL     1     110.970 125.587 137.744  0.00  0.00    +0.000 C 
ATOM     36  C   UNL     1     111.023 126.045 136.391  0.00  0.00    +0.000 C 
BRANCH  35  38
ATOM     37  O   UNL     1     110.091 126.092 138.751  0.00  0.00    +0.000 OA
ATOM     38  C   UNL     1     110.799 125.725 138.538  0.00  0.00    +0.000 C 
ENDBRANCH  35  38
ENDBRANCH  27  36
ENDBRANCH   3  27
TORSDOF 8
ENDMDL
MODEL 7
REMARK VINA RESULT:      -8.1      2.555      3.566
REMARK  Name = 13963764
REMARK  8 active torsions:
REMARK  status: ('A' for Active; 'I' for Inactive)
REMARK    1  A    between atoms: O_2  and  C_18
REMARK    2  A    between atoms: O_2  and  C_20
REMARK    3  A    between atoms: O_8  and  C_24
REMARK    4  A    between atoms: O_9  and  C_25
REMARK    5  A    between atoms: O_11  and  C_30
REMARK    6  A    between atoms: O_12  and  C_32
REMARK    7  A    between atoms: C_17  and  C_19
REMARK    8  A    between atoms: C_27  and  C_29
REMARK                            x       y       z     vdW  Elec       q    Type
REMARK                         _______ _______ _______ _____ _____    ______ ____
ROOT
ATOM      1  O   UNL     1     112.304 127.821 136.401  0.00  0.00    +0.000 OA
ATOM      2  O   UNL     1     110.581 128.866 137.934  0.00  0.00    +0.000 OA
ATOM      3  C   UNL     1     111.795 129.804 137.259  0.00  0.00    +0.000 A 
ATOM      4  C   UNL     1     111.763 128.997 137.087  0.00  0.00    +0.000 A 
ATOM      5  C   UNL     1     112.390 130.272 136.931  0.00  0.00    +0.000 A 
ATOM      6  C   UNL     1     112.326 128.660 136.588  0.00  0.00    +0.000 A 
ATOM      7  C   UNL     1     112.952 129.934 136.431  0.00  0.00    +0.000 A 
ATOM      8  C   UNL     1     112.920 129.129 136.260  0.00  0.00    +0.000 A 
ATOM      9  C   UNL     1     111.140 128.520 137.435  0.00  0.00    +0.000 A 
ATOM     10  C   UNL     1     111.687 127.328 136.740  0.00  0.00    +0.000 A 
ATOM     11  C   UNL     1     111.101 127.679 137.261  0.00  0.00    +0.000 A 
ENDROOT
BRANCH  10  13
ATOM     12  O   UNL     1     111.569 124.104 136.046  0.00  0.00    +0.000 OA
ATOM     13  C   UNL     1     111.658 126.522 136.567  0.00  0.00    +0.000 A 
ATOM     14  C   UNL     1     112.128 125.991 136.988  0.00  0.00    +0.000 A 
ATOM     15  C   UNL     1     111.157 126.246 135.972  0.00  0.00    +0.000 A 
ATOM     16  C   UNL     1     112.099 125.185 136.814  0.00  0.00    +0.000 A 
ATOM     17  C   UNL     1     111.127 125.440 135.799  0.00  0.00    +0.000 A 
ATOM     18  C   UNL     1     111.598 124.909 136.220  0.00  0.00    +0.000 A 
BRANCH  14  19
ATOM     19  O   UNL     1     112.630 126.268 137.583  0.00  0.00    +0.000 OA
ATOM     20  C   UNL     1     112.643 125.893 138.317  0.00  0.00    +0.000 C 
ENDBRANCH  14  19
BRANCH  16  21
ATOM     21  O   UNL     1     112.571 124.655 137.236  0.00  0.00    +0.000 OA
ATOM     22  C   UNL     1     113.067 124.134 136.833  0.00  0.00    +0.000 C 
ENDBRANCH  16  21
ENDBRANCH  10  13
BRANCH   7  23
ATOM     23  O   UNL     1     113.547 130.404 136.103  0.00  0.00    +0.000 OA
ATOM     24  C   UNL     1     113.945 130.953 136.571  0.00  0.00    +0.000 C 
ENDBRANCH   7  23
BRANCH   8  25
ATOM     25  O   UNL     1     113.483 128.791 135.760  0.00  0.00    +0.000 OA
ATOM     26  C   UNL     1     113.481 128.970 134.954  0.00  0.00    +0.000 C 
ENDBRANCH   8  25
BRANCH   3  27
ATOM     27  O   UNL     1     111.232 130.142 137.759  0.00  0.00    +0.000 OA
BRANCH  27  36
ATOM     28  O   UNL     1     110.464 130.880 136.806  0.00  0.00    +0.000 OA
ATOM     29  O   UNL     1     110.451 132.832 138.327  0.00  0.00    +0.000 OA
ATOM     30  O   UNL     1     109.688 132.918 136.867  0.00  0.00    +0.000 OA
ATOM     31  O   UNL     1     111.223 131.444 138.773  0.00  0.00    +0.000 OA
ATOM     32  C   UNL     1     110.455 132.181 137.820  0.00  0.00    +0.000 C 
ATOM     33  C   UNL     1     110.074 132.224 137.090  0.00  0.00    +0.000 C 
ATOM     34  C   UNL     1     110.842 131.486 138.043  0.00  0.00    +0.000 C 
ATOM     35  C   UNL     1     110.078 131.573 136.583  0.00  0.00    +0.000 C 
ATOM     36  C   UNL     1     110.846 130.836 137.536  0.00  0.00    +0.000 C 
BRANCH  35  38
ATOM     37  O   UNL     1     109.254 130.976 135.580  0.00  0.00    +0.000 OA
ATOM     38  C   UNL     1     109.697 131.616 135.853  0.00  0.00    +0.000 C 
ENDBRANCH  35  38
ENDBRANCH  27  36
ENDBRANCH   3  27
TORSDOF 8
ENDMDL
MODEL 8
REMARK VINA RESULT:      -7.9      1.920      5.778
REMARK  Name = 13963764
REMARK  8 active torsions:
REMARK  status: ('A' for Active; 'I' for Inactive)
REMARK    1  A    between atoms: O_2  and  C_18
REMARK    2  A    between atoms: O_2  and  C_20
REMARK    3  A    between atoms: O_8  and  C_24
REMARK    4  A    between atoms: O_9  and  C_25
REMARK    5  A    between atoms: O_11  and  C_30
REMARK    6  A    between atoms: O_12  and  C_32
REMARK    7  A    between atoms: C_17  and  C_19
REMARK    8  A    between atoms: C_27  and  C_29
REMARK                            x       y       z     vdW  Elec       q    Type
REMARK                         _______ _______ _______ _____ _____    ______ ____
ROOT
ATOM      1  O   UNL     1     112.053 129.385 137.935  0.00  0.00    +0.000 OA
ATOM      2  O   UNL     1     112.808 128.073 135.905  0.00  0.00    +0.000 OA
ATOM      3  C   UNL     1     112.986 127.431 137.443  0.00  0.00    +0.000 A 
ATOM      4  C   UNL     1     112.649 128.180 137.352  0.00  0.00    +0.000 A 
ATOM      5  C   UNL     1     113.076 127.109 138.197  0.00  0.00    +0.000 A 
ATOM      6  C   UNL     1     112.404 128.605 138.016  0.00  0.00    +0.000 A 
ATOM      7  C   UNL     1     112.831 127.534 138.860  0.00  0.00    +0.000 A 
ATOM      8  C   UNL     1     112.495 128.282 138.769  0.00  0.00    +0.000 A 
ATOM      9  C   UNL     1     112.560 128.505 136.563  0.00  0.00    +0.000 A 
ATOM     10  C   UNL     1     111.956 129.727 137.152  0.00  0.00    +0.000 A 
ATOM     11  C   UNL     1     112.211 129.284 136.461  0.00  0.00    +0.000 A 
ENDROOT
BRANCH  10  13
ATOM     12  O   UNL     1     110.612 132.720 136.801  0.00  0.00    +0.000 OA
ATOM     13  C   UNL     1     111.619 130.475 137.064  0.00  0.00    +0.000 A 
ATOM     14  C   UNL     1     110.819 130.549 136.879  0.00  0.00    +0.000 A 
ATOM     15  C   UNL     1     112.084 131.150 137.162  0.00  0.00    +0.000 A 
ATOM     16  C   UNL     1     110.483 131.298 136.791  0.00  0.00    +0.000 A 
ATOM     17  C   UNL     1     111.748 131.898 137.075  0.00  0.00    +0.000 A 
ATOM     18  C   UNL     1     110.947 131.972 136.889  0.00  0.00    +0.000 A 
BRANCH  14  19
ATOM     19  O   UNL     1     110.354 129.874 136.781  0.00  0.00    +0.000 OA
ATOM     20  C   UNL     1     109.599 129.843 137.109  0.00  0.00    +0.000 C 
ENDBRANCH  14  19
BRANCH  16  21
ATOM     21  O   UNL     1     109.683 131.371 136.605  0.00  0.00    +0.000 OA
ATOM     22  C   UNL     1     109.448 131.845 135.972  0.00  0.00    +0.000 C 
ENDBRANCH  16  21
ENDBRANCH  10  13
BRANCH   7  23
ATOM     23  O   UNL     1     112.922 127.211 139.614  0.00  0.00    +0.000 OA
ATOM     24  C   UNL     1     113.637 126.863 139.830  0.00  0.00    +0.000 C 
ENDBRANCH   7  23
BRANCH   8  25
ATOM     25  O   UNL     1     112.250 128.707 139.432  0.00  0.00    +0.000 OA
ATOM     26  C   UNL     1     111.585 128.464 139.856  0.00  0.00    +0.000 C 
ENDBRANCH   8  25
BRANCH   3  27
ATOM     27  O   UNL     1     113.231 127.006 136.780  0.00  0.00    +0.000 OA
BRANCH  27  36
ATOM     28  O   UNL     1     112.220 125.997 136.731  0.00  0.00    +0.000 OA
ATOM     29  O   UNL     1     113.958 124.274 136.365  0.00  0.00    +0.000 OA
ATOM     30  O   UNL     1     112.369 123.840 136.438  0.00  0.00    +0.000 OA
ATOM     31  O   UNL     1     114.390 125.857 136.536  0.00  0.00    +0.000 OA
ATOM     32  C   UNL     1     113.379 124.848 136.487  0.00  0.00    +0.000 C 
ATOM     33  C   UNL     1     112.584 124.632 136.524  0.00  0.00    +0.000 C 
ATOM     34  C   UNL     1     113.594 125.641 136.572  0.00  0.00    +0.000 C 
ATOM     35  C   UNL     1     112.004 125.206 136.646  0.00  0.00    +0.000 C 
ATOM     36  C   UNL     1     113.015 126.215 136.695  0.00  0.00    +0.000 C 
BRANCH  35  38
ATOM     37  O   UNL     1     110.641 125.433 136.282  0.00  0.00    +0.000 OA
ATOM     38  C   UNL     1     111.210 124.989 136.682  0.00  0.00    +0.000 C 
ENDBRANCH  35  38
ENDBRANCH  27  36
ENDBRANCH   3  27
TORSDOF 8
ENDMDL
