MODEL 1
REMARK VINA RESULT:     -10.7      0.000      0.000
REMARK  Name = 13988633
REMARK  7 active torsions:
REMARK  status: ('A' for Active; 'I' for Inactive)
REMARK    1  A    between atoms: O_3  and  C_24
REMARK    2  A    between atoms: O_3  and  C_28
REMARK    3  A    between atoms: O_6  and  C_27
REMARK    4  A    between atoms: O_6  and  C_30
REMARK    5  A    between atoms: C_18  and  C_28
REMARK    6  A    between atoms: C_26  and  C_29
REMARK    7  A    between atoms: C_37  and  C_39
REMARK                            x       y       z     vdW  Elec       q    Type
REMARK                         _______ _______ _______ _____ _____    ______ ____
ROOT
ATOM      1  O   UNL     1     111.542 125.625 135.724  0.00  0.00    +0.000 OA
ENDROOT
BRANCH   1   6
ATOM      2  O   UNL     1     112.874 126.456 136.247  0.00  0.00    +0.000 OA
ATOM      3  O   UNL     1     111.347 124.021 136.060  0.00  0.00    +0.000 OA
ATOM      4  O   UNL     1     113.833 124.014 137.469  0.00  0.00    +0.000 OA
ATOM      5  O   UNL     1     114.628 125.212 137.586  0.00  0.00    +0.000 OA
ATOM      6  C   UNL     1     112.114 125.222 136.160  0.00  0.00    +0.000 A 
ATOM      7  C   UNL     1     112.785 125.621 136.429  0.00  0.00    +0.000 A 
ATOM      8  C   UNL     1     112.017 124.420 136.328  0.00  0.00    +0.000 A 
ATOM      9  C   UNL     1     113.358 125.219 136.865  0.00  0.00    +0.000 A 
ATOM     10  C   UNL     1     112.590 124.017 136.764  0.00  0.00    +0.000 A 
ATOM     11  C   UNL     1     113.260 124.416 137.033  0.00  0.00    +0.000 A 
ATOM     12  C   UNL     1     114.060 125.623 137.150  0.00  0.00    +0.000 A 
ATOM     13  C   UNL     1     113.571 126.878 136.524  0.00  0.00    +0.000 A 
ATOM     14  C   UNL     1     114.167 126.457 136.978  0.00  0.00    +0.000 A 
BRANCH  13  17
ATOM     15  O   UNL     1     113.080 129.619 137.167  0.00  0.00    +0.000 OA
ATOM     16  O   UNL     1     113.949 130.085 135.843  0.00  0.00    +0.000 OA
ATOM     17  C   UNL     1     113.665 127.679 136.354  0.00  0.00    +0.000 A 
ATOM     18  C   UNL     1     113.325 128.248 136.846  0.00  0.00    +0.000 A 
ATOM     19  C   UNL     1     114.099 127.912 135.693  0.00  0.00    +0.000 A 
ATOM     20  C   UNL     1     113.420 129.050 136.675  0.00  0.00    +0.000 A 
ATOM     21  C   UNL     1     114.194 128.714 135.522  0.00  0.00    +0.000 A 
ATOM     22  C   UNL     1     113.854 129.283 136.014  0.00  0.00    +0.000 A 
ENDBRANCH  13  17
ENDBRANCH   1   6
BRANCH   1  31
ATOM     23  O   UNL     1     110.799 125.872 136.920  0.00  0.00    +0.000 OA
ATOM     24  O   UNL     1     108.831 126.766 137.221  0.00  0.00    +0.000 OA
ATOM     25  O   UNL     1     108.960 126.842 135.577  0.00  0.00    +0.000 OA
ATOM     26  O   UNL     1     110.315 126.272 134.829  0.00  0.00    +0.000 OA
ATOM     27  C   UNL     1     110.121 126.157 137.295  0.00  0.00    +0.000 C 
ATOM     28  C   UNL     1     109.509 126.481 136.847  0.00  0.00    +0.000 C 
ATOM     29  C   UNL     1     109.573 126.519 136.026  0.00  0.00    +0.000 C 
ATOM     30  C   UNL     1     110.251 126.234 135.651  0.00  0.00    +0.000 C 
ATOM     31  C   UNL     1     110.864 125.910 136.098  0.00  0.00    +0.000 C 
BRANCH  27  32
ATOM     32  C   UNL     1     110.057 126.119 138.116  0.00  0.00    +0.000 C 
BRANCH  32  33
ATOM     33  O   UNL     1     110.668 126.404 138.591  0.00  0.00    +0.000 OA
BRANCH  33  40
ATOM     34  O   UNL     1     109.945 126.018 139.761  0.00  0.00    +0.000 OA
ATOM     35  O   UNL     1     111.807 127.134 139.535  0.00  0.00    +0.000 OA
ATOM     36  O   UNL     1     111.654 127.113 141.178  0.00  0.00    +0.000 OA
ATOM     37  O   UNL     1     110.361 126.361 141.876  0.00  0.00    +0.000 OA
ATOM     38  C   UNL     1     111.161 126.759 139.885  0.00  0.00    +0.000 C 
ATOM     39  C   UNL     1     111.084 126.748 140.706  0.00  0.00    +0.000 C 
ATOM     40  C   UNL     1     110.592 126.394 139.413  0.00  0.00    +0.000 C 
ATOM     41  C   UNL     1     110.439 126.373 141.055  0.00  0.00    +0.000 C 
ATOM     42  C   UNL     1     109.869 126.008 140.582  0.00  0.00    +0.000 C 
BRANCH  42  44
ATOM     43  O   UNL     1     109.163 124.809 140.912  0.00  0.00    +0.000 OA
ATOM     44  C   UNL     1     109.222 125.632 140.932  0.00  0.00    +0.000 C 
ENDBRANCH  42  44
ENDBRANCH  33  40
ENDBRANCH  32  33
ENDBRANCH  27  32
ENDBRANCH   1  31
TORSDOF 7
ENDMDL
MODEL 2
REMARK VINA RESULT:     -10.5      1.061      3.440
REMARK  Name = 13988633
REMARK  7 active torsions:
REMARK  status: ('A' for Active; 'I' for Inactive)
REMARK    1  A    between atoms: O_3  and  C_24
REMARK    2  A    between atoms: O_3  and  C_28
REMARK    3  A    between atoms: O_6  and  C_27
REMARK    4  A    between atoms: O_6  and  C_30
REMARK    5  A    between atoms: C_18  and  C_28
REMARK    6  A    between atoms: C_26  and  C_29
REMARK    7  A    between atoms: C_37  and  C_39
REMARK                            x       y       z     vdW  Elec       q    Type
REMARK                         _______ _______ _______ _____ _____    ______ ____
ROOT
ATOM      1  O   UNL     1     113.381 126.818 136.206  0.00  0.00    +0.000 OA
ENDROOT
BRANCH   1   6
ATOM      2  O   UNL     1     111.991 125.919 136.202  0.00  0.00    +0.000 OA
ATOM      3  O   UNL     1     114.809 126.184 136.737  0.00  0.00    +0.000 OA
ATOM      4  O   UNL     1     113.502 123.703 137.288  0.00  0.00    +0.000 OA
ATOM      5  O   UNL     1     112.093 123.529 137.035  0.00  0.00    +0.000 OA
ATOM      6  C   UNL     1     113.412 126.039 136.477  0.00  0.00    +0.000 A 
ATOM      7  C   UNL     1     112.729 125.577 136.481  0.00  0.00    +0.000 A 
ATOM      8  C   UNL     1     114.125 125.722 136.742  0.00  0.00    +0.000 A 
ATOM      9  C   UNL     1     112.758 124.798 136.752  0.00  0.00    +0.000 A 
ATOM     10  C   UNL     1     114.156 124.943 137.013  0.00  0.00    +0.000 A 
ATOM     11  C   UNL     1     113.473 124.481 137.018  0.00  0.00    +0.000 A 
ATOM     12  C   UNL     1     112.053 124.308 136.762  0.00  0.00    +0.000 A 
ATOM     13  C   UNL     1     111.275 125.443 136.204  0.00  0.00    +0.000 A 
ATOM     14  C   UNL     1     111.308 124.631 136.487  0.00  0.00    +0.000 A 
BRANCH  13  17
ATOM     15  O   UNL     1     108.877 126.913 136.712  0.00  0.00    +0.000 OA
ATOM     16  O   UNL     1     108.427 126.723 135.136  0.00  0.00    +0.000 OA
ATOM     17  C   UNL     1     110.563 125.763 135.938  0.00  0.00    +0.000 A 
ATOM     18  C   UNL     1     110.076 126.178 136.459  0.00  0.00    +0.000 A 
ATOM     19  C   UNL     1     110.338 125.668 135.150  0.00  0.00    +0.000 A 
ATOM     20  C   UNL     1     109.364 126.498 136.191  0.00  0.00    +0.000 A 
ATOM     21  C   UNL     1     109.626 125.987 134.883  0.00  0.00    +0.000 A 
ATOM     22  C   UNL     1     109.139 126.403 135.403  0.00  0.00    +0.000 A 
ENDBRANCH  13  17
ENDBRANCH   1   6
BRANCH   1  31
ATOM     23  O   UNL     1     113.192 127.286 137.543  0.00  0.00    +0.000 OA
ATOM     24  O   UNL     1     113.211 129.308 138.365  0.00  0.00    +0.000 OA
ATOM     25  O   UNL     1     113.505 129.617 136.771  0.00  0.00    +0.000 OA
ATOM     26  O   UNL     1     113.590 128.372 135.691  0.00  0.00    +0.000 OA
ATOM     27  C   UNL     1     113.149 127.908 138.083  0.00  0.00    +0.000 C 
ATOM     28  C   UNL     1     113.254 128.685 137.825  0.00  0.00    +0.000 C 
ATOM     29  C   UNL     1     113.401 128.840 137.029  0.00  0.00    +0.000 C 
ATOM     30  C   UNL     1     113.443 128.217 136.489  0.00  0.00    +0.000 C 
ATOM     31  C   UNL     1     113.339 127.440 136.746  0.00  0.00    +0.000 C 
BRANCH  27  32
ATOM     32  C   UNL     1     113.003 127.754 138.879  0.00  0.00    +0.000 C 
BRANCH  32  33
ATOM     33  O   UNL     1     112.326 127.337 139.101  0.00  0.00    +0.000 OA
BRANCH  33  40
ATOM     34  O   UNL     1     112.334 127.889 140.419  0.00  0.00    +0.000 OA
ATOM     35  O   UNL     1     111.452 126.048 139.646  0.00  0.00    +0.000 OA
ATOM     36  O   UNL     1     111.023 125.955 141.237  0.00  0.00    +0.000 OA
ATOM     37  O   UNL     1     111.468 127.152 142.282  0.00  0.00    +0.000 OA
ATOM     38  C   UNL     1     111.674 126.646 140.169  0.00  0.00    +0.000 C 
ATOM     39  C   UNL     1     111.460 126.600 140.964  0.00  0.00    +0.000 C 
ATOM     40  C   UNL     1     112.111 127.290 139.897  0.00  0.00    +0.000 C 
ATOM     41  C   UNL     1     111.682 127.197 141.486  0.00  0.00    +0.000 C 
ATOM     42  C   UNL     1     112.119 127.842 141.214  0.00  0.00    +0.000 C 
BRANCH  42  44
ATOM     43  O   UNL     1     112.252 129.232 141.521  0.00  0.00    +0.000 OA
ATOM     44  C   UNL     1     112.342 128.441 141.737  0.00  0.00    +0.000 C 
ENDBRANCH  42  44
ENDBRANCH  33  40
ENDBRANCH  32  33
ENDBRANCH  27  32
ENDBRANCH   1  31
TORSDOF 7
ENDMDL
MODEL 3
REMARK VINA RESULT:     -10.4      2.487      4.825
REMARK  Name = 13988633
REMARK  7 active torsions:
REMARK  status: ('A' for Active; 'I' for Inactive)
REMARK    1  A    between atoms: O_3  and  C_24
REMARK    2  A    between atoms: O_3  and  C_28
REMARK    3  A    between atoms: O_6  and  C_27
REMARK    4  A    between atoms: O_6  and  C_30
REMARK    5  A    between atoms: C_18  and  C_28
REMARK    6  A    between atoms: C_26  and  C_29
REMARK    7  A    between atoms: C_37  and  C_39
REMARK                            x       y       z     vdW  Elec       q    Type
REMARK                         _______ _______ _______ _____ _____    ______ ____
ROOT
ATOM      1  O   UNL     1     111.377 128.548 135.288  0.00  0.00    +0.000 OA
ENDROOT
BRANCH   1   6
ATOM      2  O   UNL     1     110.631 127.221 135.938  0.00  0.00    +0.000 OA
ATOM      3  O   UNL     1     110.517 129.889 134.859  0.00  0.00    +0.000 OA
ATOM      4  O   UNL     1     108.107 128.619 135.721  0.00  0.00    +0.000 OA
ATOM      5  O   UNL     1     108.121 127.284 136.267  0.00  0.00    +0.000 OA
ATOM      6  C   UNL     1     110.559 128.566 135.396  0.00  0.00    +0.000 A 
ATOM      7  C   UNL     1     110.172 127.914 135.719  0.00  0.00    +0.000 A 
ATOM      8  C   UNL     1     110.130 129.236 135.182  0.00  0.00    +0.000 A 
ATOM      9  C   UNL     1     109.354 127.931 135.827  0.00  0.00    +0.000 A 
ATOM     10  C   UNL     1     109.312 129.255 135.290  0.00  0.00    +0.000 A 
ATOM     11  C   UNL     1     108.924 128.602 135.612  0.00  0.00    +0.000 A 
ATOM     12  C   UNL     1     108.939 127.257 136.163  0.00  0.00    +0.000 A 
ATOM     13  C   UNL     1     110.233 126.537 136.276  0.00  0.00    +0.000 A 
ATOM     14  C   UNL     1     109.381 126.557 136.388  0.00  0.00    +0.000 A 
BRANCH  13  17
ATOM     15  O   UNL     1     111.518 124.955 138.279  0.00  0.00    +0.000 OA
ATOM     16  O   UNL     1     111.966 123.861 137.127  0.00  0.00    +0.000 OA
ATOM     17  C   UNL     1     110.666 125.869 136.489  0.00  0.00    +0.000 A 
ATOM     18  C   UNL     1     110.876 125.746 137.278  0.00  0.00    +0.000 A 
ATOM     19  C   UNL     1     110.890 125.322 135.913  0.00  0.00    +0.000 A 
ATOM     20  C   UNL     1     111.309 125.077 137.490  0.00  0.00    +0.000 A 
ATOM     21  C   UNL     1     111.324 124.653 136.126  0.00  0.00    +0.000 A 
ATOM     22  C   UNL     1     111.533 124.530 136.914  0.00  0.00    +0.000 A 
ENDBRANCH  13  17
ENDBRANCH   1   6
BRANCH   1  31
ATOM     23  O   UNL     1     111.557 129.197 136.549  0.00  0.00    +0.000 OA
ATOM     24  O   UNL     1     113.371 129.849 137.574  0.00  0.00    +0.000 OA
ATOM     25  O   UNL     1     114.007 129.201 136.196  0.00  0.00    +0.000 OA
ATOM     26  O   UNL     1     113.011 128.550 135.053  0.00  0.00    +0.000 OA
ATOM     27  C   UNL     1     112.056 129.523 137.120  0.00  0.00    +0.000 C 
ATOM     28  C   UNL     1     112.872 129.523 137.002  0.00  0.00    +0.000 C 
ATOM     29  C   UNL     1     113.191 129.200 136.314  0.00  0.00    +0.000 C 
ATOM     30  C   UNL     1     112.692 128.875 135.743  0.00  0.00    +0.000 C 
ATOM     31  C   UNL     1     111.876 128.873 135.859  0.00  0.00    +0.000 C 
BRANCH  27  32
ATOM     32  C   UNL     1     111.738 129.846 137.808  0.00  0.00    +0.000 C 
BRANCH  32  33
ATOM     33  O   UNL     1     111.269 130.524 137.767  0.00  0.00    +0.000 OA
BRANCH  33  40
ATOM     34  O   UNL     1     110.299 130.083 138.718  0.00  0.00    +0.000 OA
ATOM     35  O   UNL     1     111.063 132.080 138.278  0.00  0.00    +0.000 OA
ATOM     36  O   UNL     1     109.988 132.416 139.484  0.00  0.00    +0.000 OA
ATOM     37  O   UNL     1     109.121 131.197 140.180  0.00  0.00    +0.000 OA
ATOM     38  C   UNL     1     110.628 131.470 138.626  0.00  0.00    +0.000 C 
ATOM     39  C   UNL     1     110.092 131.638 139.229  0.00  0.00    +0.000 C 
ATOM     40  C   UNL     1     110.732 130.693 138.371  0.00  0.00    +0.000 C 
ATOM     41  C   UNL     1     109.658 131.029 139.576  0.00  0.00    +0.000 C 
ATOM     42  C   UNL     1     109.762 130.252 139.321  0.00  0.00    +0.000 C 
BRANCH  42  44
ATOM     43  O   UNL     1     108.967 129.070 139.196  0.00  0.00    +0.000 OA
ATOM     44  C   UNL     1     109.328 129.641 139.669  0.00  0.00    +0.000 C 
ENDBRANCH  42  44
ENDBRANCH  33  40
ENDBRANCH  32  33
ENDBRANCH  27  32
ENDBRANCH   1  31
TORSDOF 7
ENDMDL
MODEL 4
REMARK VINA RESULT:     -10.3      0.808      5.078
REMARK  Name = 13988633
REMARK  7 active torsions:
REMARK  status: ('A' for Active; 'I' for Inactive)
REMARK    1  A    between atoms: O_3  and  C_24
REMARK    2  A    between atoms: O_3  and  C_28
REMARK    3  A    between atoms: O_6  and  C_27
REMARK    4  A    between atoms: O_6  and  C_30
REMARK    5  A    between atoms: C_18  and  C_28
REMARK    6  A    between atoms: C_26  and  C_29
REMARK    7  A    between atoms: C_37  and  C_39
REMARK                            x       y       z     vdW  Elec       q    Type
REMARK                         _______ _______ _______ _____ _____    ______ ____
ROOT
ATOM      1  O   UNL     1     111.392 124.828 136.886  0.00  0.00    +0.000 OA
ENDROOT
BRANCH   1   6
ATOM      2  O   UNL     1     110.517 125.783 137.915  0.00  0.00    +0.000 OA
ATOM      3  O   UNL     1     111.188 124.919 135.251  0.00  0.00    +0.000 OA
ATOM      4  O   UNL     1     109.204 126.944 135.612  0.00  0.00    +0.000 OA
ATOM      5  O   UNL     1     108.840 127.405 136.929  0.00  0.00    +0.000 OA
ATOM      6  C   UNL     1     110.845 125.357 136.566  0.00  0.00    +0.000 A 
ATOM      7  C   UNL     1     110.401 125.840 137.065  0.00  0.00    +0.000 A 
ATOM      8  C   UNL     1     110.743 125.402 135.750  0.00  0.00    +0.000 A 
ATOM      9  C   UNL     1     109.854 126.369 136.748  0.00  0.00    +0.000 A 
ATOM     10  C   UNL     1     110.196 125.931 135.431  0.00  0.00    +0.000 A 
ATOM     11  C   UNL     1     109.751 126.415 135.930  0.00  0.00    +0.000 A 
ATOM     12  C   UNL     1     109.385 126.878 137.257  0.00  0.00    +0.000 A 
ATOM     13  C   UNL     1     110.056 126.284 138.441  0.00  0.00    +0.000 A 
ATOM     14  C   UNL     1     109.486 126.836 138.108  0.00  0.00    +0.000 A 
BRANCH  13  17
ATOM     15  O   UNL     1     109.350 125.145 140.965  0.00  0.00    +0.000 OA
ATOM     16  O   UNL     1     110.478 126.093 141.708  0.00  0.00    +0.000 OA
ATOM     17  C   UNL     1     110.161 126.236 139.257  0.00  0.00    +0.000 A 
ATOM     18  C   UNL     1     109.703 125.714 139.703  0.00  0.00    +0.000 A 
ATOM     19  C   UNL     1     110.725 126.710 139.629  0.00  0.00    +0.000 A 
ATOM     20  C   UNL     1     109.808 125.667 140.520  0.00  0.00    +0.000 A 
ATOM     21  C   UNL     1     110.830 126.663 140.446  0.00  0.00    +0.000 A 
ATOM     22  C   UNL     1     110.372 126.141 140.891  0.00  0.00    +0.000 A 
ENDBRANCH  13  17
ENDBRANCH   1   6
BRANCH   1  31
ATOM     23  O   UNL     1     112.442 125.783 136.712  0.00  0.00    +0.000 OA
ATOM     24  O   UNL     1     114.609 125.566 136.859  0.00  0.00    +0.000 OA
ATOM     25  O   UNL     1     114.119 124.027 137.193  0.00  0.00    +0.000 OA
ATOM     26  O   UNL     1     112.511 123.657 137.206  0.00  0.00    +0.000 OA
ATOM     27  C   UNL     1     113.246 125.967 136.705  0.00  0.00    +0.000 C 
ATOM     28  C   UNL     1     113.805 125.382 136.865  0.00  0.00    +0.000 C 
ATOM     29  C   UNL     1     113.560 124.612 137.032  0.00  0.00    +0.000 C 
ATOM     30  C   UNL     1     112.756 124.428 137.039  0.00  0.00    +0.000 C 
ATOM     31  C   UNL     1     112.197 125.012 136.879  0.00  0.00    +0.000 C 
BRANCH  27  32
ATOM     32  C   UNL     1     113.490 126.737 136.538  0.00  0.00    +0.000 C 
BRANCH  32  33
ATOM     33  O   UNL     1     113.186 127.369 136.972  0.00  0.00    +0.000 OA
BRANCH  33  40
ATOM     34  O   UNL     1     113.728 128.287 136.020  0.00  0.00    +0.000 OA
ATOM     35  O   UNL     1     112.709 128.633 137.919  0.00  0.00    +0.000 OA
ATOM     36  O   UNL     1     113.012 130.183 137.440  0.00  0.00    +0.000 OA
ATOM     37  O   UNL     1     113.792 130.469 136.015  0.00  0.00    +0.000 OA
ATOM     38  C   UNL     1     113.099 128.777 137.206  0.00  0.00    +0.000 C 
ATOM     39  C   UNL     1     113.251 129.551 136.967  0.00  0.00    +0.000 C 
ATOM     40  C   UNL     1     113.338 128.145 136.732  0.00  0.00    +0.000 C 
ATOM     41  C   UNL     1     113.640 129.694 136.255  0.00  0.00    +0.000 C 
ATOM     42  C   UNL     1     113.879 129.062 135.781  0.00  0.00    +0.000 C 
BRANCH  42  44
ATOM     43  O   UNL     1     114.923 128.748 134.856  0.00  0.00    +0.000 OA
ATOM     44  C   UNL     1     114.270 129.205 135.068  0.00  0.00    +0.000 C 
ENDBRANCH  42  44
ENDBRANCH  33  40
ENDBRANCH  32  33
ENDBRANCH  27  32
ENDBRANCH   1  31
TORSDOF 7
ENDMDL
MODEL 5
REMARK VINA RESULT:     -10.2      1.515      4.678
REMARK  Name = 13988633
REMARK  7 active torsions:
REMARK  status: ('A' for Active; 'I' for Inactive)
REMARK    1  A    between atoms: O_3  and  C_24
REMARK    2  A    between atoms: O_3  and  C_28
REMARK    3  A    between atoms: O_6  and  C_27
REMARK    4  A    between atoms: O_6  and  C_30
REMARK    5  A    between atoms: C_18  and  C_28
REMARK    6  A    between atoms: C_26  and  C_29
REMARK    7  A    between atoms: C_37  and  C_39
REMARK                            x       y       z     vdW  Elec       q    Type
REMARK                         _______ _______ _______ _____ _____    ______ ____
ROOT
ATOM      1  O   UNL     1     112.940 126.287 137.246  0.00  0.00    +0.000 OA
ENDROOT
BRANCH   1   6
ATOM      2  O   UNL     1     112.328 127.140 138.525  0.00  0.00    +0.000 OA
ATOM      3  O   UNL     1     113.784 127.037 136.043  0.00  0.00    +0.000 OA
ATOM      4  O   UNL     1     113.434 129.548 137.362  0.00  0.00    +0.000 OA
ATOM      5  O   UNL     1     112.712 129.642 138.607  0.00  0.00    +0.000 OA
ATOM      6  C   UNL     1     113.064 127.103 137.274  0.00  0.00    +0.000 A 
ATOM      7  C   UNL     1     112.766 127.543 137.905  0.00  0.00    +0.000 A 
ATOM      8  C   UNL     1     113.486 127.477 136.673  0.00  0.00    +0.000 A 
ATOM      9  C   UNL     1     112.889 128.358 137.935  0.00  0.00    +0.000 A 
ATOM     10  C   UNL     1     113.610 128.293 136.702  0.00  0.00    +0.000 A 
ATOM     11  C   UNL     1     113.311 128.733 137.332  0.00  0.00    +0.000 A 
ATOM     12  C   UNL     1     112.583 128.827 138.586  0.00  0.00    +0.000 A 
ATOM     13  C   UNL     1     112.014 127.593 139.185  0.00  0.00    +0.000 A 
ATOM     14  C   UNL     1     112.143 128.443 139.215  0.00  0.00    +0.000 A 
BRANCH  13  17
ATOM     15  O   UNL     1     111.973 126.145 141.649  0.00  0.00    +0.000 OA
ATOM     16  O   UNL     1     110.325 126.080 141.583  0.00  0.00    +0.000 OA
ATOM     17  C   UNL     1     111.592 127.215 139.785  0.00  0.00    +0.000 A 
ATOM     18  C   UNL     1     111.994 126.869 140.417  0.00  0.00    +0.000 A 
ATOM     19  C   UNL     1     110.769 127.183 139.752  0.00  0.00    +0.000 A 
ATOM     20  C   UNL     1     111.571 126.491 141.017  0.00  0.00    +0.000 A 
ATOM     21  C   UNL     1     110.346 126.804 140.351  0.00  0.00    +0.000 A 
ATOM     22  C   UNL     1     110.748 126.459 140.984  0.00  0.00    +0.000 A 
ENDBRANCH  13  17
ENDBRANCH   1   6
BRANCH   1  31
ATOM     23  O   UNL     1     111.773 126.485 136.445  0.00  0.00    +0.000 OA
ATOM     24  O   UNL     1     110.501 125.055 135.396  0.00  0.00    +0.000 OA
ATOM     25  O   UNL     1     111.615 124.043 136.072  0.00  0.00    +0.000 OA
ATOM     26  O   UNL     1     112.835 124.659 136.996  0.00  0.00    +0.000 OA
ATOM     27  C   UNL     1     111.163 126.177 135.983  0.00  0.00    +0.000 C 
ATOM     28  C   UNL     1     111.111 125.363 135.858  0.00  0.00    +0.000 C 
ATOM     29  C   UNL     1     111.667 124.858 136.196  0.00  0.00    +0.000 C 
ATOM     30  C   UNL     1     112.277 125.166 136.658  0.00  0.00    +0.000 C 
ATOM     31  C   UNL     1     112.330 125.979 136.783  0.00  0.00    +0.000 C 
BRANCH  27  32
ATOM     32  C   UNL     1     110.606 126.683 135.645  0.00  0.00    +0.000 C 
BRANCH  32  33
ATOM     33  O   UNL     1     110.112 127.133 136.128  0.00  0.00    +0.000 OA
BRANCH  33  40
ATOM     34  O   UNL     1     110.262 128.348 135.391  0.00  0.00    +0.000 OA
ATOM     35  O   UNL     1     108.554 127.544 136.487  0.00  0.00    +0.000 OA
ATOM     36  O   UNL     1     107.926 128.964 135.929  0.00  0.00    +0.000 OA
ATOM     37  O   UNL     1     108.855 129.974 135.013  0.00  0.00    +0.000 OA
ATOM     38  C   UNL     1     109.018 128.049 136.029  0.00  0.00    +0.000 C 
ATOM     39  C   UNL     1     108.705 128.759 135.750  0.00  0.00    +0.000 C 
ATOM     40  C   UNL     1     109.797 127.844 135.849  0.00  0.00    +0.000 C 
ATOM     41  C   UNL     1     109.169 129.263 135.292  0.00  0.00    +0.000 C 
ATOM     42  C   UNL     1     109.947 129.058 135.113  0.00  0.00    +0.000 C 
BRANCH  42  44
ATOM     43  O   UNL     1     111.159 129.792 134.920  0.00  0.00    +0.000 OA
ATOM     44  C   UNL     1     110.412 129.563 134.654  0.00  0.00    +0.000 C 
ENDBRANCH  42  44
ENDBRANCH  33  40
ENDBRANCH  32  33
ENDBRANCH  27  32
ENDBRANCH   1  31
TORSDOF 7
ENDMDL
MODEL 6
REMARK VINA RESULT:     -10.2      2.166      4.321
REMARK  Name = 13988633
REMARK  7 active torsions:
REMARK  status: ('A' for Active; 'I' for Inactive)
REMARK    1  A    between atoms: O_3  and  C_24
REMARK    2  A    between atoms: O_3  and  C_28
REMARK    3  A    between atoms: O_6  and  C_27
REMARK    4  A    between atoms: O_6  and  C_30
REMARK    5  A    between atoms: C_18  and  C_28
REMARK    6  A    between atoms: C_26  and  C_29
REMARK    7  A    between atoms: C_37  and  C_39
REMARK                            x       y       z     vdW  Elec       q    Type
REMARK                         _______ _______ _______ _____ _____    ______ ____
ROOT
ATOM      1  O   UNL     1     112.809 128.729 135.402  0.00  0.00    +0.000 OA
ENDROOT
BRANCH   1   6
ATOM      2  O   UNL     1     112.611 127.222 136.059  0.00  0.00    +0.000 OA
ATOM      3  O   UNL     1     111.574 129.487 134.612  0.00  0.00    +0.000 OA
ATOM      4  O   UNL     1     109.878 127.241 135.108  0.00  0.00    +0.000 OA
ATOM      5  O   UNL     1     110.359 126.088 135.829  0.00  0.00    +0.000 OA
ATOM      6  C   UNL     1     112.075 128.357 135.328  0.00  0.00    +0.000 A 
ATOM      7  C   UNL     1     111.960 127.606 135.650  0.00  0.00    +0.000 A 
ATOM      8  C   UNL     1     111.459 128.736 134.934  0.00  0.00    +0.000 A 
ATOM      9  C   UNL     1     111.228 127.234 135.577  0.00  0.00    +0.000 A 
ATOM     10  C   UNL     1     110.725 128.364 134.860  0.00  0.00    +0.000 A 
ATOM     11  C   UNL     1     110.610 127.613 135.181  0.00  0.00    +0.000 A 
ATOM     12  C   UNL     1     111.095 126.452 135.907  0.00  0.00    +0.000 A 
ATOM     13  C   UNL     1     112.497 126.440 136.397  0.00  0.00    +0.000 A 
ATOM     14  C   UNL     1     111.734 126.053 136.320  0.00  0.00    +0.000 A 
BRANCH  13  17
ATOM     15  O   UNL     1     114.007 125.996 138.783  0.00  0.00    +0.000 OA
ATOM     16  O   UNL     1     114.976 124.935 137.972  0.00  0.00    +0.000 OA
ATOM     17  C   UNL     1     113.117 126.064 136.791  0.00  0.00    +0.000 A 
ATOM     18  C   UNL     1     113.252 126.218 137.590  0.00  0.00    +0.000 A 
ATOM     19  C   UNL     1     113.601 125.533 136.386  0.00  0.00    +0.000 A 
ATOM     20  C   UNL     1     113.872 125.842 137.984  0.00  0.00    +0.000 A 
ATOM     21  C   UNL     1     114.221 125.157 136.779  0.00  0.00    +0.000 A 
ATOM     22  C   UNL     1     114.356 125.311 137.578  0.00  0.00    +0.000 A 
ENDBRANCH  13  17
ENDBRANCH   1   6
BRANCH   1  31
ATOM     23  O   UNL     1     112.316 129.477 136.516  0.00  0.00    +0.000 OA
ATOM     24  O   UNL     1     113.285 130.978 137.770  0.00  0.00    +0.000 OA
ATOM     25  O   UNL     1     114.508 130.607 136.726  0.00  0.00    +0.000 OA
ATOM     26  O   UNL     1     114.270 129.483 135.542  0.00  0.00    +0.000 OA
ATOM     27  C   UNL     1     112.435 130.039 137.108  0.00  0.00    +0.000 C 
ATOM     28  C   UNL     1     113.166 130.416 137.178  0.00  0.00    +0.000 C 
ATOM     29  C   UNL     1     113.777 130.231 136.657  0.00  0.00    +0.000 C 
ATOM     30  C   UNL     1     113.658 129.668 136.065  0.00  0.00    +0.000 C 
ATOM     31  C   UNL     1     112.928 129.291 135.994  0.00  0.00    +0.000 C 
BRANCH  27  32
ATOM     32  C   UNL     1     111.823 130.224 137.629  0.00  0.00    +0.000 C 
BRANCH  32  33
ATOM     33  O   UNL     1     111.502 129.638 138.113  0.00  0.00    +0.000 OA
BRANCH  33  40
ATOM     34  O   UNL     1     110.378 130.474 138.396  0.00  0.00    +0.000 OA
ATOM     35  O   UNL     1     110.750 128.373 138.859  0.00  0.00    +0.000 OA
ATOM     36  O   UNL     1     109.249 128.576 139.515  0.00  0.00    +0.000 OA
ATOM     37  O   UNL     1     108.501 130.044 139.425  0.00  0.00    +0.000 OA
ATOM     38  C   UNL     1     110.375 129.107 138.814  0.00  0.00    +0.000 C 
ATOM     39  C   UNL     1     109.625 129.209 139.142  0.00  0.00    +0.000 C 
ATOM     40  C   UNL     1     110.751 129.740 138.441  0.00  0.00    +0.000 C 
ATOM     41  C   UNL     1     109.251 129.942 139.097  0.00  0.00    +0.000 C 
ATOM     42  C   UNL     1     109.628 130.574 138.724  0.00  0.00    +0.000 C 
BRANCH  42  44
ATOM     43  O   UNL     1     109.693 132.002 138.761  0.00  0.00    +0.000 OA
ATOM     44  C   UNL     1     109.253 131.309 138.679  0.00  0.00    +0.000 C 
ENDBRANCH  42  44
ENDBRANCH  33  40
ENDBRANCH  32  33
ENDBRANCH  27  32
ENDBRANCH   1  31
TORSDOF 7
ENDMDL
MODEL 7
REMARK VINA RESULT:     -10.2      2.130      5.000
REMARK  Name = 13988633
REMARK  7 active torsions:
REMARK  status: ('A' for Active; 'I' for Inactive)
REMARK    1  A    between atoms: O_3  and  C_24
REMARK    2  A    between atoms: O_3  and  C_28
REMARK    3  A    between atoms: O_6  and  C_27
REMARK    4  A    between atoms: O_6  and  C_30
REMARK    5  A    between atoms: C_18  and  C_28
REMARK    6  A    between atoms: C_26  and  C_29
REMARK    7  A    between atoms: C_37  and  C_39
REMARK                            x       y       z     vdW  Elec       q    Type
REMARK                         _______ _______ _______ _____ _____    ______ ____
ROOT
ATOM      1  O   UNL     1     113.159 129.077 138.762  0.00  0.00    +0.000 OA
ENDROOT
BRANCH   1   6
ATOM      2  O   UNL     1     113.305 128.250 137.335  0.00  0.00    +0.000 OA
ATOM      3  O   UNL     1     113.325 130.717 138.822  0.00  0.00    +0.000 OA
ATOM      4  O   UNL     1     113.795 130.773 136.004  0.00  0.00    +0.000 OA
ATOM      5  O   UNL     1     113.794 129.560 135.223  0.00  0.00    +0.000 OA
ATOM      6  C   UNL     1     113.318 129.501 138.073  0.00  0.00    +0.000 A 
ATOM      7  C   UNL     1     113.394 129.105 137.353  0.00  0.00    +0.000 A 
ATOM      8  C   UNL     1     113.401 130.321 138.103  0.00  0.00    +0.000 A 
ATOM      9  C   UNL     1     113.553 129.529 136.663  0.00  0.00    +0.000 A 
ATOM     10  C   UNL     1     113.560 130.746 137.413  0.00  0.00    +0.000 A 
ATOM     11  C   UNL     1     113.636 130.350 136.694  0.00  0.00    +0.000 A 
ATOM     12  C   UNL     1     113.634 129.127 135.908  0.00  0.00    +0.000 A 
ATOM     13  C   UNL     1     113.384 127.831 136.588  0.00  0.00    +0.000 A 
ATOM     14  C   UNL     1     113.549 128.274 135.870  0.00  0.00    +0.000 A 
BRANCH  13  17
ATOM     15  O   UNL     1     111.741 125.520 136.235  0.00  0.00    +0.000 OA
ATOM     16  O   UNL     1     113.052 124.550 136.484  0.00  0.00    +0.000 OA
ATOM     17  C   UNL     1     113.300 127.011 136.562  0.00  0.00    +0.000 A 
ATOM     18  C   UNL     1     112.562 126.676 136.411  0.00  0.00    +0.000 A 
ATOM     19  C   UNL     1     113.956 126.527 136.687  0.00  0.00    +0.000 A 
ATOM     20  C   UNL     1     112.479 125.855 136.385  0.00  0.00    +0.000 A 
ATOM     21  C   UNL     1     113.873 125.706 136.660  0.00  0.00    +0.000 A 
ATOM     22  C   UNL     1     113.135 125.370 136.510  0.00  0.00    +0.000 A 
ENDBRANCH  13  17
ENDBRANCH   1   6
BRANCH   1  31
ATOM     23  O   UNL     1     111.751 129.240 138.574  0.00  0.00    +0.000 OA
ATOM     24  O   UNL     1     110.084 128.962 139.955  0.00  0.00    +0.000 OA
ATOM     25  O   UNL     1     111.361 128.579 140.927  0.00  0.00    +0.000 OA
ATOM     26  O   UNL     1     112.898 128.636 140.331  0.00  0.00    +0.000 OA
ATOM     27  C   UNL     1     110.983 129.211 138.872  0.00  0.00    +0.000 C 
ATOM     28  C   UNL     1     110.853 128.991 139.657  0.00  0.00    +0.000 C 
ATOM     29  C   UNL     1     111.491 128.799 140.143  0.00  0.00    +0.000 C 
ATOM     30  C   UNL     1     112.259 128.828 139.844  0.00  0.00    +0.000 C 
ATOM     31  C   UNL     1     112.390 129.048 139.060  0.00  0.00    +0.000 C 
BRANCH  27  32
ATOM     32  C   UNL     1     110.345 129.403 138.386  0.00  0.00    +0.000 C 
BRANCH  32  33
ATOM     33  O   UNL     1     110.213 128.978 137.692  0.00  0.00    +0.000 OA
BRANCH  33  40
ATOM     34  O   UNL     1     109.868 130.087 136.860  0.00  0.00    +0.000 OA
ATOM     35  O   UNL     1     109.062 128.061 136.945  0.00  0.00    +0.000 OA
ATOM     36  O   UNL     1     108.142 128.712 135.740  0.00  0.00    +0.000 OA
ATOM     37  O   UNL     1     108.373 130.281 135.282  0.00  0.00    +0.000 OA
ATOM     38  C   UNL     1     109.177 128.845 136.716  0.00  0.00    +0.000 C 
ATOM     39  C   UNL     1     108.717 129.171 136.114  0.00  0.00    +0.000 C 
ATOM     40  C   UNL     1     109.752 129.303 137.089  0.00  0.00    +0.000 C 
ATOM     41  C   UNL     1     108.833 129.954 135.885  0.00  0.00    +0.000 C 
ATOM     42  C   UNL     1     109.408 130.413 136.258  0.00  0.00    +0.000 C 
BRANCH  42  44
ATOM     43  O   UNL     1     110.270 131.543 136.101  0.00  0.00    +0.000 OA
ATOM     44  C   UNL     1     109.524 131.197 136.029  0.00  0.00    +0.000 C 
ENDBRANCH  42  44
ENDBRANCH  33  40
ENDBRANCH  32  33
ENDBRANCH  27  32
ENDBRANCH   1  31
TORSDOF 7
ENDMDL
MODEL 8
REMARK VINA RESULT:     -10.1      2.238      4.901
REMARK  Name = 13988633
REMARK  7 active torsions:
REMARK  status: ('A' for Active; 'I' for Inactive)
REMARK    1  A    between atoms: O_3  and  C_24
REMARK    2  A    between atoms: O_3  and  C_28
REMARK    3  A    between atoms: O_6  and  C_27
REMARK    4  A    between atoms: O_6  and  C_30
REMARK    5  A    between atoms: C_18  and  C_28
REMARK    6  A    between atoms: C_26  and  C_29
REMARK    7  A    between atoms: C_37  and  C_39
REMARK                            x       y       z     vdW  Elec       q    Type
REMARK                         _______ _______ _______ _____ _____    ______ ____
ROOT
ATOM      1  O   UNL     1     113.448 127.582 140.340  0.00  0.00    +0.000 OA
ENDROOT
BRANCH   1   6
ATOM      2  O   UNL     1     113.077 126.595 139.064  0.00  0.00    +0.000 OA
ATOM      3  O   UNL     1     112.369 127.845 141.561  0.00  0.00    +0.000 OA
ATOM      4  O   UNL     1     110.486 126.128 140.266  0.00  0.00    +0.000 OA
ATOM      5  O   UNL     1     110.802 125.484 139.015  0.00  0.00    +0.000 OA
ATOM      6  C   UNL     1     112.707 127.219 140.322  0.00  0.00    +0.000 A 
ATOM      7  C   UNL     1     112.506 126.724 139.693  0.00  0.00    +0.000 A 
ATOM      8  C   UNL     1     112.168 127.350 140.932  0.00  0.00    +0.000 A 
ATOM      9  C   UNL     1     111.766 126.360 139.674  0.00  0.00    +0.000 A 
ATOM     10  C   UNL     1     111.427 126.986 140.914  0.00  0.00    +0.000 A 
ATOM     11  C   UNL     1     111.226 126.492 140.285  0.00  0.00    +0.000 A 
ATOM     12  C   UNL     1     111.545 125.843 139.025  0.00  0.00    +0.000 A 
ATOM     13  C   UNL     1     112.873 126.080 138.405  0.00  0.00    +0.000 A 
ATOM     14  C   UNL     1     112.102 125.702 138.387  0.00  0.00    +0.000 A 
BRANCH  13  17
ATOM     15  O   UNL     1     115.062 124.604 137.310  0.00  0.00    +0.000 OA
ATOM     16  O   UNL     1     115.040 125.566 135.970  0.00  0.00    +0.000 OA
ATOM     17  C   UNL     1     113.415 125.951 137.797  0.00  0.00    +0.000 A 
ATOM     18  C   UNL     1     113.968 125.342 137.858  0.00  0.00    +0.000 A 
ATOM     19  C   UNL     1     113.404 126.432 137.127  0.00  0.00    +0.000 A 
ATOM     20  C   UNL     1     114.509 125.214 137.249  0.00  0.00    +0.000 A 
ATOM     21  C   UNL     1     113.945 126.304 136.518  0.00  0.00    +0.000 A 
ATOM     22  C   UNL     1     114.498 125.695 136.579  0.00  0.00    +0.000 A 
ENDBRANCH  13  17
ENDBRANCH   1   6
BRANCH   1  31
ATOM     23  O   UNL     1     112.954 128.744 139.670  0.00  0.00    +0.000 OA
ATOM     24  O   UNL     1     113.732 130.781 139.584  0.00  0.00    +0.000 OA
ATOM     25  O   UNL     1     114.862 130.057 140.545  0.00  0.00    +0.000 OA
ATOM     26  O   UNL     1     114.719 128.457 140.923  0.00  0.00    +0.000 OA
ATOM     27  C   UNL     1     113.025 129.544 139.481  0.00  0.00    +0.000 C 
ATOM     28  C   UNL     1     113.661 129.982 139.773  0.00  0.00    +0.000 C 
ATOM     29  C   UNL     1     114.225 129.620 140.253  0.00  0.00    +0.000 C 
ATOM     30  C   UNL     1     114.154 128.820 140.442  0.00  0.00    +0.000 C 
ATOM     31  C   UNL     1     113.519 128.382 140.151  0.00  0.00    +0.000 C 
BRANCH  27  32
ATOM     32  C   UNL     1     112.461 129.906 139.002  0.00  0.00    +0.000 C 
BRANCH  32  33
ATOM     33  O   UNL     1     112.317 129.615 138.243  0.00  0.00    +0.000 OA
BRANCH  33  40
ATOM     34  O   UNL     1     110.890 129.644 138.320  0.00  0.00    +0.000 OA
ATOM     35  O   UNL     1     112.241 130.063 136.657  0.00  0.00    +0.000 OA
ATOM     36  O   UNL     1     110.776 130.317 135.941  0.00  0.00    +0.000 OA
ATOM     37  O   UNL     1     109.388 130.122 136.810  0.00  0.00    +0.000 OA
ATOM     38  C   UNL     1     111.546 129.966 137.091  0.00  0.00    +0.000 C 
ATOM     39  C   UNL     1     110.814 130.093 136.734  0.00  0.00    +0.000 C 
ATOM     40  C   UNL     1     111.584 129.742 137.885  0.00  0.00    +0.000 C 
ATOM     41  C   UNL     1     110.120 129.996 137.168  0.00  0.00    +0.000 C 
ATOM     42  C   UNL     1     110.158 129.771 137.961  0.00  0.00    +0.000 C 
BRANCH  42  44
ATOM     43  O   UNL     1     109.320 128.964 138.792  0.00  0.00    +0.000 OA
ATOM     44  C   UNL     1     109.463 129.674 138.396  0.00  0.00    +0.000 C 
ENDBRANCH  42  44
ENDBRANCH  33  40
ENDBRANCH  32  33
ENDBRANCH  27  32
ENDBRANCH   1  31
TORSDOF 7
ENDMDL
MODEL 9
REMARK VINA RESULT:     -10.1      1.294      3.319
REMARK  Name = 13988633
REMARK  7 active torsions:
REMARK  status: ('A' for Active; 'I' for Inactive)
REMARK    1  A    between atoms: O_3  and  C_24
REMARK    2  A    between atoms: O_3  and  C_28
REMARK    3  A    between atoms: O_6  and  C_27
REMARK    4  A    between atoms: O_6  and  C_30
REMARK    5  A    between atoms: C_18  and  C_28
REMARK    6  A    between atoms: C_26  and  C_29
REMARK    7  A    between atoms: C_37  and  C_39
REMARK                            x       y       z     vdW  Elec       q    Type
REMARK                         _______ _______ _______ _____ _____    ______ ____
ROOT
ATOM      1  O   UNL     1     111.979 128.245 135.970  0.00  0.00    +0.000 OA
ENDROOT
BRANCH   1   6
ATOM      2  O   UNL     1     112.268 126.630 136.194  0.00  0.00    +0.000 OA
ATOM      3  O   UNL     1     110.556 128.779 135.328  0.00  0.00    +0.000 OA
ATOM      4  O   UNL     1     109.644 126.080 135.105  0.00  0.00    +0.000 OA
ATOM      5  O   UNL     1     110.470 124.976 135.527  0.00  0.00    +0.000 OA
ATOM      6  C   UNL     1     111.395 127.704 135.754  0.00  0.00    +0.000 A 
ATOM      7  C   UNL     1     111.522 126.896 135.858  0.00  0.00    +0.000 A 
ATOM      8  C   UNL     1     110.684 127.970 135.433  0.00  0.00    +0.000 A 
ATOM      9  C   UNL     1     110.939 126.354 135.642  0.00  0.00    +0.000 A 
ATOM     10  C   UNL     1     110.099 127.430 135.216  0.00  0.00    +0.000 A 
ATOM     11  C   UNL     1     110.227 126.621 135.321  0.00  0.00    +0.000 A 
ATOM     12  C   UNL     1     111.060 125.510 135.746  0.00  0.00    +0.000 A 
ATOM     13  C   UNL     1     112.407 125.789 136.306  0.00  0.00    +0.000 A 
ATOM     14  C   UNL     1     111.798 125.226 136.080  0.00  0.00    +0.000 A 
BRANCH  13  17
ATOM     15  O   UNL     1     115.194 125.224 136.018  0.00  0.00    +0.000 OA
ATOM     16  O   UNL     1     115.257 124.735 137.593  0.00  0.00    +0.000 OA
ATOM     17  C   UNL     1     113.120 125.526 136.627  0.00  0.00    +0.000 A 
ATOM     18  C   UNL     1     113.801 125.506 136.162  0.00  0.00    +0.000 A 
ATOM     19  C   UNL     1     113.151 125.281 137.414  0.00  0.00    +0.000 A 
ATOM     20  C   UNL     1     114.513 125.243 136.484  0.00  0.00    +0.000 A 
ATOM     21  C   UNL     1     113.864 125.018 137.736  0.00  0.00    +0.000 A 
ATOM     22  C   UNL     1     114.545 124.999 137.271  0.00  0.00    +0.000 A 
ENDBRANCH  13  17
ENDBRANCH   1   6
BRANCH   1  31
ATOM     23  O   UNL     1     111.552 128.331 137.332  0.00  0.00    +0.000 OA
ATOM     24  O   UNL     1     111.669 129.975 138.763  0.00  0.00    +0.000 OA
ATOM     25  O   UNL     1     112.368 130.666 137.438  0.00  0.00    +0.000 OA
ATOM     26  O   UNL     1     112.523 129.801 136.042  0.00  0.00    +0.000 OA
ATOM     27  C   UNL     1     111.474 128.764 138.030  0.00  0.00    +0.000 C 
ATOM     28  C   UNL     1     111.747 129.542 138.065  0.00  0.00    +0.000 C 
ATOM     29  C   UNL     1     112.096 129.888 137.403  0.00  0.00    +0.000 C 
ATOM     30  C   UNL     1     112.173 129.455 136.705  0.00  0.00    +0.000 C 
ATOM     31  C   UNL     1     111.901 128.677 136.669  0.00  0.00    +0.000 C 
BRANCH  27  32
ATOM     32  C   UNL     1     111.125 128.418 138.692  0.00  0.00    +0.000 C 
BRANCH  32  33
ATOM     33  O   UNL     1     111.499 127.791 139.076  0.00  0.00    +0.000 OA
BRANCH  33  40
ATOM     34  O   UNL     1     110.336 126.971 139.203  0.00  0.00    +0.000 OA
ATOM     35  O   UNL     1     112.043 127.248 140.536  0.00  0.00    +0.000 OA
ATOM     36  O   UNL     1     111.152 126.156 141.394  0.00  0.00    +0.000 OA
ATOM     37  O   UNL     1     109.717 125.607 140.791  0.00  0.00    +0.000 OA
ATOM     38  C   UNL     1     111.325 126.973 140.235  0.00  0.00    +0.000 C 
ATOM     39  C   UNL     1     110.880 126.427 140.663  0.00  0.00    +0.000 C 
ATOM     40  C   UNL     1     111.053 127.245 139.505  0.00  0.00    +0.000 C 
ATOM     41  C   UNL     1     110.163 126.153 140.363  0.00  0.00    +0.000 C 
ATOM     42  C   UNL     1     109.891 126.425 139.633  0.00  0.00    +0.000 C 
BRANCH  42  44
ATOM     43  O   UNL     1     108.966 126.311 138.549  0.00  0.00    +0.000 OA
ATOM     44  C   UNL     1     109.173 126.150 139.331  0.00  0.00    +0.000 C 
ENDBRANCH  42  44
ENDBRANCH  33  40
ENDBRANCH  32  33
ENDBRANCH  27  32
ENDBRANCH   1  31
TORSDOF 7
ENDMDL
MODEL 10
REMARK VINA RESULT:     -10.1      1.860      3.448
REMARK  Name = 13988633
REMARK  7 active torsions:
REMARK  status: ('A' for Active; 'I' for Inactive)
REMARK    1  A    between atoms: O_3  and  C_24
REMARK    2  A    between atoms: O_3  and  C_28
REMARK    3  A    between atoms: O_6  and  C_27
REMARK    4  A    between atoms: O_6  and  C_30
REMARK    5  A    between atoms: C_18  and  C_28
REMARK    6  A    between atoms: C_26  and  C_29
REMARK    7  A    between atoms: C_37  and  C_39
REMARK                            x       y       z     vdW  Elec       q    Type
REMARK                         _______ _______ _______ _____ _____    ______ ____
ROOT
ATOM      1  O   UNL     1     112.424 128.619 137.799  0.00  0.00    +0.000 OA
ENDROOT
BRANCH   1   6
ATOM      2  O   UNL     1     113.095 127.159 138.197  0.00  0.00    +0.000 OA
ATOM      3  O   UNL     1     112.400 129.871 138.874  0.00  0.00    +0.000 OA
ATOM      4  O   UNL     1     113.727 128.237 140.807  0.00  0.00    +0.000 OA
ATOM      5  O   UNL     1     114.092 126.874 140.508  0.00  0.00    +0.000 OA
ATOM      6  C   UNL     1     112.750 128.524 138.552  0.00  0.00    +0.000 A 
ATOM      7  C   UNL     1     113.088 127.803 138.766  0.00  0.00    +0.000 A 
ATOM      8  C   UNL     1     112.738 129.149 139.089  0.00  0.00    +0.000 A 
ATOM      9  C   UNL     1     113.414 127.707 139.518  0.00  0.00    +0.000 A 
ATOM     10  C   UNL     1     113.063 129.054 139.841  0.00  0.00    +0.000 A 
ATOM     11  C   UNL     1     113.401 128.333 140.056  0.00  0.00    +0.000 A 
ATOM     12  C   UNL     1     113.769 126.960 139.753  0.00  0.00    +0.000 A 
ATOM     13  C   UNL     1     113.445 126.404 138.414  0.00  0.00    +0.000 A 
ATOM     14  C   UNL     1     113.785 126.306 139.198  0.00  0.00    +0.000 A 
BRANCH  13  17
ATOM     15  O   UNL     1     112.130 124.212 137.137  0.00  0.00    +0.000 OA
ATOM     16  O   UNL     1     113.490 123.911 136.254  0.00  0.00    +0.000 OA
ATOM     17  C   UNL     1     113.456 125.781 137.875  0.00  0.00    +0.000 A 
ATOM     18  C   UNL     1     112.787 125.308 137.776  0.00  0.00    +0.000 A 
ATOM     19  C   UNL     1     114.136 125.630 137.433  0.00  0.00    +0.000 A 
ATOM     20  C   UNL     1     112.799 124.685 137.236  0.00  0.00    +0.000 A 
ATOM     21  C   UNL     1     114.148 125.007 136.893  0.00  0.00    +0.000 A 
ATOM     22  C   UNL     1     113.479 124.534 136.794  0.00  0.00    +0.000 A 
ENDBRANCH  13  17
ENDBRANCH   1   6
BRANCH   1  31
ATOM     23  O   UNL     1     111.131 128.276 138.304  0.00  0.00    +0.000 OA
ATOM     24  O   UNL     1     109.159 128.395 137.377  0.00  0.00    +0.000 OA
ATOM     25  O   UNL     1     110.112 128.969 136.157  0.00  0.00    +0.000 OA
ATOM     26  O   UNL     1     111.744 129.081 136.369  0.00  0.00    +0.000 OA
ATOM     27  C   UNL     1     110.315 128.220 138.198  0.00  0.00    +0.000 C 
ATOM     28  C   UNL     1     109.976 128.451 137.482  0.00  0.00    +0.000 C 
ATOM     29  C   UNL     1     110.451 128.738 136.873  0.00  0.00    +0.000 C 
ATOM     30  C   UNL     1     111.267 128.794 136.979  0.00  0.00    +0.000 C 
ATOM     31  C   UNL     1     111.608 128.563 137.694  0.00  0.00    +0.000 C 
BRANCH  27  32
ATOM     32  C   UNL     1     109.840 127.934 138.808  0.00  0.00    +0.000 C 
BRANCH  32  33
ATOM     33  O   UNL     1     109.959 127.172 139.100  0.00  0.00    +0.000 OA
BRANCH  33  40
ATOM     34  O   UNL     1     109.192 127.497 140.261  0.00  0.00    +0.000 OA
ATOM     35  O   UNL     1     110.155 125.633 139.661  0.00  0.00    +0.000 OA
ATOM     36  O   UNL     1     109.486 125.188 141.103  0.00  0.00    +0.000 OA
ATOM     37  O   UNL     1     108.621 126.283 141.983  0.00  0.00    +0.000 OA
ATOM     38  C   UNL     1     109.722 126.180 140.102  0.00  0.00    +0.000 C 
ATOM     39  C   UNL     1     109.388 125.958 140.822  0.00  0.00    +0.000 C 
ATOM     40  C   UNL     1     109.624 126.949 139.822  0.00  0.00    +0.000 C 
ATOM     41  C   UNL     1     108.956 126.505 141.262  0.00  0.00    +0.000 C 
ATOM     42  C   UNL     1     108.858 127.275 140.982  0.00  0.00    +0.000 C 
BRANCH  42  44
ATOM     43  O   UNL     1     107.862 128.298 141.051  0.00  0.00    +0.000 OA
ATOM     44  C   UNL     1     108.425 127.823 141.422  0.00  0.00    +0.000 C 
ENDBRANCH  42  44
ENDBRANCH  33  40
ENDBRANCH  32  33
ENDBRANCH  27  32
ENDBRANCH   1  31
TORSDOF 7
ENDMDL
