MODEL 1
REMARK VINA RESULT:     -10.0      0.000      0.000
REMARK  Name = 14135335
REMARK  4 active torsions:
REMARK  status: ('A' for Active; 'I' for Inactive)
REMARK    1  A    between atoms: O_2  and  C_15
REMARK    2  A    between atoms: O_2  and  C_17
REMARK    3  A    between atoms: C_14  and  C_16
REMARK    4  A    between atoms: C_24  and  C_26
REMARK                            x       y       z     vdW  Elec       q    Type
REMARK                         _______ _______ _______ _____ _____    ______ ____
ROOT
ATOM      1  O   UNL     1     112.435 126.416 136.303  0.00  0.00    +0.000 OA
ATOM      2  O   UNL     1     109.911 125.533 135.207  0.00  0.00    +0.000 OA
ATOM      3  O   UNL     1     110.865 124.588 135.736  0.00  0.00    +0.000 OA
ATOM      4  C   UNL     1     110.757 127.597 135.416  0.00  0.00    +0.000 A 
ATOM      5  C   UNL     1     111.511 127.409 135.784  0.00  0.00    +0.000 A 
ATOM      6  C   UNL     1     110.213 126.962 135.219  0.00  0.00    +0.000 A 
ATOM      7  C   UNL     1     111.710 126.590 135.950  0.00  0.00    +0.000 A 
ATOM      8  C   UNL     1     111.186 125.981 135.761  0.00  0.00    +0.000 A 
ATOM      9  C   UNL     1     110.428 126.149 135.393  0.00  0.00    +0.000 A 
ATOM     10  C   UNL     1     111.388 125.198 135.925  0.00  0.00    +0.000 A 
ATOM     11  C   UNL     1     112.636 125.633 136.467  0.00  0.00    +0.000 A 
ATOM     12  C   UNL     1     112.113 125.024 136.278  0.00  0.00    +0.000 A 
ENDROOT
BRANCH  11  13
ATOM     13  C   UNL     1     113.362 125.459 136.820  0.00  0.00    +0.000 A 
ATOM     14  C   UNL     1     113.461 125.565 137.632  0.00  0.00    +0.000 A 
ATOM     15  C   UNL     1     113.987 125.178 136.360  0.00  0.00    +0.000 A 
ATOM     16  C   UNL     1     114.186 125.391 137.984  0.00  0.00    +0.000 A 
ATOM     17  C   UNL     1     114.712 125.004 136.713  0.00  0.00    +0.000 A 
ATOM     18  C   UNL     1     114.812 125.110 137.525  0.00  0.00    +0.000 A 
ENDBRANCH  11  13
BRANCH   4  19
ATOM     19  O   UNL     1     110.558 128.381 135.253  0.00  0.00    +0.000 OA
BRANCH  19  28
ATOM     20  O   UNL     1     110.134 128.740 136.570  0.00  0.00    +0.000 OA
ATOM     21  O   UNL     1     108.303 130.100 135.609  0.00  0.00    +0.000 OA
ATOM     22  O   UNL     1     109.337 129.287 134.613  0.00  0.00    +0.000 OA
ATOM     23  O   UNL     1     108.490 130.006 137.245  0.00  0.00    +0.000 OA
ATOM     24  C   UNL     1     108.914 129.647 135.929  0.00  0.00    +0.000 C 
ATOM     25  C   UNL     1     109.431 129.240 135.431  0.00  0.00    +0.000 C 
ATOM     26  C   UNL     1     109.008 129.599 136.747  0.00  0.00    +0.000 C 
ATOM     27  C   UNL     1     109.618 129.146 137.067  0.00  0.00    +0.000 C 
ATOM     28  C   UNL     1     110.042 128.787 135.751  0.00  0.00    +0.000 C 
BRANCH  27  31
ATOM     29  O   UNL     1     109.282 128.544 138.319  0.00  0.00    +0.000 OA
ATOM     30  O   UNL     1     110.234 129.608 138.270  0.00  0.00    +0.000 OA
ATOM     31  C   UNL     1     109.711 129.099 137.885  0.00  0.00    +0.000 C 
ENDBRANCH  27  31
ENDBRANCH  19  28
ENDBRANCH   4  19
TORSDOF 4
ENDMDL
MODEL 2
REMARK VINA RESULT:      -9.5      1.205      2.026
REMARK  Name = 14135335
REMARK  4 active torsions:
REMARK  status: ('A' for Active; 'I' for Inactive)
REMARK    1  A    between atoms: O_2  and  C_15
REMARK    2  A    between atoms: O_2  and  C_17
REMARK    3  A    between atoms: C_14  and  C_16
REMARK    4  A    between atoms: C_24  and  C_26
REMARK                            x       y       z     vdW  Elec       q    Type
REMARK                         _______ _______ _______ _____ _____    ______ ____
ROOT
ATOM      1  O   UNL     1     112.740 126.958 136.345  0.00  0.00    +0.000 OA
ATOM      2  O   UNL     1     113.037 129.602 135.220  0.00  0.00    +0.000 OA
ATOM      3  O   UNL     1     114.178 128.872 135.716  0.00  0.00    +0.000 OA
ATOM      4  C   UNL     1     111.205 128.344 135.499  0.00  0.00    +0.000 A 
ATOM      5  C   UNL     1     111.559 127.649 135.860  0.00  0.00    +0.000 A 
ATOM      6  C   UNL     1     111.704 129.008 135.281  0.00  0.00    +0.000 A 
ATOM      7  C   UNL     1     112.406 127.628 135.998  0.00  0.00    +0.000 A 
ATOM      8  C   UNL     1     112.885 128.266 135.788  0.00  0.00    +0.000 A 
ATOM      9  C   UNL     1     112.550 128.969 135.426  0.00  0.00    +0.000 A 
ATOM     10  C   UNL     1     113.698 128.234 135.925  0.00  0.00    +0.000 A 
ATOM     11  C   UNL     1     113.553 126.926 136.483  0.00  0.00    +0.000 A 
ATOM     12  C   UNL     1     114.032 127.564 136.273  0.00  0.00    +0.000 A 
ENDROOT
BRANCH  11  13
ATOM     13  C   UNL     1     113.887 126.256 136.830  0.00  0.00    +0.000 A 
ATOM     14  C   UNL     1     114.276 125.699 136.362  0.00  0.00    +0.000 A 
ATOM     15  C   UNL     1     113.832 126.144 137.646  0.00  0.00    +0.000 A 
ATOM     16  C   UNL     1     114.609 125.030 136.709  0.00  0.00    +0.000 A 
ATOM     17  C   UNL     1     114.166 125.475 137.993  0.00  0.00    +0.000 A 
ATOM     18  C   UNL     1     114.555 124.917 137.525  0.00  0.00    +0.000 A 
ENDBRANCH  11  13
BRANCH   4  19
ATOM     19  O   UNL     1     110.391 128.373 135.363  0.00  0.00    +0.000 OA
BRANCH  19  28
ATOM     20  O   UNL     1     110.031 128.834 136.667  0.00  0.00    +0.000 OA
ATOM     21  O   UNL     1     108.209 130.191 135.684  0.00  0.00    +0.000 OA
ATOM     22  O   UNL     1     109.177 129.278 134.708  0.00  0.00    +0.000 OA
ATOM     23  O   UNL     1     108.456 130.199 137.314  0.00  0.00    +0.000 OA
ATOM     24  C   UNL     1     108.816 129.739 136.011  0.00  0.00    +0.000 C 
ATOM     25  C   UNL     1     109.301 129.282 135.523  0.00  0.00    +0.000 C 
ATOM     26  C   UNL     1     108.941 129.742 136.827  0.00  0.00    +0.000 C 
ATOM     27  C   UNL     1     109.548 129.290 137.154  0.00  0.00    +0.000 C 
ATOM     28  C   UNL     1     109.908 128.829 135.851  0.00  0.00    +0.000 C 
BRANCH  27  31
ATOM     29  O   UNL     1     110.162 129.864 138.310  0.00  0.00    +0.000 OA
ATOM     30  O   UNL     1     109.304 128.730 138.445  0.00  0.00    +0.000 OA
ATOM     31  C   UNL     1     109.671 129.295 137.970  0.00  0.00    +0.000 C 
ENDBRANCH  27  31
ENDBRANCH  19  28
ENDBRANCH   4  19
TORSDOF 4
ENDMDL
MODEL 3
REMARK VINA RESULT:      -9.4      1.467      2.457
REMARK  Name = 14135335
REMARK  4 active torsions:
REMARK  status: ('A' for Active; 'I' for Inactive)
REMARK    1  A    between atoms: O_2  and  C_15
REMARK    2  A    between atoms: O_2  and  C_17
REMARK    3  A    between atoms: C_14  and  C_16
REMARK    4  A    between atoms: C_24  and  C_26
REMARK                            x       y       z     vdW  Elec       q    Type
REMARK                         _______ _______ _______ _____ _____    ______ ____
ROOT
ATOM      1  O   UNL     1     112.746 126.996 137.107  0.00  0.00    +0.000 OA
ATOM      2  O   UNL     1     113.133 129.561 135.834  0.00  0.00    +0.000 OA
ATOM      3  O   UNL     1     114.069 128.482 135.634  0.00  0.00    +0.000 OA
ATOM      4  C   UNL     1     111.507 128.854 137.203  0.00  0.00    +0.000 A 
ATOM      5  C   UNL     1     111.774 128.048 137.343  0.00  0.00    +0.000 A 
ATOM      6  C   UNL     1     111.966 129.369 136.692  0.00  0.00    +0.000 A 
ATOM      7  C   UNL     1     112.495 127.770 136.969  0.00  0.00    +0.000 A 
ATOM      8  C   UNL     1     112.936 128.265 136.478  0.00  0.00    +0.000 A 
ATOM      9  C   UNL     1     112.686 129.073 136.327  0.00  0.00    +0.000 A 
ATOM     10  C   UNL     1     113.628 127.987 136.125  0.00  0.00    +0.000 A 
ATOM     11  C   UNL     1     113.438 126.718 136.754  0.00  0.00    +0.000 A 
ATOM     12  C   UNL     1     113.879 127.213 136.263  0.00  0.00    +0.000 A 
ENDROOT
BRANCH  11  13
ATOM     13  C   UNL     1     113.689 125.944 136.892  0.00  0.00    +0.000 A 
ATOM     14  C   UNL     1     113.346 125.319 136.476  0.00  0.00    +0.000 A 
ATOM     15  C   UNL     1     114.283 125.796 137.445  0.00  0.00    +0.000 A 
ATOM     16  C   UNL     1     113.597 124.546 136.614  0.00  0.00    +0.000 A 
ATOM     17  C   UNL     1     114.534 125.022 137.583  0.00  0.00    +0.000 A 
ATOM     18  C   UNL     1     114.191 124.397 137.167  0.00  0.00    +0.000 A 
ENDBRANCH  11  13
BRANCH   4  19
ATOM     19  O   UNL     1     110.815 129.129 137.558  0.00  0.00    +0.000 OA
BRANCH  19  28
ATOM     20  O   UNL     1     109.883 128.497 136.678  0.00  0.00    +0.000 OA
ATOM     21  O   UNL     1     108.456 130.519 136.737  0.00  0.00    +0.000 OA
ATOM     22  O   UNL     1     109.863 130.477 137.597  0.00  0.00    +0.000 OA
ATOM     23  O   UNL     1     108.000 129.213 135.838  0.00  0.00    +0.000 OA
ATOM     24  C   UNL     1     108.932 129.845 136.717  0.00  0.00    +0.000 C 
ATOM     25  C   UNL     1     109.636 129.824 137.148  0.00  0.00    +0.000 C 
ATOM     26  C   UNL     1     108.704 129.192 136.268  0.00  0.00    +0.000 C 
ATOM     27  C   UNL     1     109.180 128.518 136.248  0.00  0.00    +0.000 C 
ATOM     28  C   UNL     1     110.112 129.150 137.128  0.00  0.00    +0.000 C 
BRANCH  27  31
ATOM     29  O   UNL     1     108.465 127.287 136.127  0.00  0.00    +0.000 OA
ATOM     30  O   UNL     1     109.211 127.792 135.019  0.00  0.00    +0.000 OA
ATOM     31  C   UNL     1     108.952 127.866 135.798  0.00  0.00    +0.000 C 
ENDBRANCH  27  31
ENDBRANCH  19  28
ENDBRANCH   4  19
TORSDOF 4
ENDMDL
MODEL 4
REMARK VINA RESULT:      -9.3      7.159     10.165
REMARK  Name = 14135335
REMARK  4 active torsions:
REMARK  status: ('A' for Active; 'I' for Inactive)
REMARK    1  A    between atoms: O_2  and  C_15
REMARK    2  A    between atoms: O_2  and  C_17
REMARK    3  A    between atoms: C_14  and  C_16
REMARK    4  A    between atoms: C_24  and  C_26
REMARK                            x       y       z     vdW  Elec       q    Type
REMARK                         _______ _______ _______ _____ _____    ______ ____
ROOT
ATOM      1  O   UNL     1     103.144 130.266 141.990  0.00  0.00    +0.000 OA
ATOM      2  O   UNL     1     103.685 128.015 140.263  0.00  0.00    +0.000 OA
ATOM      3  O   UNL     1     102.748 129.041 139.876  0.00  0.00    +0.000 OA
ATOM      4  C   UNL     1     104.517 128.526 142.279  0.00  0.00    +0.000 A 
ATOM      5  C   UNL     1     104.097 129.261 142.428  0.00  0.00    +0.000 A 
ATOM      6  C   UNL     1     104.379 128.101 141.545  0.00  0.00    +0.000 A 
ATOM      7  C   UNL     1     103.545 129.560 141.842  0.00  0.00    +0.000 A 
ATOM      8  C   UNL     1     103.413 129.152 141.137  0.00  0.00    +0.000 A 
ATOM      9  C   UNL     1     103.824 128.416 140.970  0.00  0.00    +0.000 A 
ATOM     10  C   UNL     1     102.880 129.449 140.581  0.00  0.00    +0.000 A 
ATOM     11  C   UNL     1     102.611 130.563 141.435  0.00  0.00    +0.000 A 
ATOM     12  C   UNL     1     102.480 130.154 140.730  0.00  0.00    +0.000 A 
ENDROOT
BRANCH  11  13
ATOM     13  C   UNL     1     102.211 131.269 141.584  0.00  0.00    +0.000 A 
ATOM     14  C   UNL     1     102.568 131.991 141.408  0.00  0.00    +0.000 A 
ATOM     15  C   UNL     1     101.452 131.251 141.909  0.00  0.00    +0.000 A 
ATOM     16  C   UNL     1     102.167 132.696 141.557  0.00  0.00    +0.000 A 
ATOM     17  C   UNL     1     101.051 131.957 142.058  0.00  0.00    +0.000 A 
ATOM     18  C   UNL     1     101.409 132.679 141.882  0.00  0.00    +0.000 A 
ENDBRANCH  11  13
BRANCH   4  19
ATOM     19  O   UNL     1     105.049 128.231 142.836  0.00  0.00    +0.000 OA
BRANCH  19  28
ATOM     20  O   UNL     1     106.201 128.872 142.284  0.00  0.00    +0.000 OA
ATOM     21  O   UNL     1     107.599 126.947 142.969  0.00  0.00    +0.000 OA
ATOM     22  O   UNL     1     105.981 126.948 143.292  0.00  0.00    +0.000 OA
ATOM     23  O   UNL     1     108.284 128.229 142.189  0.00  0.00    +0.000 OA
ATOM     24  C   UNL     1     107.133 127.589 142.740  0.00  0.00    +0.000 C 
ATOM     25  C   UNL     1     106.324 127.589 142.902  0.00  0.00    +0.000 C 
ATOM     26  C   UNL     1     107.476 128.230 142.351  0.00  0.00    +0.000 C 
ATOM     27  C   UNL     1     107.010 128.871 142.122  0.00  0.00    +0.000 C 
ATOM     28  C   UNL     1     105.858 128.231 142.674  0.00  0.00    +0.000 C 
BRANCH  27  31
ATOM     29  O   UNL     1     107.624 130.161 142.164  0.00  0.00    +0.000 OA
ATOM     30  O   UNL     1     107.425 129.504 140.911  0.00  0.00    +0.000 OA
ATOM     31  C   UNL     1     107.353 129.512 141.733  0.00  0.00    +0.000 C 
ENDBRANCH  27  31
ENDBRANCH  19  28
ENDBRANCH   4  19
TORSDOF 4
ENDMDL
MODEL 5
REMARK VINA RESULT:      -9.2     12.187     14.373
REMARK  Name = 14135335
REMARK  4 active torsions:
REMARK  status: ('A' for Active; 'I' for Inactive)
REMARK    1  A    between atoms: O_2  and  C_15
REMARK    2  A    between atoms: O_2  and  C_17
REMARK    3  A    between atoms: C_14  and  C_16
REMARK    4  A    between atoms: C_24  and  C_26
REMARK                            x       y       z     vdW  Elec       q    Type
REMARK                         _______ _______ _______ _____ _____    ______ ____
ROOT
ATOM      1  O   UNL     1     103.086 124.085 147.915  0.00  0.00    +0.000 OA
ATOM      2  O   UNL     1     103.690 126.655 149.089  0.00  0.00    +0.000 OA
ATOM      3  O   UNL     1     102.398 126.388 148.507  0.00  0.00    +0.000 OA
ATOM      4  C   UNL     1     104.960 124.820 148.888  0.00  0.00    +0.000 A 
ATOM      5  C   UNL     1     104.403 124.301 148.488  0.00  0.00    +0.000 A 
ATOM      6  C   UNL     1     104.720 125.619 149.093  0.00  0.00    +0.000 A 
ATOM      7  C   UNL     1     103.616 124.588 148.299  0.00  0.00    +0.000 A 
ATOM      8  C   UNL     1     103.387 125.356 148.496  0.00  0.00    +0.000 A 
ATOM      9  C   UNL     1     103.929 125.889 148.896  0.00  0.00    +0.000 A 
ATOM     10  C   UNL     1     102.628 125.620 148.310  0.00  0.00    +0.000 A 
ATOM     11  C   UNL     1     102.327 124.350 147.729  0.00  0.00    +0.000 A 
ATOM     12  C   UNL     1     102.098 125.117 147.926  0.00  0.00    +0.000 A 
ENDROOT
BRANCH  11  13
ATOM     13  C   UNL     1     101.798 123.847 147.345  0.00  0.00    +0.000 A 
ATOM     14  C   UNL     1     101.740 123.859 146.522  0.00  0.00    +0.000 A 
ATOM     15  C   UNL     1     101.326 123.332 147.785  0.00  0.00    +0.000 A 
ATOM     16  C   UNL     1     101.210 123.356 146.139  0.00  0.00    +0.000 A 
ATOM     17  C   UNL     1     100.796 122.829 147.401  0.00  0.00    +0.000 A 
ATOM     18  C   UNL     1     100.738 122.841 146.579  0.00  0.00    +0.000 A 
ENDBRANCH  11  13
BRANCH   4  19
ATOM     19  O   UNL     1     105.718 124.553 149.073  0.00  0.00    +0.000 OA
BRANCH  19  28
ATOM     20  O   UNL     1     106.208 124.995 147.805  0.00  0.00    +0.000 OA
ATOM     21  O   UNL     1     108.533 124.717 148.607  0.00  0.00    +0.000 OA
ATOM     22  O   UNL     1     107.268 124.368 149.608  0.00  0.00    +0.000 OA
ATOM     23  O   UNL     1     108.248 125.251 147.073  0.00  0.00    +0.000 OA
ATOM     24  C   UNL     1     107.758 124.810 148.340  0.00  0.00    +0.000 C 
ATOM     25  C   UNL     1     107.125 124.635 148.840  0.00  0.00    +0.000 C 
ATOM     26  C   UNL     1     107.615 125.077 147.573  0.00  0.00    +0.000 C 
ATOM     27  C   UNL     1     106.840 125.169 147.305  0.00  0.00    +0.000 C 
ATOM     28  C   UNL     1     106.350 124.727 148.573  0.00  0.00    +0.000 C 
BRANCH  27  31
ATOM     29  O   UNL     1     106.610 124.895 145.922  0.00  0.00    +0.000 OA
ATOM     30  O   UNL     1     106.643 126.245 146.387  0.00  0.00    +0.000 OA
ATOM     31  C   UNL     1     106.698 125.436 146.538  0.00  0.00    +0.000 C 
ENDBRANCH  27  31
ENDBRANCH  19  28
ENDBRANCH   4  19
TORSDOF 4
ENDMDL
MODEL 6
REMARK VINA RESULT:      -9.1      8.426     10.356
REMARK  Name = 14135335
REMARK  4 active torsions:
REMARK  status: ('A' for Active; 'I' for Inactive)
REMARK    1  A    between atoms: O_2  and  C_15
REMARK    2  A    between atoms: O_2  and  C_17
REMARK    3  A    between atoms: C_14  and  C_16
REMARK    4  A    between atoms: C_24  and  C_26
REMARK                            x       y       z     vdW  Elec       q    Type
REMARK                         _______ _______ _______ _____ _____    ______ ____
ROOT
ATOM      1  O   UNL     1     106.616 125.661 146.338  0.00  0.00    +0.000 OA
ATOM      2  O   UNL     1     105.957 128.315 145.405  0.00  0.00    +0.000 OA
ATOM      3  O   UNL     1     106.533 128.107 146.711  0.00  0.00    +0.000 OA
ATOM      4  C   UNL     1     105.726 126.326 144.399  0.00  0.00    +0.000 A 
ATOM      5  C   UNL     1     106.039 125.814 145.014  0.00  0.00    +0.000 A 
ATOM      6  C   UNL     1     105.697 127.175 144.528  0.00  0.00    +0.000 A 
ATOM      7  C   UNL     1     106.318 126.158 145.751  0.00  0.00    +0.000 A 
ATOM      8  C   UNL     1     106.290 126.973 145.875  0.00  0.00    +0.000 A 
ATOM      9  C   UNL     1     105.981 127.501 145.271  0.00  0.00    +0.000 A 
ATOM     10  C   UNL     1     106.560 127.292 146.586  0.00  0.00    +0.000 A 
ATOM     11  C   UNL     1     106.887 125.980 147.049  0.00  0.00    +0.000 A 
ATOM     12  C   UNL     1     106.859 126.795 147.173  0.00  0.00    +0.000 A 
ENDROOT
BRANCH  11  13
ATOM     13  C   UNL     1     107.186 125.483 147.636  0.00  0.00    +0.000 A 
ATOM     14  C   UNL     1     107.993 125.315 147.663  0.00  0.00    +0.000 A 
ATOM     15  C   UNL     1     106.677 125.156 148.197  0.00  0.00    +0.000 A 
ATOM     16  C   UNL     1     108.291 124.818 148.250  0.00  0.00    +0.000 A 
ATOM     17  C   UNL     1     106.975 124.659 148.785  0.00  0.00    +0.000 A 
ATOM     18  C   UNL     1     107.783 124.490 148.811  0.00  0.00    +0.000 A 
ENDBRANCH  11  13
BRANCH   4  19
ATOM     19  O   UNL     1     105.456 126.005 143.688  0.00  0.00    +0.000 OA
BRANCH  19  28
ATOM     20  O   UNL     1     106.547 126.400 142.853  0.00  0.00    +0.000 OA
ATOM     21  O   UNL     1     106.480 124.198 141.725  0.00  0.00    +0.000 OA
ATOM     22  O   UNL     1     105.411 124.537 142.936  0.00  0.00    +0.000 OA
ATOM     23  O   UNL     1     107.592 125.326 141.267  0.00  0.00    +0.000 OA
ATOM     24  C   UNL     1     106.502 124.932 142.101  0.00  0.00    +0.000 C 
ATOM     25  C   UNL     1     105.968 125.102 142.707  0.00  0.00    +0.000 C 
ATOM     26  C   UNL     1     107.058 125.496 141.873  0.00  0.00    +0.000 C 
ATOM     27  C   UNL     1     107.080 126.230 142.249  0.00  0.00    +0.000 C 
ATOM     28  C   UNL     1     105.990 125.836 143.083  0.00  0.00    +0.000 C 
BRANCH  27  31
ATOM     29  O   UNL     1     107.448 127.347 141.437  0.00  0.00    +0.000 OA
ATOM     30  O   UNL     1     108.382 126.805 142.372  0.00  0.00    +0.000 OA
ATOM     31  C   UNL     1     107.637 126.794 142.019  0.00  0.00    +0.000 C 
ENDBRANCH  27  31
ENDBRANCH  19  28
ENDBRANCH   4  19
TORSDOF 4
ENDMDL
MODEL 7
REMARK VINA RESULT:      -9.1      3.493      4.779
REMARK  Name = 14135335
REMARK  4 active torsions:
REMARK  status: ('A' for Active; 'I' for Inactive)
REMARK    1  A    between atoms: O_2  and  C_15
REMARK    2  A    between atoms: O_2  and  C_17
REMARK    3  A    between atoms: C_14  and  C_16
REMARK    4  A    between atoms: C_24  and  C_26
REMARK                            x       y       z     vdW  Elec       q    Type
REMARK                         _______ _______ _______ _____ _____    ______ ____
ROOT
ATOM      1  O   UNL     1     113.554 126.312 138.811  0.00  0.00    +0.000 OA
ATOM      2  O   UNL     1     110.827 126.455 139.755  0.00  0.00    +0.000 OA
ATOM      3  O   UNL     1     111.150 125.803 138.510  0.00  0.00    +0.000 OA
ATOM      4  C   UNL     1     112.719 127.236 140.667  0.00  0.00    +0.000 A 
ATOM      5  C   UNL     1     113.284 126.981 140.071  0.00  0.00    +0.000 A 
ATOM      6  C   UNL     1     111.885 127.058 140.563  0.00  0.00    +0.000 A 
ATOM      7  C   UNL     1     113.007 126.554 139.379  0.00  0.00    +0.000 A 
ATOM      8  C   UNL     1     112.206 126.384 139.280  0.00  0.00    +0.000 A 
ATOM      9  C   UNL     1     111.626 126.630 139.864  0.00  0.00    +0.000 A 
ATOM     10  C   UNL     1     111.952 125.973 138.611  0.00  0.00    +0.000 A 
ATOM     11  C   UNL     1     113.300 125.901 138.142  0.00  0.00    +0.000 A 
ATOM     12  C   UNL     1     112.498 125.731 138.042  0.00  0.00    +0.000 A 
ENDROOT
BRANCH  11  13
ATOM     13  C   UNL     1     113.847 125.660 137.574  0.00  0.00    +0.000 A 
ATOM     14  C   UNL     1     114.276 124.964 137.684  0.00  0.00    +0.000 A 
ATOM     15  C   UNL     1     113.963 126.115 136.895  0.00  0.00    +0.000 A 
ATOM     16  C   UNL     1     114.822 124.723 137.115  0.00  0.00    +0.000 A 
ATOM     17  C   UNL     1     114.510 125.874 136.326  0.00  0.00    +0.000 A 
ATOM     18  C   UNL     1     114.940 125.178 136.436  0.00  0.00    +0.000 A 
ENDBRANCH  11  13
BRANCH   4  19
ATOM     19  O   UNL     1     112.976 127.647 141.335  0.00  0.00    +0.000 OA
BRANCH  19  28
ATOM     20  O   UNL     1     113.250 128.921 140.750  0.00  0.00    +0.000 OA
ATOM     21  O   UNL     1     112.110 130.035 142.643  0.00  0.00    +0.000 OA
ATOM     22  O   UNL     1     112.215 128.389 142.597  0.00  0.00    +0.000 OA
ATOM     23  O   UNL     1     112.765 130.938 141.428  0.00  0.00    +0.000 OA
ATOM     24  C   UNL     1     112.490 129.664 142.012  0.00  0.00    +0.000 C 
ATOM     25  C   UNL     1     112.543 128.840 141.989  0.00  0.00    +0.000 C 
ATOM     26  C   UNL     1     112.818 130.115 141.404  0.00  0.00    +0.000 C 
ATOM     27  C   UNL     1     113.198 129.744 140.773  0.00  0.00    +0.000 C 
ATOM     28  C   UNL     1     112.923 128.469 141.358  0.00  0.00    +0.000 C 
BRANCH  27  31
ATOM     29  O   UNL     1     114.332 130.366 140.167  0.00  0.00    +0.000 OA
ATOM     30  O   UNL     1     113.045 130.476 139.557  0.00  0.00    +0.000 OA
ATOM     31  C   UNL     1     113.525 130.195 140.166  0.00  0.00    +0.000 C 
ENDBRANCH  27  31
ENDBRANCH  19  28
ENDBRANCH   4  19
TORSDOF 4
ENDMDL
MODEL 8
REMARK VINA RESULT:      -9.1      1.295      2.182
REMARK  Name = 14135335
REMARK  4 active torsions:
REMARK  status: ('A' for Active; 'I' for Inactive)
REMARK    1  A    between atoms: O_2  and  C_15
REMARK    2  A    between atoms: O_2  and  C_17
REMARK    3  A    between atoms: C_14  and  C_16
REMARK    4  A    between atoms: C_24  and  C_26
REMARK                            x       y       z     vdW  Elec       q    Type
REMARK                         _______ _______ _______ _____ _____    ______ ____
ROOT
ATOM      1  O   UNL     1     111.015 125.885 136.757  0.00  0.00    +0.000 OA
ATOM      2  O   UNL     1     108.917 126.543 134.883  0.00  0.00    +0.000 OA
ATOM      3  O   UNL     1     109.849 125.476 134.612  0.00  0.00    +0.000 OA
ATOM      4  C   UNL     1     109.426 127.454 136.865  0.00  0.00    +0.000 A 
ATOM      5  C   UNL     1     110.103 126.969 137.079  0.00  0.00    +0.000 A 
ATOM      6  C   UNL     1     109.022 127.312 136.120  0.00  0.00    +0.000 A 
ATOM      7  C   UNL     1     110.365 126.348 136.546  0.00  0.00    +0.000 A 
ATOM      8  C   UNL     1     109.976 126.212 135.831  0.00  0.00    +0.000 A 
ATOM      9  C   UNL     1     109.299 126.686 135.600  0.00  0.00    +0.000 A 
ATOM     10  C   UNL     1     110.237 125.613 135.328  0.00  0.00    +0.000 A 
ATOM     11  C   UNL     1     111.276 125.286 136.254  0.00  0.00    +0.000 A 
ATOM     12  C   UNL     1     110.887 125.150 135.539  0.00  0.00    +0.000 A 
ENDROOT
BRANCH  11  13
ATOM     13  C   UNL     1     111.925 124.824 136.465  0.00  0.00    +0.000 A 
ATOM     14  C   UNL     1     112.691 125.109 136.347  0.00  0.00    +0.000 A 
ATOM     15  C   UNL     1     111.809 124.076 136.794  0.00  0.00    +0.000 A 
ATOM     16  C   UNL     1     113.339 124.646 136.558  0.00  0.00    +0.000 A 
ATOM     17  C   UNL     1     112.459 123.613 137.005  0.00  0.00    +0.000 A 
ATOM     18  C   UNL     1     113.224 123.898 136.887  0.00  0.00    +0.000 A 
ENDBRANCH  11  13
BRANCH   4  19
ATOM     19  O   UNL     1     109.167 128.052 137.370  0.00  0.00    +0.000 OA
BRANCH  19  28
ATOM     20  O   UNL     1     109.880 129.109 136.725  0.00  0.00    +0.000 OA
ATOM     21  O   UNL     1     110.224 130.213 138.914  0.00  0.00    +0.000 OA
ATOM     22  O   UNL     1     109.396 128.788 138.829  0.00  0.00    +0.000 OA
ATOM     23  O   UNL     1     110.823 130.901 137.540  0.00  0.00    +0.000 OA
ATOM     24  C   UNL     1     110.110 129.845 138.184  0.00  0.00    +0.000 C 
ATOM     25  C   UNL     1     109.695 129.132 138.142  0.00  0.00    +0.000 C 
ATOM     26  C   UNL     1     110.409 130.189 137.497  0.00  0.00    +0.000 C 
ATOM     27  C   UNL     1     110.294 129.821 136.767  0.00  0.00    +0.000 C 
ATOM     28  C   UNL     1     109.581 128.764 137.412  0.00  0.00    +0.000 C 
BRANCH  27  31
ATOM     29  O   UNL     1     111.368 130.008 135.843  0.00  0.00    +0.000 OA
ATOM     30  O   UNL     1     110.118 130.668 135.631  0.00  0.00    +0.000 OA
ATOM     31  C   UNL     1     110.593 130.165 136.081  0.00  0.00    +0.000 C 
ENDBRANCH  27  31
ENDBRANCH  19  28
ENDBRANCH   4  19
TORSDOF 4
ENDMDL
MODEL 9
REMARK VINA RESULT:      -9.1      6.982      8.299
REMARK  Name = 14135335
REMARK  4 active torsions:
REMARK  status: ('A' for Active; 'I' for Inactive)
REMARK    1  A    between atoms: O_2  and  C_15
REMARK    2  A    between atoms: O_2  and  C_17
REMARK    3  A    between atoms: C_14  and  C_16
REMARK    4  A    between atoms: C_24  and  C_26
REMARK                            x       y       z     vdW  Elec       q    Type
REMARK                         _______ _______ _______ _____ _____    ______ ____
ROOT
ATOM      1  O   UNL     1     104.843 124.321 139.370  0.00  0.00    +0.000 OA
ATOM      2  O   UNL     1     105.473 123.444 142.050  0.00  0.00    +0.000 OA
ATOM      3  O   UNL     1     104.434 122.802 141.281  0.00  0.00    +0.000 OA
ATOM      4  C   UNL     1     106.369 125.084 140.814  0.00  0.00    +0.000 A 
ATOM      5  C   UNL     1     105.898 125.002 140.100  0.00  0.00    +0.000 A 
ATOM      6  C   UNL     1     106.226 124.556 141.477  0.00  0.00    +0.000 A 
ATOM      7  C   UNL     1     105.292 124.395 140.058  0.00  0.00    +0.000 A 
ATOM      8  C   UNL     1     105.156 123.888 140.695  0.00  0.00    +0.000 A 
ATOM      9  C   UNL     1     105.616 123.955 141.418  0.00  0.00    +0.000 A 
ATOM     10  C   UNL     1     104.571 123.309 140.644  0.00  0.00    +0.000 A 
ATOM     11  C   UNL     1     104.258 123.741 139.319  0.00  0.00    +0.000 A 
ATOM     12  C   UNL     1     104.122 123.235 139.956  0.00  0.00    +0.000 A 
ENDROOT
BRANCH  11  13
ATOM     13  C   UNL     1     103.809 123.668 138.630  0.00  0.00    +0.000 A 
ATOM     14  C   UNL     1     103.003 123.843 138.642  0.00  0.00    +0.000 A 
ATOM     15  C   UNL     1     104.168 123.419 137.929  0.00  0.00    +0.000 A 
ATOM     16  C   UNL     1     102.556 123.770 137.954  0.00  0.00    +0.000 A 
ATOM     17  C   UNL     1     103.719 123.345 137.241  0.00  0.00    +0.000 A 
ATOM     18  C   UNL     1     102.913 123.521 137.253  0.00  0.00    +0.000 A 
ENDBRANCH  11  13
BRANCH   4  19
ATOM     19  O   UNL     1     106.953 125.664 140.863  0.00  0.00    +0.000 OA
BRANCH  19  28
ATOM     20  O   UNL     1     106.142 126.728 141.366  0.00  0.00    +0.000 OA
ATOM     21  O   UNL     1     107.973 127.403 142.889  0.00  0.00    +0.000 OA
ATOM     22  O   UNL     1     108.173 126.114 141.878  0.00  0.00    +0.000 OA
ATOM     23  O   UNL     1     106.553 128.242 142.883  0.00  0.00    +0.000 OA
ATOM     24  C   UNL     1     107.363 127.178 142.381  0.00  0.00    +0.000 C 
ATOM     25  C   UNL     1     107.463 126.533 141.875  0.00  0.00    +0.000 C 
ATOM     26  C   UNL     1     106.652 127.597 142.378  0.00  0.00    +0.000 C 
ATOM     27  C   UNL     1     106.042 127.373 141.870  0.00  0.00    +0.000 C 
ATOM     28  C   UNL     1     106.853 126.308 141.368  0.00  0.00    +0.000 C 
BRANCH  27  31
ATOM     29  O   UNL     1     104.743 127.610 142.416  0.00  0.00    +0.000 OA
ATOM     30  O   UNL     1     105.212 128.394 141.317  0.00  0.00    +0.000 OA
ATOM     31  C   UNL     1     105.333 127.792 141.868  0.00  0.00    +0.000 C 
ENDBRANCH  27  31
ENDBRANCH  19  28
ENDBRANCH   4  19
TORSDOF 4
ENDMDL
MODEL 10
REMARK VINA RESULT:      -9.0      2.260      3.990
REMARK  Name = 14135335
REMARK  4 active torsions:
REMARK  status: ('A' for Active; 'I' for Inactive)
REMARK    1  A    between atoms: O_2  and  C_15
REMARK    2  A    between atoms: O_2  and  C_17
REMARK    3  A    between atoms: C_14  and  C_16
REMARK    4  A    between atoms: C_24  and  C_26
REMARK                            x       y       z     vdW  Elec       q    Type
REMARK                         _______ _______ _______ _____ _____    ______ ____
ROOT
ATOM      1  O   UNL     1     112.603 128.269 135.489  0.00  0.00    +0.000 OA
ATOM      2  O   UNL     1     109.813 128.480 134.768  0.00  0.00    +0.000 OA
ATOM      3  O   UNL     1     110.709 129.600 134.612  0.00  0.00    +0.000 OA
ATOM      4  C   UNL     1     110.967 126.750 135.602  0.00  0.00    +0.000 A 
ATOM      5  C   UNL     1     111.745 127.111 135.667  0.00  0.00    +0.000 A 
ATOM      6  C   UNL     1     110.310 127.212 135.298  0.00  0.00    +0.000 A 
ATOM      7  C   UNL     1     111.854 127.928 135.425  0.00  0.00    +0.000 A 
ATOM      8  C   UNL     1     111.223 128.371 135.133  0.00  0.00    +0.000 A 
ATOM      9  C   UNL     1     110.439 128.028 135.062  0.00  0.00    +0.000 A 
ATOM     10  C   UNL     1     111.340 129.155 134.905  0.00  0.00    +0.000 A 
ATOM     11  C   UNL     1     112.720 129.053 135.261  0.00  0.00    +0.000 A 
ATOM     12  C   UNL     1     112.089 129.496 134.968  0.00  0.00    +0.000 A 
ENDROOT
BRANCH  11  13
ATOM     13  C   UNL     1     113.469 129.394 135.324  0.00  0.00    +0.000 A 
ATOM     14  C   UNL     1     114.000 129.343 134.696  0.00  0.00    +0.000 A 
ATOM     15  C   UNL     1     113.685 129.786 136.018  0.00  0.00    +0.000 A 
ATOM     16  C   UNL     1     114.748 129.684 134.760  0.00  0.00    +0.000 A 
ATOM     17  C   UNL     1     114.434 130.126 136.082  0.00  0.00    +0.000 A 
ATOM     18  C   UNL     1     114.966 130.075 135.453  0.00  0.00    +0.000 A 
ENDBRANCH  11  13
BRANCH   4  19
ATOM     19  O   UNL     1     110.852 125.966 135.832  0.00  0.00    +0.000 OA
BRANCH  19  28
ATOM     20  O   UNL     1     110.432 126.250 137.168  0.00  0.00    +0.000 OA
ATOM     21  O   UNL     1     111.590 124.213 137.965  0.00  0.00    +0.000 OA
ATOM     22  O   UNL     1     111.624 124.608 136.363  0.00  0.00    +0.000 OA
ATOM     23  O   UNL     1     110.784 125.176 139.034  0.00  0.00    +0.000 OA
ATOM     24  C   UNL     1     111.204 124.892 137.699  0.00  0.00    +0.000 C 
ATOM     25  C   UNL     1     111.221 125.090 136.898  0.00  0.00    +0.000 C 
ATOM     26  C   UNL     1     110.801 125.374 138.234  0.00  0.00    +0.000 C 
ATOM     27  C   UNL     1     110.415 126.053 137.968  0.00  0.00    +0.000 C 
ATOM     28  C   UNL     1     110.835 125.769 136.632  0.00  0.00    +0.000 C 
BRANCH  27  31
ATOM     29  O   UNL     1     109.202 126.434 138.619  0.00  0.00    +0.000 OA
ATOM     30  O   UNL     1     110.420 127.117 138.921  0.00  0.00    +0.000 OA
ATOM     31  C   UNL     1     110.012 126.535 138.502  0.00  0.00    +0.000 C 
ENDBRANCH  27  31
ENDBRANCH  19  28
ENDBRANCH   4  19
TORSDOF 4
ENDMDL
