MODEL 1
REMARK VINA RESULT:      -9.2      0.000      0.000
REMARK  Name = 131752850
REMARK  4 active torsions:
REMARK  status: ('A' for Active; 'I' for Inactive)
REMARK    1  A    between atoms: O_2  and  C_13
REMARK    2  A    between atoms: O_2  and  C_15
REMARK    3  A    between atoms: O_8  and  C_29
REMARK    4  A    between atoms: C_16  and  C_23
REMARK                            x       y       z     vdW  Elec       q    Type
REMARK                         _______ _______ _______ _____ _____    ______ ____
ROOT
ATOM      1  O   UNL     1     110.878 126.308 136.536  0.00  0.00    +0.000 OA
ATOM      2  O   UNL     1     109.633 125.375 134.612  0.00  0.00    +0.000 OA
ATOM      3  C   UNL     1     109.159 127.731 136.452  0.00  0.00    +0.000 A 
ATOM      4  C   UNL     1     111.165 125.641 136.144  0.00  0.00    +0.000 C 
ATOM      5  C   UNL     1     110.750 125.331 135.502  0.00  0.00    +0.000 C 
ATOM      6  C   UNL     1     110.177 126.663 136.289  0.00  0.00    +0.000 A 
ATOM      7  C   UNL     1     109.762 126.352 135.647  0.00  0.00    +0.000 A 
ATOM      8  C   UNL     1     109.888 127.357 136.706  0.00  0.00    +0.000 A 
ATOM      9  C   UNL     1     110.048 125.686 135.254  0.00  0.00    +0.000 C 
ATOM     10  C   UNL     1     108.726 127.408 135.784  0.00  0.00    +0.000 A 
ATOM     11  C   UNL     1     109.029 126.714 135.378  0.00  0.00    +0.000 A 
ENDROOT
BRANCH   4  12
ATOM     12  C   UNL     1     111.867 125.286 136.392  0.00  0.00    +0.000 A 
ATOM     13  C   UNL     1     112.593 125.632 136.207  0.00  0.00    +0.000 A 
ATOM     14  C   UNL     1     111.843 124.584 136.825  0.00  0.00    +0.000 A 
ATOM     15  C   UNL     1     113.295 125.276 136.455  0.00  0.00    +0.000 A 
ATOM     16  C   UNL     1     112.544 124.228 137.074  0.00  0.00    +0.000 A 
ATOM     17  C   UNL     1     113.270 124.574 136.889  0.00  0.00    +0.000 A 
BRANCH  17  18
ATOM     18  O   UNL     1     113.972 124.218 137.137  0.00  0.00    +0.000 OA
ATOM     19  C   UNL     1     114.575 124.678 137.461  0.00  0.00    +0.000 C 
ENDBRANCH  17  18
ENDBRANCH   4  12
BRANCH   3  20
ATOM     20  O   UNL     1     108.875 128.397 136.847  0.00  0.00    +0.000 OA
BRANCH  20  29
ATOM     21  O   UNL     1     109.307 129.335 135.859  0.00  0.00    +0.000 OA
ATOM     22  O   UNL     1     109.704 131.018 137.629  0.00  0.00    +0.000 OA
ATOM     23  O   UNL     1     110.004 131.394 136.051  0.00  0.00    +0.000 OA
ATOM     24  O   UNL     1     109.139 129.520 138.027  0.00  0.00    +0.000 OA
ATOM     25  C   UNL     1     109.572 130.457 137.039  0.00  0.00    +0.000 C 
ATOM     26  C   UNL     1     109.722 130.645 136.251  0.00  0.00    +0.000 C 
ATOM     27  C   UNL     1     109.290 129.708 137.238  0.00  0.00    +0.000 C 
ATOM     28  C   UNL     1     109.589 130.084 135.661  0.00  0.00    +0.000 C 
ATOM     29  C   UNL     1     109.157 129.147 136.648  0.00  0.00    +0.000 C 
ATOM     30  C   UNL     1     109.740 130.272 134.871  0.00  0.00    +0.000 C 
ENDBRANCH  20  29
ENDBRANCH   3  20
TORSDOF 4
ENDMDL
MODEL 2
REMARK VINA RESULT:      -8.9     12.057     13.311
REMARK  Name = 131752850
REMARK  4 active torsions:
REMARK  status: ('A' for Active; 'I' for Inactive)
REMARK    1  A    between atoms: O_2  and  C_13
REMARK    2  A    between atoms: O_2  and  C_15
REMARK    3  A    between atoms: O_8  and  C_29
REMARK    4  A    between atoms: C_16  and  C_23
REMARK                            x       y       z     vdW  Elec       q    Type
REMARK                         _______ _______ _______ _____ _____    ______ ____
ROOT
ATOM      1  O   UNL     1     103.667 124.320 147.171  0.00  0.00    +0.000 OA
ATOM      2  O   UNL     1     103.126 124.449 149.582  0.00  0.00    +0.000 OA
ATOM      3  C   UNL     1     105.566 125.197 147.955  0.00  0.00    +0.000 A 
ATOM      4  C   UNL     1     102.931 124.063 147.442  0.00  0.00    +0.000 C 
ATOM      5  C   UNL     1     102.752 124.106 148.246  0.00  0.00    +0.000 C 
ATOM      6  C   UNL     1     104.222 124.620 147.701  0.00  0.00    +0.000 A 
ATOM      7  C   UNL     1     104.041 124.663 148.506  0.00  0.00    +0.000 A 
ATOM      8  C   UNL     1     104.984 124.884 147.406  0.00  0.00    +0.000 A 
ATOM      9  C   UNL     1     103.306 124.406 148.778  0.00  0.00    +0.000 C 
ATOM     10  C   UNL     1     105.379 125.242 148.792  0.00  0.00    +0.000 A 
ATOM     11  C   UNL     1     104.612 124.973 149.070  0.00  0.00    +0.000 A 
ENDROOT
BRANCH   4  12
ATOM     12  C   UNL     1     102.376 123.763 146.911  0.00  0.00    +0.000 A 
ATOM     13  C   UNL     1     101.673 124.173 146.774  0.00  0.00    +0.000 A 
ATOM     14  C   UNL     1     102.524 123.054 146.516  0.00  0.00    +0.000 A 
ATOM     15  C   UNL     1     101.118 123.873 146.242  0.00  0.00    +0.000 A 
ATOM     16  C   UNL     1     101.969 122.754 145.985  0.00  0.00    +0.000 A 
ATOM     17  C   UNL     1     101.266 123.163 145.848  0.00  0.00    +0.000 A 
BRANCH  17  18
ATOM     18  O   UNL     1     100.711 122.864 145.316  0.00  0.00    +0.000 OA
ATOM     19  C   UNL     1     100.919 122.743 144.527  0.00  0.00    +0.000 C 
ENDBRANCH  17  18
ENDBRANCH   4  12
BRANCH   3  20
ATOM     20  O   UNL     1     106.300 125.453 147.679  0.00  0.00    +0.000 OA
BRANCH  20  29
ATOM     21  O   UNL     1     105.952 126.838 147.627  0.00  0.00    +0.000 OA
ATOM     22  O   UNL     1     107.431 127.136 145.665  0.00  0.00    +0.000 OA
ATOM     23  O   UNL     1     106.589 128.421 146.266  0.00  0.00    +0.000 OA
ATOM     24  O   UNL     1     107.286 125.652 146.371  0.00  0.00    +0.000 OA
ATOM     25  C   UNL     1     106.938 127.037 146.319  0.00  0.00    +0.000 C 
ATOM     26  C   UNL     1     106.517 127.679 146.619  0.00  0.00    +0.000 C 
ATOM     27  C   UNL     1     106.866 126.295 146.672  0.00  0.00    +0.000 C 
ATOM     28  C   UNL     1     106.024 127.580 147.273  0.00  0.00    +0.000 C 
ATOM     29  C   UNL     1     106.373 126.196 147.326  0.00  0.00    +0.000 C 
ATOM     30  C   UNL     1     105.603 128.223 147.574  0.00  0.00    +0.000 C 
ENDBRANCH  20  29
ENDBRANCH   3  20
TORSDOF 4
ENDMDL
MODEL 3
REMARK VINA RESULT:      -8.8      3.473      4.641
REMARK  Name = 131752850
REMARK  4 active torsions:
REMARK  status: ('A' for Active; 'I' for Inactive)
REMARK    1  A    between atoms: O_2  and  C_13
REMARK    2  A    between atoms: O_2  and  C_15
REMARK    3  A    between atoms: O_8  and  C_29
REMARK    4  A    between atoms: C_16  and  C_23
REMARK                            x       y       z     vdW  Elec       q    Type
REMARK                         _______ _______ _______ _____ _____    ______ ____
ROOT
ATOM      1  O   UNL     1     112.242 126.593 137.790  0.00  0.00    +0.000 OA
ATOM      2  O   UNL     1     114.318 125.263 137.994  0.00  0.00    +0.000 OA
ATOM      3  C   UNL     1     113.142 127.544 139.599  0.00  0.00    +0.000 A 
ATOM      4  C   UNL     1     112.402 125.993 137.246  0.00  0.00    +0.000 C 
ATOM      5  C   UNL     1     113.095 125.550 137.315  0.00  0.00    +0.000 C 
ATOM      6  C   UNL     1     112.772 126.750 138.401  0.00  0.00    +0.000 A 
ATOM      7  C   UNL     1     113.465 126.306 138.469  0.00  0.00    +0.000 A 
ATOM      8  C   UNL     1     112.593 127.377 138.960  0.00  0.00    +0.000 A 
ATOM      9  C   UNL     1     113.626 125.706 137.926  0.00  0.00    +0.000 C 
ATOM     10  C   UNL     1     113.864 127.083 139.671  0.00  0.00    +0.000 A 
ATOM     11  C   UNL     1     114.026 126.460 139.102  0.00  0.00    +0.000 A 
ENDROOT
BRANCH   4  12
ATOM     12  C   UNL     1     111.871 125.837 136.634  0.00  0.00    +0.000 A 
ATOM     13  C   UNL     1     111.462 125.120 136.616  0.00  0.00    +0.000 A 
ATOM     14  C   UNL     1     111.749 126.396 136.041  0.00  0.00    +0.000 A 
ATOM     15  C   UNL     1     110.931 124.963 136.005  0.00  0.00    +0.000 A 
ATOM     16  C   UNL     1     111.218 126.240 135.429  0.00  0.00    +0.000 A 
ATOM     17  C   UNL     1     110.809 125.524 135.411  0.00  0.00    +0.000 A 
BRANCH  17  18
ATOM     18  O   UNL     1     110.278 125.367 134.800  0.00  0.00    +0.000 OA
ATOM     19  C   UNL     1     109.665 125.896 134.640  0.00  0.00    +0.000 C 
ENDBRANCH  17  18
ENDBRANCH   4  12
BRANCH   3  20
ATOM     20  O   UNL     1     112.978 128.144 140.141  0.00  0.00    +0.000 OA
BRANCH  20  29
ATOM     21  O   UNL     1     113.414 129.226 139.314  0.00  0.00    +0.000 OA
ATOM     22  O   UNL     1     114.271 130.408 141.313  0.00  0.00    +0.000 OA
ATOM     23  O   UNL     1     114.421 131.095 139.820  0.00  0.00    +0.000 OA
ATOM     24  O   UNL     1     113.549 128.933 141.473  0.00  0.00    +0.000 OA
ATOM     25  C   UNL     1     113.985 130.014 140.646  0.00  0.00    +0.000 C 
ATOM     26  C   UNL     1     114.060 130.357 139.901  0.00  0.00    +0.000 C 
ATOM     27  C   UNL     1     113.625 129.277 140.727  0.00  0.00    +0.000 C 
ATOM     28  C   UNL     1     113.775 129.963 139.235  0.00  0.00    +0.000 C 
ATOM     29  C   UNL     1     113.339 128.883 140.061  0.00  0.00    +0.000 C 
ATOM     30  C   UNL     1     113.850 130.307 138.488  0.00  0.00    +0.000 C 
ENDBRANCH  20  29
ENDBRANCH   3  20
TORSDOF 4
ENDMDL
MODEL 4
REMARK VINA RESULT:      -8.8      7.646     10.474
REMARK  Name = 131752850
REMARK  4 active torsions:
REMARK  status: ('A' for Active; 'I' for Inactive)
REMARK    1  A    between atoms: O_2  and  C_13
REMARK    2  A    between atoms: O_2  and  C_15
REMARK    3  A    between atoms: O_8  and  C_29
REMARK    4  A    between atoms: C_16  and  C_23
REMARK                            x       y       z     vdW  Elec       q    Type
REMARK                         _______ _______ _______ _____ _____    ______ ____
ROOT
ATOM      1  O   UNL     1     103.110 130.249 142.145  0.00  0.00    +0.000 OA
ATOM      2  O   UNL     1     102.994 129.176 139.919  0.00  0.00    +0.000 OA
ATOM      3  C   UNL     1     104.401 128.460 142.502  0.00  0.00    +0.000 A 
ATOM      4  C   UNL     1     102.666 130.596 141.543  0.00  0.00    +0.000 C 
ATOM      5  C   UNL     1     102.627 130.238 140.801  0.00  0.00    +0.000 C 
ATOM      6  C   UNL     1     103.516 129.545 142.006  0.00  0.00    +0.000 A 
ATOM      7  C   UNL     1     103.477 129.187 141.263  0.00  0.00    +0.000 A 
ATOM      8  C   UNL     1     103.976 129.193 142.641  0.00  0.00    +0.000 A 
ATOM      9  C   UNL     1     103.033 129.534 140.661  0.00  0.00    +0.000 C 
ATOM     10  C   UNL     1     104.361 128.087 141.728  0.00  0.00    +0.000 A 
ATOM     11  C   UNL     1     103.896 128.453 141.105  0.00  0.00    +0.000 A 
ENDROOT
BRANCH   4  12
ATOM     12  C   UNL     1     102.259 131.300 141.683  0.00  0.00    +0.000 A 
ATOM     13  C   UNL     1     102.644 132.024 141.590  0.00  0.00    +0.000 A 
ATOM     14  C   UNL     1     101.468 131.281 141.916  0.00  0.00    +0.000 A 
ATOM     15  C   UNL     1     102.238 132.728 141.730  0.00  0.00    +0.000 A 
ATOM     16  C   UNL     1     101.061 131.985 142.055  0.00  0.00    +0.000 A 
ATOM     17  C   UNL     1     101.446 132.708 141.963  0.00  0.00    +0.000 A 
BRANCH  17  18
ATOM     18  O   UNL     1     101.040 133.413 142.102  0.00  0.00    +0.000 OA
ATOM     19  C   UNL     1     101.103 134.038 141.568  0.00  0.00    +0.000 C 
ENDBRANCH  17  18
ENDBRANCH   4  12
BRANCH   3  20
ATOM     20  O   UNL     1     104.845 128.116 143.106  0.00  0.00    +0.000 OA
BRANCH  20  29
ATOM     21  O   UNL     1     106.096 128.710 142.756  0.00  0.00    +0.000 OA
ATOM     22  O   UNL     1     107.264 126.624 143.396  0.00  0.00    +0.000 OA
ATOM     23  O   UNL     1     108.127 127.912 142.832  0.00  0.00    +0.000 OA
ATOM     24  O   UNL     1     105.623 126.726 143.533  0.00  0.00    +0.000 OA
ATOM     25  C   UNL     1     106.875 127.319 143.182  0.00  0.00    +0.000 C 
ATOM     26  C   UNL     1     107.306 127.963 142.901  0.00  0.00    +0.000 C 
ATOM     27  C   UNL     1     106.055 127.370 143.251  0.00  0.00    +0.000 C 
ATOM     28  C   UNL     1     106.917 128.658 142.687  0.00  0.00    +0.000 C 
ATOM     29  C   UNL     1     105.666 128.065 143.037  0.00  0.00    +0.000 C 
ATOM     30  C   UNL     1     107.348 129.303 142.405  0.00  0.00    +0.000 C 
ENDBRANCH  20  29
ENDBRANCH   3  20
TORSDOF 4
ENDMDL
MODEL 5
REMARK VINA RESULT:      -8.8      2.131      2.906
REMARK  Name = 131752850
REMARK  4 active torsions:
REMARK  status: ('A' for Active; 'I' for Inactive)
REMARK    1  A    between atoms: O_2  and  C_13
REMARK    2  A    between atoms: O_2  and  C_15
REMARK    3  A    between atoms: O_8  and  C_29
REMARK    4  A    between atoms: C_16  and  C_23
REMARK                            x       y       z     vdW  Elec       q    Type
REMARK                         _______ _______ _______ _____ _____    ______ ____
ROOT
ATOM      1  O   UNL     1     111.695 126.251 137.849  0.00  0.00    +0.000 OA
ATOM      2  O   UNL     1     112.859 124.468 136.588  0.00  0.00    +0.000 OA
ATOM      3  C   UNL     1     110.271 125.975 136.150  0.00  0.00    +0.000 A 
ATOM      4  C   UNL     1     112.412 125.951 138.126  0.00  0.00    +0.000 C 
ATOM      5  C   UNL     1     112.800 125.357 137.706  0.00  0.00    +0.000 C 
ATOM      6  C   UNL     1     111.365 125.957 137.153  0.00  0.00    +0.000 A 
ATOM      7  C   UNL     1     111.754 125.363 136.733  0.00  0.00    +0.000 A 
ATOM      8  C   UNL     1     110.618 126.277 136.875  0.00  0.00    +0.000 A 
ATOM      9  C   UNL     1     112.471 125.063 137.009  0.00  0.00    +0.000 C 
ATOM     10  C   UNL     1     110.675 125.356 135.712  0.00  0.00    +0.000 A 
ATOM     11  C   UNL     1     111.421 125.048 136.005  0.00  0.00    +0.000 A 
ENDROOT
BRANCH   4  12
ATOM     12  C   UNL     1     112.741 126.245 138.824  0.00  0.00    +0.000 A 
ATOM     13  C   UNL     1     113.530 126.484 138.838  0.00  0.00    +0.000 A 
ATOM     14  C   UNL     1     112.281 126.299 139.506  0.00  0.00    +0.000 A 
ATOM     15  C   UNL     1     113.860 126.778 139.535  0.00  0.00    +0.000 A 
ATOM     16  C   UNL     1     112.609 126.593 140.203  0.00  0.00    +0.000 A 
ATOM     17  C   UNL     1     113.399 126.832 140.218  0.00  0.00    +0.000 A 
BRANCH  17  18
ATOM     18  O   UNL     1     113.728 127.126 140.915  0.00  0.00    +0.000 OA
ATOM     19  C   UNL     1     114.545 127.226 140.975  0.00  0.00    +0.000 C 
ENDBRANCH  17  18
ENDBRANCH   4  12
BRANCH   3  20
ATOM     20  O   UNL     1     109.554 126.278 135.876  0.00  0.00    +0.000 OA
BRANCH  20  29
ATOM     21  O   UNL     1     110.103 127.435 135.244  0.00  0.00    +0.000 OA
ATOM     22  O   UNL     1     108.098 128.737 135.885  0.00  0.00    +0.000 OA
ATOM     23  O   UNL     1     109.316 129.461 135.039  0.00  0.00    +0.000 OA
ATOM     24  O   UNL     1     108.217 127.145 136.303  0.00  0.00    +0.000 OA
ATOM     25  C   UNL     1     108.766 128.303 135.671  0.00  0.00    +0.000 C 
ATOM     26  C   UNL     1     109.375 128.665 135.249  0.00  0.00    +0.000 C 
ATOM     27  C   UNL     1     108.826 127.508 135.880  0.00  0.00    +0.000 C 
ATOM     28  C   UNL     1     110.043 128.231 135.035  0.00  0.00    +0.000 C 
ATOM     29  C   UNL     1     109.494 127.074 135.667  0.00  0.00    +0.000 C 
ATOM     30  C   UNL     1     110.653 128.593 134.612  0.00  0.00    +0.000 C 
ENDBRANCH  20  29
ENDBRANCH   3  20
TORSDOF 4
ENDMDL
MODEL 6
REMARK VINA RESULT:      -8.7      2.237      5.947
REMARK  Name = 131752850
REMARK  4 active torsions:
REMARK  status: ('A' for Active; 'I' for Inactive)
REMARK    1  A    between atoms: O_2  and  C_13
REMARK    2  A    between atoms: O_2  and  C_15
REMARK    3  A    between atoms: O_8  and  C_29
REMARK    4  A    between atoms: C_16  and  C_23
REMARK                            x       y       z     vdW  Elec       q    Type
REMARK                         _______ _______ _______ _____ _____    ______ ____
ROOT
ATOM      1  O   UNL     1     112.269 129.139 136.921  0.00  0.00    +0.000 OA
ATOM      2  O   UNL     1     113.944 129.320 135.109  0.00  0.00    +0.000 OA
ATOM      3  C   UNL     1     113.194 127.108 137.034  0.00  0.00    +0.000 A 
ATOM      4  C   UNL     1     112.334 129.838 136.489  0.00  0.00    +0.000 C 
ATOM      5  C   UNL     1     112.893 129.898 135.885  0.00  0.00    +0.000 C 
ATOM      6  C   UNL     1     112.761 128.500 136.751  0.00  0.00    +0.000 A 
ATOM      7  C   UNL     1     113.320 128.561 136.146  0.00  0.00    +0.000 A 
ATOM      8  C   UNL     1     112.684 127.777 137.208  0.00  0.00    +0.000 A 
ATOM      9  C   UNL     1     113.386 129.260 135.713  0.00  0.00    +0.000 C 
ATOM     10  C   UNL     1     113.776 127.170 136.405  0.00  0.00    +0.000 A 
ATOM     11  C   UNL     1     113.840 127.901 135.958  0.00  0.00    +0.000 A 
ENDROOT
BRANCH   4  12
ATOM     12  C   UNL     1     111.841 130.477 136.660  0.00  0.00    +0.000 A 
ATOM     13  C   UNL     1     111.080 130.508 136.343  0.00  0.00    +0.000 A 
ATOM     14  C   UNL     1     112.110 131.086 137.148  0.00  0.00    +0.000 A 
ATOM     15  C   UNL     1     110.587 131.147 136.514  0.00  0.00    +0.000 A 
ATOM     16  C   UNL     1     111.618 131.725 137.319  0.00  0.00    +0.000 A 
ATOM     17  C   UNL     1     110.857 131.756 137.002  0.00  0.00    +0.000 A 
BRANCH  17  18
ATOM     18  O   UNL     1     110.364 132.395 137.173  0.00  0.00    +0.000 OA
ATOM     19  C   UNL     1     110.496 133.126 136.814  0.00  0.00    +0.000 C 
ENDBRANCH  17  18
ENDBRANCH   4  12
BRANCH   3  20
ATOM     20  O   UNL     1     113.126 126.410 137.469  0.00  0.00    +0.000 OA
BRANCH  20  29
ATOM     21  O   UNL     1     112.055 125.837 136.717  0.00  0.00    +0.000 OA
ATOM     22  O   UNL     1     113.076 123.597 136.970  0.00  0.00    +0.000 OA
ATOM     23  O   UNL     1     111.664 123.770 136.133  0.00  0.00    +0.000 OA
ATOM     24  O   UNL     1     113.807 124.917 137.638  0.00  0.00    +0.000 OA
ATOM     25  C   UNL     1     112.735 124.344 136.886  0.00  0.00    +0.000 C 
ATOM     26  C   UNL     1     112.030 124.430 136.468  0.00  0.00    +0.000 C 
ATOM     27  C   UNL     1     113.101 125.003 137.220  0.00  0.00    +0.000 C 
ATOM     28  C   UNL     1     111.690 125.177 136.383  0.00  0.00    +0.000 C 
ATOM     29  C   UNL     1     112.760 125.750 137.135  0.00  0.00    +0.000 C 
ATOM     30  C   UNL     1     110.984 125.264 135.964  0.00  0.00    +0.000 C 
ENDBRANCH  20  29
ENDBRANCH   3  20
TORSDOF 4
ENDMDL
MODEL 7
REMARK VINA RESULT:      -8.7      9.716     11.471
REMARK  Name = 131752850
REMARK  4 active torsions:
REMARK  status: ('A' for Active; 'I' for Inactive)
REMARK    1  A    between atoms: O_2  and  C_13
REMARK    2  A    between atoms: O_2  and  C_15
REMARK    3  A    between atoms: O_8  and  C_29
REMARK    4  A    between atoms: C_16  and  C_23
REMARK                            x       y       z     vdW  Elec       q    Type
REMARK                         _______ _______ _______ _____ _____    ______ ____
ROOT
ATOM      1  O   UNL     1     105.375 126.432 144.111  0.00  0.00    +0.000 OA
ATOM      2  O   UNL     1     107.187 127.450 145.454  0.00  0.00    +0.000 OA
ATOM      3  C   UNL     1     105.611 124.877 145.697  0.00  0.00    +0.000 A 
ATOM      4  C   UNL     1     105.694 127.160 143.888  0.00  0.00    +0.000 C 
ATOM      5  C   UNL     1     106.298 127.499 144.336  0.00  0.00    +0.000 C 
ATOM      6  C   UNL     1     105.659 126.044 144.780  0.00  0.00    +0.000 A 
ATOM      7  C   UNL     1     106.263 126.384 145.228  0.00  0.00    +0.000 A 
ATOM      8  C   UNL     1     105.319 125.287 145.001  0.00  0.00    +0.000 A 
ATOM      9  C   UNL     1     106.583 127.111 145.006  0.00  0.00    +0.000 C 
ATOM     10  C   UNL     1     106.240 125.230 146.164  0.00  0.00    +0.000 A 
ATOM     11  C   UNL     1     106.569 125.988 145.928  0.00  0.00    +0.000 A 
ENDROOT
BRANCH   4  12
ATOM     12  C   UNL     1     105.409 127.549 143.218  0.00  0.00    +0.000 A 
ATOM     13  C   UNL     1     104.990 128.255 143.298  0.00  0.00    +0.000 A 
ATOM     14  C   UNL     1     105.544 127.231 142.469  0.00  0.00    +0.000 A 
ATOM     15  C   UNL     1     104.705 128.643 142.628  0.00  0.00    +0.000 A 
ATOM     16  C   UNL     1     105.260 127.619 141.799  0.00  0.00    +0.000 A 
ATOM     17  C   UNL     1     104.841 128.325 141.879  0.00  0.00    +0.000 A 
BRANCH  17  18
ATOM     18  O   UNL     1     104.556 128.714 141.209  0.00  0.00    +0.000 OA
ATOM     19  C   UNL     1     103.743 128.788 141.089  0.00  0.00    +0.000 C 
ENDBRANCH  17  18
ENDBRANCH   4  12
BRANCH   3  20
ATOM     20  O   UNL     1     105.290 124.150 145.916  0.00  0.00    +0.000 OA
BRANCH  20  29
ATOM     21  O   UNL     1     104.290 124.681 146.789  0.00  0.00    +0.000 OA
ATOM     22  O   UNL     1     102.739 122.876 146.110  0.00  0.00    +0.000 OA
ATOM     23  O   UNL     1     102.256 124.008 147.209  0.00  0.00    +0.000 OA
ATOM     24  O   UNL     1     104.256 122.947 145.464  0.00  0.00    +0.000 OA
ATOM     25  C   UNL     1     103.256 123.477 146.336  0.00  0.00    +0.000 C 
ATOM     26  C   UNL     1     103.015 124.043 146.885  0.00  0.00    +0.000 C 
ATOM     27  C   UNL     1     104.014 123.513 146.013  0.00  0.00    +0.000 C 
ATOM     28  C   UNL     1     103.532 124.645 147.112  0.00  0.00    +0.000 C 
ATOM     29  C   UNL     1     104.531 124.114 146.240  0.00  0.00    +0.000 C 
ATOM     30  C   UNL     1     103.291 125.211 147.662  0.00  0.00    +0.000 C 
ENDBRANCH  20  29
ENDBRANCH   3  20
TORSDOF 4
ENDMDL
MODEL 8
REMARK VINA RESULT:      -8.7      1.680      2.476
REMARK  Name = 131752850
REMARK  4 active torsions:
REMARK  status: ('A' for Active; 'I' for Inactive)
REMARK    1  A    between atoms: O_2  and  C_13
REMARK    2  A    between atoms: O_2  and  C_15
REMARK    3  A    between atoms: O_8  and  C_29
REMARK    4  A    between atoms: C_16  and  C_23
REMARK                            x       y       z     vdW  Elec       q    Type
REMARK                         _______ _______ _______ _____ _____    ______ ____
ROOT
ATOM      1  O   UNL     1     111.498 127.171 136.169  0.00  0.00    +0.000 OA
ATOM      2  O   UNL     1     113.782 128.124 136.207  0.00  0.00    +0.000 OA
ATOM      3  C   UNL     1     111.081 129.225 135.396  0.00  0.00    +0.000 A 
ATOM      4  C   UNL     1     112.132 126.712 136.429  0.00  0.00    +0.000 C 
ATOM      5  C   UNL     1     112.893 127.030 136.441  0.00  0.00    +0.000 C 
ATOM      6  C   UNL     1     111.624 127.948 135.922  0.00  0.00    +0.000 A 
ATOM      7  C   UNL     1     112.386 128.265 135.935  0.00  0.00    +0.000 A 
ATOM      8  C   UNL     1     110.956 128.416 135.654  0.00  0.00    +0.000 A 
ATOM      9  C   UNL     1     113.021 127.806 136.195  0.00  0.00    +0.000 C 
ATOM     10  C   UNL     1     111.874 129.557 135.409  0.00  0.00    +0.000 A 
ATOM     11  C   UNL     1     112.531 129.074 135.680  0.00  0.00    +0.000 A 
ENDROOT
BRANCH   4  12
ATOM     12  C   UNL     1     112.006 125.935 136.676  0.00  0.00    +0.000 A 
ATOM     13  C   UNL     1     112.061 125.315 136.134  0.00  0.00    +0.000 A 
ATOM     14  C   UNL     1     111.824 125.777 137.465  0.00  0.00    +0.000 A 
ATOM     15  C   UNL     1     111.934 124.538 136.381  0.00  0.00    +0.000 A 
ATOM     16  C   UNL     1     111.698 125.001 137.713  0.00  0.00    +0.000 A 
ATOM     17  C   UNL     1     111.753 124.381 137.171  0.00  0.00    +0.000 A 
BRANCH  17  18
ATOM     18  O   UNL     1     111.626 123.604 137.418  0.00  0.00    +0.000 OA
ATOM     19  C   UNL     1     112.122 123.001 137.151  0.00  0.00    +0.000 C 
ENDBRANCH  17  18
ENDBRANCH   4  12
BRANCH   3  20
ATOM     20  O   UNL     1     110.445 129.682 135.137  0.00  0.00    +0.000 OA
BRANCH  20  29
ATOM     21  O   UNL     1     110.206 130.386 136.357  0.00  0.00    +0.000 OA
ATOM     22  O   UNL     1     107.766 130.210 135.982  0.00  0.00    +0.000 OA
ATOM     23  O   UNL     1     108.341 130.973 137.327  0.00  0.00    +0.000 OA
ATOM     24  O   UNL     1     108.818 129.564 134.887  0.00  0.00    +0.000 OA
ATOM     25  C   UNL     1     108.579 130.268 136.107  0.00  0.00    +0.000 C 
ATOM     26  C   UNL     1     108.866 130.650 136.779  0.00  0.00    +0.000 C 
ATOM     27  C   UNL     1     109.105 129.946 135.560  0.00  0.00    +0.000 C 
ATOM     28  C   UNL     1     109.680 130.708 136.905  0.00  0.00    +0.000 C 
ATOM     29  C   UNL     1     109.918 130.005 135.685  0.00  0.00    +0.000 C 
ATOM     30  C   UNL     1     109.967 131.090 137.578  0.00  0.00    +0.000 C 
ENDBRANCH  20  29
ENDBRANCH   3  20
TORSDOF 4
ENDMDL
MODEL 9
REMARK VINA RESULT:      -8.7      1.315      5.213
REMARK  Name = 131752850
REMARK  4 active torsions:
REMARK  status: ('A' for Active; 'I' for Inactive)
REMARK    1  A    between atoms: O_2  and  C_13
REMARK    2  A    between atoms: O_2  and  C_15
REMARK    3  A    between atoms: O_8  and  C_29
REMARK    4  A    between atoms: C_16  and  C_23
REMARK                            x       y       z     vdW  Elec       q    Type
REMARK                         _______ _______ _______ _____ _____    ______ ____
ROOT
ATOM      1  O   UNL     1     110.381 127.434 136.246  0.00  0.00    +0.000 OA
ATOM      2  O   UNL     1     109.659 125.722 134.612  0.00  0.00    +0.000 OA
ATOM      3  C   UNL     1     111.271 125.606 137.171  0.00  0.00    +0.000 A 
ATOM      4  C   UNL     1     109.934 127.655 135.589  0.00  0.00    +0.000 C 
ATOM      5  C   UNL     1     109.693 127.084 135.044  0.00  0.00    +0.000 C 
ATOM      6  C   UNL     1     110.587 126.644 136.360  0.00  0.00    +0.000 A 
ATOM      7  C   UNL     1     110.346 126.073 135.814  0.00  0.00    +0.000 A 
ATOM      8  C   UNL     1     111.053 126.427 137.048  0.00  0.00    +0.000 A 
ATOM      9  C   UNL     1     109.899 126.293 135.157  0.00  0.00    +0.000 C 
ATOM     10  C   UNL     1     111.020 125.010 136.604  0.00  0.00    +0.000 A 
ATOM     11  C   UNL     1     110.555 125.246 135.921  0.00  0.00    +0.000 A 
ENDROOT
BRANCH   4  12
ATOM     12  C   UNL     1     109.727 128.445 135.476  0.00  0.00    +0.000 A 
ATOM     13  C   UNL     1     109.042 128.746 135.822  0.00  0.00    +0.000 A 
ATOM     14  C   UNL     1     110.206 128.935 135.016  0.00  0.00    +0.000 A 
ATOM     15  C   UNL     1     108.835 129.537 135.709  0.00  0.00    +0.000 A 
ATOM     16  C   UNL     1     110.001 129.726 134.903  0.00  0.00    +0.000 A 
ATOM     17  C   UNL     1     109.315 130.027 135.249  0.00  0.00    +0.000 A 
BRANCH  17  18
ATOM     18  O   UNL     1     109.109 130.817 135.136  0.00  0.00    +0.000 OA
ATOM     19  C   UNL     1     108.731 131.236 135.739  0.00  0.00    +0.000 C 
ENDBRANCH  17  18
ENDBRANCH   4  12
BRANCH   3  20
ATOM     20  O   UNL     1     111.718 125.389 137.830  0.00  0.00    +0.000 OA
BRANCH  20  29
ATOM     21  O   UNL     1     112.927 125.023 137.162  0.00  0.00    +0.000 OA
ATOM     22  O   UNL     1     114.243 126.160 138.922  0.00  0.00    +0.000 OA
ATOM     23  O   UNL     1     115.014 125.415 137.668  0.00  0.00    +0.000 OA
ATOM     24  O   UNL     1     112.595 126.147 139.003  0.00  0.00    +0.000 OA
ATOM     25  C   UNL     1     113.805 125.781 138.336  0.00  0.00    +0.000 C 
ATOM     26  C   UNL     1     114.190 125.409 137.709  0.00  0.00    +0.000 C 
ATOM     27  C   UNL     1     112.981 125.775 138.376  0.00  0.00    +0.000 C 
ATOM     28  C   UNL     1     113.751 125.030 137.122  0.00  0.00    +0.000 C 
ATOM     29  C   UNL     1     112.543 125.396 137.789  0.00  0.00    +0.000 C 
ATOM     30  C   UNL     1     114.136 124.657 136.494  0.00  0.00    +0.000 C 
ENDBRANCH  20  29
ENDBRANCH   3  20
TORSDOF 4
ENDMDL
MODEL 10
REMARK VINA RESULT:      -8.6     10.507     11.747
REMARK  Name = 131752850
REMARK  4 active torsions:
REMARK  status: ('A' for Active; 'I' for Inactive)
REMARK    1  A    between atoms: O_2  and  C_13
REMARK    2  A    between atoms: O_2  and  C_15
REMARK    3  A    between atoms: O_8  and  C_29
REMARK    4  A    between atoms: C_16  and  C_23
REMARK                            x       y       z     vdW  Elec       q    Type
REMARK                         _______ _______ _______ _____ _____    ______ ____
ROOT
ATOM      1  O   UNL     1     104.355 124.535 145.929  0.00  0.00    +0.000 OA
ATOM      2  O   UNL     1     105.157 124.661 148.267  0.00  0.00    +0.000 OA
ATOM      3  C   UNL     1     106.287 125.614 145.625  0.00  0.00    +0.000 A 
ATOM      4  C   UNL     1     103.902 124.211 146.538  0.00  0.00    +0.000 C 
ATOM      5  C   UNL     1     104.170 124.254 147.317  0.00  0.00    +0.000 C 
ATOM      6  C   UNL     1     105.074 124.900 146.098  0.00  0.00    +0.000 A 
ATOM      7  C   UNL     1     105.341 124.942 146.878  0.00  0.00    +0.000 A 
ATOM      8  C   UNL     1     105.537 125.233 145.455  0.00  0.00    +0.000 A 
ATOM      9  C   UNL     1     104.889 124.619 147.487  0.00  0.00    +0.000 C 
ATOM     10  C   UNL     1     106.566 125.658 146.437  0.00  0.00    +0.000 A 
ATOM     11  C   UNL     1     106.090 125.320 147.067  0.00  0.00    +0.000 A 
ENDROOT
BRANCH   4  12
ATOM     12  C   UNL     1     103.182 123.846 146.368  0.00  0.00    +0.000 A 
ATOM     13  C   UNL     1     103.170 123.105 146.007  0.00  0.00    +0.000 A 
ATOM     14  C   UNL     1     102.473 124.222 146.561  0.00  0.00    +0.000 A 
ATOM     15  C   UNL     1     102.450 122.739 145.837  0.00  0.00    +0.000 A 
ATOM     16  C   UNL     1     101.753 123.857 146.392  0.00  0.00    +0.000 A 
ATOM     17  C   UNL     1     101.742 123.116 146.030  0.00  0.00    +0.000 A 
BRANCH  17  18
ATOM     18  O   UNL     1     101.022 122.751 145.860  0.00  0.00    +0.000 OA
ATOM     19  C   UNL     1     100.724 122.763 145.091  0.00  0.00    +0.000 C 
ENDBRANCH  17  18
ENDBRANCH   4  12
BRANCH   3  20
ATOM     20  O   UNL     1     106.737 125.936 145.014  0.00  0.00    +0.000 OA
BRANCH  20  29
ATOM     21  O   UNL     1     106.075 127.203 145.031  0.00  0.00    +0.000 OA
ATOM     22  O   UNL     1     106.475 127.446 142.601  0.00  0.00    +0.000 OA
ATOM     23  O   UNL     1     105.680 128.631 143.429  0.00  0.00    +0.000 OA
ATOM     24  O   UNL     1     107.003 126.098 143.393  0.00  0.00    +0.000 OA
ATOM     25  C   UNL     1     106.342 127.365 143.411  0.00  0.00    +0.000 C 
ATOM     26  C   UNL     1     105.944 127.957 143.825  0.00  0.00    +0.000 C 
ATOM     27  C   UNL     1     106.606 126.691 143.807  0.00  0.00    +0.000 C 
ATOM     28  C   UNL     1     105.811 127.876 144.635  0.00  0.00    +0.000 C 
ATOM     29  C   UNL     1     106.473 126.610 144.617  0.00  0.00    +0.000 C 
ATOM     30  C   UNL     1     105.413 128.469 145.049  0.00  0.00    +0.000 C 
ENDBRANCH  20  29
ENDBRANCH   3  20
TORSDOF 4
ENDMDL
