MODEL 1
REMARK VINA RESULT:      -9.3      0.000      0.000
REMARK  Name = 21722022
REMARK  6 active torsions:
REMARK  status: ('A' for Active; 'I' for Inactive)
REMARK    1  A    between atoms: O_2  and  C_19
REMARK    2  A    between atoms: O_2  and  C_21
REMARK    3  A    between atoms: O_10  and  C_28
REMARK    4  A    between atoms: O_11  and  C_34
REMARK    5  A    between atoms: C_18  and  C_20
REMARK    6  A    between atoms: C_24  and  C_27
REMARK                            x       y       z     vdW  Elec       q    Type
REMARK                         _______ _______ _______ _____ _____    ______ ____
ROOT
ATOM      1  O   UNL     1     114.678 127.248 141.185  0.00  0.00    +0.000 OA
ATOM      2  C   UNL     1     114.161 128.269 140.330  0.00  0.00    +0.000 A 
ATOM      3  C   UNL     1     114.229 127.472 140.530  0.00  0.00    +0.000 A 
ATOM      4  C   UNL     1     113.711 128.493 139.675  0.00  0.00    +0.000 A 
ATOM      5  C   UNL     1     113.399 127.121 139.422  0.00  0.00    +0.000 A 
ATOM      6  C   UNL     1     113.848 126.898 140.077  0.00  0.00    +0.000 A 
ATOM      7  C   UNL     1     113.330 127.919 139.221  0.00  0.00    +0.000 A 
ENDROOT
BRANCH   5  12
ATOM      8  O   UNL     1     113.426 126.163 138.362  0.00  0.00    +0.000 OA
ATOM      9  O   UNL     1     111.060 124.619 137.754  0.00  0.00    +0.000 OA
ATOM     10  O   UNL     1     111.060 125.593 138.818  0.00  0.00    +0.000 OA
ATOM     11  O   UNL     1     113.498 124.215 136.198  0.00  0.00    +0.000 OA
ATOM     12  C   UNL     1     113.018 126.547 138.968  0.00  0.00    +0.000 A 
ATOM     13  C   UNL     1     112.230 126.357 139.120  0.00  0.00    +0.000 A 
ATOM     14  C   UNL     1     112.256 125.399 138.060  0.00  0.00    +0.000 A 
ATOM     15  C   UNL     1     113.045 125.589 137.908  0.00  0.00    +0.000 A 
ATOM     16  C   UNL     1     111.849 125.783 138.666  0.00  0.00    +0.000 A 
ATOM     17  C   UNL     1     111.848 124.803 137.594  0.00  0.00    +0.000 A 
ATOM     18  C   UNL     1     113.480 125.195 137.279  0.00  0.00    +0.000 A 
ATOM     19  C   UNL     1     112.267 124.399 136.961  0.00  0.00    +0.000 A 
ATOM     20  C   UNL     1     113.088 124.597 136.803  0.00  0.00    +0.000 A 
BRANCH  13  21
ATOM     21  O   UNL     1     111.822 126.741 139.726  0.00  0.00    +0.000 OA
ATOM     22  C   UNL     1     111.030 126.562 139.868  0.00  0.00    +0.000 C 
ENDBRANCH  13  21
BRANCH  19  23
ATOM     23  O   UNL     1     111.883 123.825 136.509  0.00  0.00    +0.000 OA
ATOM     24  C   UNL     1     111.937 123.030 136.720  0.00  0.00    +0.000 C 
ENDBRANCH  19  23
ENDBRANCH   5  12
BRANCH   2  25
ATOM     25  O   UNL     1     114.542 128.843 140.783  0.00  0.00    +0.000 OA
BRANCH  25  34
ATOM     26  O   UNL     1     113.382 129.346 141.451  0.00  0.00    +0.000 OA
ATOM     27  O   UNL     1     114.289 131.644 141.292  0.00  0.00    +0.000 OA
ATOM     28  O   UNL     1     112.829 131.381 142.011  0.00  0.00    +0.000 OA
ATOM     29  O   UNL     1     115.146 130.374 140.678  0.00  0.00    +0.000 OA
ATOM     30  C   UNL     1     113.987 130.878 141.345  0.00  0.00    +0.000 C 
ATOM     31  C   UNL     1     113.257 130.747 141.705  0.00  0.00    +0.000 C 
ATOM     32  C   UNL     1     114.416 130.243 141.037  0.00  0.00    +0.000 C 
ATOM     33  C   UNL     1     112.955 129.981 141.757  0.00  0.00    +0.000 C 
ATOM     34  C   UNL     1     114.114 129.478 141.090  0.00  0.00    +0.000 C 
BRANCH  33  37
ATOM     35  O   UNL     1     112.191 129.608 142.906  0.00  0.00    +0.000 OA
ATOM     36  O   UNL     1     111.527 129.958 141.689  0.00  0.00    +0.000 OA
ATOM     37  C   UNL     1     112.224 129.849 142.117  0.00  0.00    +0.000 C 
ENDBRANCH  33  37
ENDBRANCH  25  34
ENDBRANCH   2  25
TORSDOF 6
ENDMDL
MODEL 2
REMARK VINA RESULT:      -9.1      4.183      6.407
REMARK  Name = 21722022
REMARK  6 active torsions:
REMARK  status: ('A' for Active; 'I' for Inactive)
REMARK    1  A    between atoms: O_2  and  C_19
REMARK    2  A    between atoms: O_2  and  C_21
REMARK    3  A    between atoms: O_10  and  C_28
REMARK    4  A    between atoms: O_11  and  C_34
REMARK    5  A    between atoms: C_18  and  C_20
REMARK    6  A    between atoms: C_24  and  C_27
REMARK                            x       y       z     vdW  Elec       q    Type
REMARK                         _______ _______ _______ _____ _____    ______ ____
ROOT
ATOM      1  O   UNL     1     112.114 128.006 138.388  0.00  0.00    +0.000 OA
ATOM      2  C   UNL     1     112.291 127.698 137.004  0.00  0.00    +0.000 A 
ATOM      3  C   UNL     1     111.876 128.084 137.602  0.00  0.00    +0.000 A 
ATOM      4  C   UNL     1     112.053 127.776 136.218  0.00  0.00    +0.000 A 
ATOM      5  C   UNL     1     110.982 128.629 136.629  0.00  0.00    +0.000 A 
ATOM      6  C   UNL     1     111.221 128.550 137.414  0.00  0.00    +0.000 A 
ATOM      7  C   UNL     1     111.399 128.242 136.030  0.00  0.00    +0.000 A 
ENDROOT
BRANCH   5  12
ATOM      8  O   UNL     1     110.407 129.915 136.387  0.00  0.00    +0.000 OA
ATOM      9  O   UNL     1     107.601 130.139 135.738  0.00  0.00    +0.000 OA
ATOM     10  O   UNL     1     108.207 128.854 135.986  0.00  0.00    +0.000 OA
ATOM     11  O   UNL     1     109.251 132.543 135.897  0.00  0.00    +0.000 OA
ATOM     12  C   UNL     1     110.328 129.095 136.441  0.00  0.00    +0.000 A 
ATOM     13  C   UNL     1     109.595 128.742 136.308  0.00  0.00    +0.000 A 
ATOM     14  C   UNL     1     109.019 130.027 136.066  0.00  0.00    +0.000 A 
ATOM     15  C   UNL     1     109.753 130.381 136.199  0.00  0.00    +0.000 A 
ATOM     16  C   UNL     1     108.941 129.208 136.120  0.00  0.00    +0.000 A 
ATOM     17  C   UNL     1     108.330 130.501 135.870  0.00  0.00    +0.000 A 
ATOM     18  C   UNL     1     109.847 131.234 136.146  0.00  0.00    +0.000 A 
ATOM     19  C   UNL     1     108.405 131.356 135.812  0.00  0.00    +0.000 A 
ATOM     20  C   UNL     1     109.169 131.724 135.951  0.00  0.00    +0.000 A 
BRANCH  13  21
ATOM     21  O   UNL     1     109.516 127.922 136.361  0.00  0.00    +0.000 OA
ATOM     22  C   UNL     1     108.854 127.549 136.040  0.00  0.00    +0.000 C 
ENDBRANCH  13  21
BRANCH  19  23
ATOM     23  O   UNL     1     107.749 131.819 135.624  0.00  0.00    +0.000 OA
ATOM     24  C   UNL     1     107.672 132.137 134.867  0.00  0.00    +0.000 C 
ENDBRANCH  19  23
ENDBRANCH   5  12
BRANCH   2  25
ATOM     25  O   UNL     1     112.946 127.232 137.191  0.00  0.00    +0.000 OA
BRANCH  25  34
ATOM     26  O   UNL     1     112.280 125.968 137.165  0.00  0.00    +0.000 OA
ATOM     27  O   UNL     1     114.281 124.935 136.139  0.00  0.00    +0.000 OA
ATOM     28  O   UNL     1     112.948 124.016 136.454  0.00  0.00    +0.000 OA
ATOM     29  O   UNL     1     114.280 126.543 136.507  0.00  0.00    +0.000 OA
ATOM     30  C   UNL     1     113.614 125.279 136.481  0.00  0.00    +0.000 C 
ATOM     31  C   UNL     1     112.948 124.819 136.638  0.00  0.00    +0.000 C 
ATOM     32  C   UNL     1     113.614 126.083 136.665  0.00  0.00    +0.000 C 
ATOM     33  C   UNL     1     112.281 125.164 136.980  0.00  0.00    +0.000 C 
ATOM     34  C   UNL     1     112.947 126.428 137.007  0.00  0.00    +0.000 C 
BRANCH  33  37
ATOM     35  O   UNL     1     111.062 124.561 136.542  0.00  0.00    +0.000 OA
ATOM     36  O   UNL     1     111.499 124.389 137.892  0.00  0.00    +0.000 OA
ATOM     37  C   UNL     1     111.614 124.705 137.138  0.00  0.00    +0.000 C 
ENDBRANCH  33  37
ENDBRANCH  25  34
ENDBRANCH   2  25
TORSDOF 6
ENDMDL
MODEL 3
REMARK VINA RESULT:      -8.9      4.156      4.994
REMARK  Name = 21722022
REMARK  6 active torsions:
REMARK  status: ('A' for Active; 'I' for Inactive)
REMARK    1  A    between atoms: O_2  and  C_19
REMARK    2  A    between atoms: O_2  and  C_21
REMARK    3  A    between atoms: O_10  and  C_28
REMARK    4  A    between atoms: O_11  and  C_34
REMARK    5  A    between atoms: C_18  and  C_20
REMARK    6  A    between atoms: C_24  and  C_27
REMARK                            x       y       z     vdW  Elec       q    Type
REMARK                         _______ _______ _______ _____ _____    ______ ____
ROOT
ATOM      1  O   UNL     1     110.063 129.861 134.674  0.00  0.00    +0.000 OA
ATOM      2  C   UNL     1     109.724 129.715 136.054  0.00  0.00    +0.000 A 
ATOM      3  C   UNL     1     110.148 129.465 135.393  0.00  0.00    +0.000 A 
ATOM      4  C   UNL     1     109.809 129.319 136.774  0.00  0.00    +0.000 A 
ATOM      5  C   UNL     1     110.743 128.422 136.168  0.00  0.00    +0.000 A 
ATOM      6  C   UNL     1     110.657 128.819 135.450  0.00  0.00    +0.000 A 
ATOM      7  C   UNL     1     110.318 128.673 136.830  0.00  0.00    +0.000 A 
ENDROOT
BRANCH   5  12
ATOM      8  O   UNL     1     110.963 127.012 136.116  0.00  0.00    +0.000 OA
ATOM      9  O   UNL     1     113.610 125.947 136.567  0.00  0.00    +0.000 OA
ATOM     10  O   UNL     1     113.361 127.367 136.615  0.00  0.00    +0.000 OA
ATOM     11  O   UNL     1     111.393 124.133 136.005  0.00  0.00    +0.000 OA
ATOM     12  C   UNL     1     111.253 127.776 136.225  0.00  0.00    +0.000 A 
ATOM     13  C   UNL     1     112.052 127.895 136.391  0.00  0.00    +0.000 A 
ATOM     14  C   UNL     1     112.272 126.484 136.339  0.00  0.00    +0.000 A 
ATOM     15  C   UNL     1     111.472 126.365 136.173  0.00  0.00    +0.000 A 
ATOM     16  C   UNL     1     112.561 127.249 136.448  0.00  0.00    +0.000 A 
ATOM     17  C   UNL     1     112.813 125.819 136.401  0.00  0.00    +0.000 A 
ATOM     18  C   UNL     1     111.159 125.573 136.057  0.00  0.00    +0.000 A 
ATOM     19  C   UNL     1     112.518 125.020 136.288  0.00  0.00    +0.000 A 
ATOM     20  C   UNL     1     111.685 124.897 136.115  0.00  0.00    +0.000 A 
BRANCH  13  21
ATOM     21  O   UNL     1     112.342 128.660 136.501  0.00  0.00    +0.000 OA
ATOM     22  C   UNL     1     113.023 128.782 136.948  0.00  0.00    +0.000 C 
ENDBRANCH  13  21
BRANCH  19  23
ATOM     23  O   UNL     1     113.030 124.375 136.346  0.00  0.00    +0.000 OA
ATOM     24  C   UNL     1     113.025 123.904 137.023  0.00  0.00    +0.000 C 
ENDBRANCH  19  23
ENDBRANCH   5  12
BRANCH   2  25
ATOM     25  O   UNL     1     109.214 130.361 135.997  0.00  0.00    +0.000 OA
BRANCH  25  34
ATOM     26  O   UNL     1     110.000 131.334 136.689  0.00  0.00    +0.000 OA
ATOM     27  O   UNL     1     107.976 132.128 137.872  0.00  0.00    +0.000 OA
ATOM     28  O   UNL     1     109.436 132.835 138.169  0.00  0.00    +0.000 OA
ATOM     29  O   UNL     1     107.865 130.890 136.786  0.00  0.00    +0.000 OA
ATOM     30  C   UNL     1     108.651 131.863 137.478  0.00  0.00    +0.000 C 
ATOM     31  C   UNL     1     109.380 132.217 137.627  0.00  0.00    +0.000 C 
ATOM     32  C   UNL     1     108.594 131.244 136.935  0.00  0.00    +0.000 C 
ATOM     33  C   UNL     1     110.055 131.952 137.232  0.00  0.00    +0.000 C 
ATOM     34  C   UNL     1     109.269 130.980 136.541  0.00  0.00    +0.000 C 
BRANCH  33  37
ATOM     35  O   UNL     1     111.243 132.054 138.020  0.00  0.00    +0.000 OA
ATOM     36  O   UNL     1     111.059 132.910 136.890  0.00  0.00    +0.000 OA
ATOM     37  C   UNL     1     110.785 132.306 137.380  0.00  0.00    +0.000 C 
ENDBRANCH  33  37
ENDBRANCH  25  34
ENDBRANCH   2  25
TORSDOF 6
ENDMDL
MODEL 4
REMARK VINA RESULT:      -8.8      2.664      5.920
REMARK  Name = 21722022
REMARK  6 active torsions:
REMARK  status: ('A' for Active; 'I' for Inactive)
REMARK    1  A    between atoms: O_2  and  C_19
REMARK    2  A    between atoms: O_2  and  C_21
REMARK    3  A    between atoms: O_10  and  C_28
REMARK    4  A    between atoms: O_11  and  C_34
REMARK    5  A    between atoms: C_18  and  C_20
REMARK    6  A    between atoms: C_24  and  C_27
REMARK                            x       y       z     vdW  Elec       q    Type
REMARK                         _______ _______ _______ _____ _____    ______ ____
ROOT
ATOM      1  O   UNL     1     111.998 126.240 139.926  0.00  0.00    +0.000 OA
ATOM      2  C   UNL     1     112.641 126.680 138.728  0.00  0.00    +0.000 A 
ATOM      3  C   UNL     1     112.047 126.768 139.293  0.00  0.00    +0.000 A 
ATOM      4  C   UNL     1     112.690 127.207 138.095  0.00  0.00    +0.000 A 
ATOM      5  C   UNL     1     111.550 127.910 138.594  0.00  0.00    +0.000 A 
ATOM      6  C   UNL     1     111.502 127.383 139.226  0.00  0.00    +0.000 A 
ATOM      7  C   UNL     1     112.145 127.822 138.028  0.00  0.00    +0.000 A 
ENDROOT
BRANCH   5  12
ATOM      8  O   UNL     1     111.165 129.258 138.873  0.00  0.00    +0.000 OA
ATOM      9  O   UNL     1     108.636 130.263 137.902  0.00  0.00    +0.000 OA
ATOM     10  O   UNL     1     109.049 128.907 137.635  0.00  0.00    +0.000 OA
ATOM     11  O   UNL     1     110.394 132.007 139.450  0.00  0.00    +0.000 OA
ATOM     12  C   UNL     1     111.005 128.526 138.527  0.00  0.00    +0.000 A 
ATOM     13  C   UNL     1     110.300 128.409 138.115  0.00  0.00    +0.000 A 
ATOM     14  C   UNL     1     109.914 129.756 138.393  0.00  0.00    +0.000 A 
ATOM     15  C   UNL     1     110.619 129.873 138.806  0.00  0.00    +0.000 A 
ATOM     16  C   UNL     1     109.755 129.024 138.048  0.00  0.00    +0.000 A 
ATOM     17  C   UNL     1     109.338 130.389 138.316  0.00  0.00    +0.000 A 
ATOM     18  C   UNL     1     110.796 130.632 139.170  0.00  0.00    +0.000 A 
ATOM     19  C   UNL     1     109.498 131.154 138.674  0.00  0.00    +0.000 A 
ATOM     20  C   UNL     1     110.232 131.276 139.103  0.00  0.00    +0.000 A 
BRANCH  13  21
ATOM     21  O   UNL     1     110.140 127.677 137.769  0.00  0.00    +0.000 OA
ATOM     22  C   UNL     1     109.644 127.630 137.112  0.00  0.00    +0.000 C 
ENDBRANCH  13  21
BRANCH  19  23
ATOM     23  O   UNL     1     108.950 131.768 138.605  0.00  0.00    +0.000 OA
ATOM     24  C   UNL     1     109.012 132.308 137.984  0.00  0.00    +0.000 C 
ENDBRANCH  19  23
ENDBRANCH   5  12
BRANCH   2  25
ATOM     25  O   UNL     1     113.187 126.065 138.795  0.00  0.00    +0.000 OA
BRANCH  25  34
ATOM     26  O   UNL     1     112.636 125.187 137.811  0.00  0.00    +0.000 OA
ATOM     27  O   UNL     1     114.917 124.651 137.014  0.00  0.00    +0.000 OA
ATOM     28  O   UNL     1     113.607 123.952 136.296  0.00  0.00    +0.000 OA
ATOM     29  O   UNL     1     114.707 125.707 138.264  0.00  0.00    +0.000 OA
ATOM     30  C   UNL     1     114.157 124.829 137.279  0.00  0.00    +0.000 C 
ATOM     31  C   UNL     1     113.502 124.480 136.920  0.00  0.00    +0.000 C 
ATOM     32  C   UNL     1     114.053 125.358 137.905  0.00  0.00    +0.000 C 
ATOM     33  C   UNL     1     112.742 124.659 137.186  0.00  0.00    +0.000 C 
ATOM     34  C   UNL     1     113.292 125.537 138.170  0.00  0.00    +0.000 C 
BRANCH  33  37
ATOM     35  O   UNL     1     111.759 123.622 137.147  0.00  0.00    +0.000 OA
ATOM     36  O   UNL     1     111.758 124.647 136.150  0.00  0.00    +0.000 OA
ATOM     37  C   UNL     1     112.087 124.310 136.827  0.00  0.00    +0.000 C 
ENDBRANCH  33  37
ENDBRANCH  25  34
ENDBRANCH   2  25
TORSDOF 6
ENDMDL
MODEL 5
REMARK VINA RESULT:      -8.8      4.129      4.980
REMARK  Name = 21722022
REMARK  6 active torsions:
REMARK  status: ('A' for Active; 'I' for Inactive)
REMARK    1  A    between atoms: O_2  and  C_19
REMARK    2  A    between atoms: O_2  and  C_21
REMARK    3  A    between atoms: O_10  and  C_28
REMARK    4  A    between atoms: O_11  and  C_34
REMARK    5  A    between atoms: C_18  and  C_20
REMARK    6  A    between atoms: C_24  and  C_27
REMARK                            x       y       z     vdW  Elec       q    Type
REMARK                         _______ _______ _______ _____ _____    ______ ____
ROOT
ATOM      1  O   UNL     1     110.214 129.925 134.655  0.00  0.00    +0.000 OA
ATOM      2  C   UNL     1     109.627 129.661 135.931  0.00  0.00    +0.000 A 
ATOM      3  C   UNL     1     110.115 129.430 135.308  0.00  0.00    +0.000 A 
ATOM      4  C   UNL     1     109.528 129.166 136.584  0.00  0.00    +0.000 A 
ATOM      5  C   UNL     1     110.406 128.208 135.989  0.00  0.00    +0.000 A 
ATOM      6  C   UNL     1     110.504 128.703 135.337  0.00  0.00    +0.000 A 
ATOM      7  C   UNL     1     109.917 128.440 136.613  0.00  0.00    +0.000 A 
ENDROOT
BRANCH   5  12
ATOM      8  O   UNL     1     111.577 127.442 136.279  0.00  0.00    +0.000 OA
ATOM      9  O   UNL     1     111.568 124.582 135.867  0.00  0.00    +0.000 OA
ATOM     10  O   UNL     1     110.399 125.379 135.583  0.00  0.00    +0.000 OA
ATOM     11  O   UNL     1     113.973 125.897 136.874  0.00  0.00    +0.000 OA
ATOM     12  C   UNL     1     110.795 127.481 136.018  0.00  0.00    +0.000 A 
ATOM     13  C   UNL     1     110.403 126.794 135.786  0.00  0.00    +0.000 A 
ATOM     14  C   UNL     1     111.574 126.027 136.075  0.00  0.00    +0.000 A 
ATOM     15  C   UNL     1     111.966 126.716 136.307  0.00  0.00    +0.000 A 
ATOM     16  C   UNL     1     110.792 126.067 135.815  0.00  0.00    +0.000 A 
ATOM     17  C   UNL     1     111.968 125.265 136.101  0.00  0.00    +0.000 A 
ATOM     18  C   UNL     1     112.781 126.687 136.581  0.00  0.00    +0.000 A 
ATOM     19  C   UNL     1     112.783 125.217 136.372  0.00  0.00    +0.000 A 
ATOM     20  C   UNL     1     113.191 125.933 136.613  0.00  0.00    +0.000 A 
BRANCH  13  21
ATOM     21  O   UNL     1     109.621 126.832 135.525  0.00  0.00    +0.000 OA
ATOM     22  C   UNL     1     109.297 126.207 135.096  0.00  0.00    +0.000 C 
ENDBRANCH  13  21
BRANCH  19  23
ATOM     23  O   UNL     1     113.170 124.489 136.399  0.00  0.00    +0.000 OA
ATOM     24  C   UNL     1     113.260 124.097 137.120  0.00  0.00    +0.000 C 
ENDBRANCH  19  23
ENDBRANCH   5  12
BRANCH   2  25
ATOM     25  O   UNL     1     109.238 130.388 135.902  0.00  0.00    +0.000 OA
BRANCH  25  34
ATOM     26  O   UNL     1     110.045 131.133 136.817  0.00  0.00    +0.000 OA
ATOM     27  O   UNL     1     108.002 132.062 137.861  0.00  0.00    +0.000 OA
ATOM     28  O   UNL     1     109.489 132.497 138.427  0.00  0.00    +0.000 OA
ATOM     29  O   UNL     1     107.876 131.008 136.599  0.00  0.00    +0.000 OA
ATOM     30  C   UNL     1     108.683 131.753 137.513  0.00  0.00    +0.000 C 
ATOM     31  C   UNL     1     109.426 131.970 137.796  0.00  0.00    +0.000 C 
ATOM     32  C   UNL     1     108.619 131.225 136.882  0.00  0.00    +0.000 C 
ATOM     33  C   UNL     1     110.107 131.660 137.448  0.00  0.00    +0.000 C 
ATOM     34  C   UNL     1     109.300 130.915 136.534  0.00  0.00    +0.000 C 
BRANCH  33  37
ATOM     35  O   UNL     1     111.170 131.493 138.389  0.00  0.00    +0.000 OA
ATOM     36  O   UNL     1     111.276 132.477 137.357  0.00  0.00    +0.000 OA
ATOM     37  C   UNL     1     110.851 131.877 137.731  0.00  0.00    +0.000 C 
ENDBRANCH  33  37
ENDBRANCH  25  34
ENDBRANCH   2  25
TORSDOF 6
ENDMDL
MODEL 6
REMARK VINA RESULT:      -8.7      4.070      4.799
REMARK  Name = 21722022
REMARK  6 active torsions:
REMARK  status: ('A' for Active; 'I' for Inactive)
REMARK    1  A    between atoms: O_2  and  C_19
REMARK    2  A    between atoms: O_2  and  C_21
REMARK    3  A    between atoms: O_10  and  C_28
REMARK    4  A    between atoms: O_11  and  C_34
REMARK    5  A    between atoms: C_18  and  C_20
REMARK    6  A    between atoms: C_24  and  C_27
REMARK                            x       y       z     vdW  Elec       q    Type
REMARK                         _______ _______ _______ _____ _____    ______ ____
ROOT
ATOM      1  O   UNL     1     112.340 129.748 135.112  0.00  0.00    +0.000 OA
ATOM      2  C   UNL     1     111.529 129.701 136.288  0.00  0.00    +0.000 A 
ATOM      3  C   UNL     1     111.952 129.313 135.696  0.00  0.00    +0.000 A 
ATOM      4  C   UNL     1     111.141 129.266 136.872  0.00  0.00    +0.000 A 
ATOM      5  C   UNL     1     111.600 128.053 136.271  0.00  0.00    +0.000 A 
ATOM      6  C   UNL     1     111.988 128.489 135.688  0.00  0.00    +0.000 A 
ATOM      7  C   UNL     1     111.177 128.442 136.863  0.00  0.00    +0.000 A 
ENDROOT
BRANCH   5  12
ATOM      8  O   UNL     1     112.288 126.841 136.588  0.00  0.00    +0.000 OA
ATOM      9  O   UNL     1     111.113 124.294 135.897  0.00  0.00    +0.000 OA
ATOM     10  O   UNL     1     110.440 125.532 135.589  0.00  0.00    +0.000 OA
ATOM     11  O   UNL     1     113.704 124.381 137.241  0.00  0.00    +0.000 OA
ATOM     12  C   UNL     1     111.636 127.229 136.263  0.00  0.00    +0.000 A 
ATOM     13  C   UNL     1     111.021 126.793 135.930  0.00  0.00    +0.000 A 
ATOM     14  C   UNL     1     111.707 125.580 136.247  0.00  0.00    +0.000 A 
ATOM     15  C   UNL     1     112.324 126.017 136.580  0.00  0.00    +0.000 A 
ATOM     16  C   UNL     1     111.056 125.969 135.922  0.00  0.00    +0.000 A 
ATOM     17  C   UNL     1     111.733 124.722 136.232  0.00  0.00    +0.000 A 
ATOM     18  C   UNL     1     113.008 125.624 136.921  0.00  0.00    +0.000 A 
ATOM     19  C   UNL     1     112.409 124.311 136.569  0.00  0.00    +0.000 A 
ATOM     20  C   UNL     1     113.051 124.766 136.916  0.00  0.00    +0.000 A 
BRANCH  13  21
ATOM     21  O   UNL     1     110.368 127.180 135.605  0.00  0.00    +0.000 OA
ATOM     22  C   UNL     1     109.936 126.824 135.001  0.00  0.00    +0.000 C 
ENDBRANCH  13  21
BRANCH  19  23
ATOM     23  O   UNL     1     112.442 123.487 136.559  0.00  0.00    +0.000 OA
ATOM     24  C   UNL     1     112.190 123.057 137.216  0.00  0.00    +0.000 C 
ENDBRANCH  19  23
ENDBRANCH   5  12
BRANCH   2  25
ATOM     25  O   UNL     1     111.493 130.526 136.296  0.00  0.00    +0.000 OA
BRANCH  25  34
ATOM     26  O   UNL     1     110.145 130.659 135.842  0.00  0.00    +0.000 OA
ATOM     27  O   UNL     1     109.804 132.545 137.407  0.00  0.00    +0.000 OA
ATOM     28  O   UNL     1     108.570 132.050 136.431  0.00  0.00    +0.000 OA
ATOM     29  O   UNL     1     111.266 131.783 137.339  0.00  0.00    +0.000 OA
ATOM     30  C   UNL     1     109.918 131.917 136.885  0.00  0.00    +0.000 C 
ATOM     31  C   UNL     1     109.301 131.669 136.398  0.00  0.00    +0.000 C 
ATOM     32  C   UNL     1     110.649 131.536 136.852  0.00  0.00    +0.000 C 
ATOM     33  C   UNL     1     109.414 131.040 135.876  0.00  0.00    +0.000 C 
ATOM     34  C   UNL     1     110.763 130.907 136.330  0.00  0.00    +0.000 C 
BRANCH  33  37
ATOM     35  O   UNL     1     108.748 131.072 134.612  0.00  0.00    +0.000 OA
ATOM     36  O   UNL     1     108.231 130.265 135.674  0.00  0.00    +0.000 OA
ATOM     37  C   UNL     1     108.798 130.792 135.388  0.00  0.00    +0.000 C 
ENDBRANCH  33  37
ENDBRANCH  25  34
ENDBRANCH   2  25
TORSDOF 6
ENDMDL
MODEL 7
REMARK VINA RESULT:      -8.7      2.457      5.847
REMARK  Name = 21722022
REMARK  6 active torsions:
REMARK  status: ('A' for Active; 'I' for Inactive)
REMARK    1  A    between atoms: O_2  and  C_19
REMARK    2  A    between atoms: O_2  and  C_21
REMARK    3  A    between atoms: O_10  and  C_28
REMARK    4  A    between atoms: O_11  and  C_34
REMARK    5  A    between atoms: C_18  and  C_20
REMARK    6  A    between atoms: C_24  and  C_27
REMARK                            x       y       z     vdW  Elec       q    Type
REMARK                         _______ _______ _______ _____ _____    ______ ____
ROOT
ATOM      1  O   UNL     1     112.359 126.340 140.135  0.00  0.00    +0.000 OA
ATOM      2  C   UNL     1     113.027 126.781 138.952  0.00  0.00    +0.000 A 
ATOM      3  C   UNL     1     112.474 126.910 139.549  0.00  0.00    +0.000 A 
ATOM      4  C   UNL     1     113.141 127.351 138.365  0.00  0.00    +0.000 A 
ATOM      5  C   UNL     1     112.147 128.177 138.975  0.00  0.00    +0.000 A 
ATOM      6  C   UNL     1     112.034 127.607 139.561  0.00  0.00    +0.000 A 
ATOM      7  C   UNL     1     112.702 128.048 138.377  0.00  0.00    +0.000 A 
ENDROOT
BRANCH   5  12
ATOM      8  O   UNL     1     110.955 128.894 138.649  0.00  0.00    +0.000 OA
ATOM      9  O   UNL     1     110.701 131.677 139.382  0.00  0.00    +0.000 OA
ATOM     10  O   UNL     1     111.893 130.930 139.700  0.00  0.00    +0.000 OA
ATOM     11  O   UNL     1     108.519 130.341 137.975  0.00  0.00    +0.000 OA
ATOM     12  C   UNL     1     111.708 128.875 138.987  0.00  0.00    +0.000 A 
ATOM     13  C   UNL     1     112.020 129.553 139.337  0.00  0.00    +0.000 A 
ATOM     14  C   UNL     1     110.828 130.271 139.011  0.00  0.00    +0.000 A 
ATOM     15  C   UNL     1     110.516 129.592 138.661  0.00  0.00    +0.000 A 
ATOM     16  C   UNL     1     111.580 130.251 139.349  0.00  0.00    +0.000 A 
ATOM     17  C   UNL     1     110.380 131.004 139.030  0.00  0.00    +0.000 A 
ATOM     18  C   UNL     1     109.733 129.600 138.305  0.00  0.00    +0.000 A 
ATOM     19  C   UNL     1     109.596 131.031 138.679  0.00  0.00    +0.000 A 
ATOM     20  C   UNL     1     109.271 130.324 138.314  0.00  0.00    +0.000 A 
BRANCH  13  21
ATOM     21  O   UNL     1     112.772 129.534 139.676  0.00  0.00    +0.000 OA
ATOM     22  C   UNL     1     112.977 130.081 140.257  0.00  0.00    +0.000 C 
ENDBRANCH  13  21
BRANCH  19  23
ATOM     23  O   UNL     1     109.158 131.730 138.693  0.00  0.00    +0.000 OA
ATOM     24  C   UNL     1     109.089 132.186 138.009  0.00  0.00    +0.000 C 
ENDBRANCH  19  23
ENDBRANCH   5  12
BRANCH   2  25
ATOM     25  O   UNL     1     113.467 126.083 138.940  0.00  0.00    +0.000 OA
BRANCH  25  34
ATOM     26  O   UNL     1     112.768 125.390 137.903  0.00  0.00    +0.000 OA
ATOM     27  O   UNL     1     114.926 124.651 136.943  0.00  0.00    +0.000 OA
ATOM     28  O   UNL     1     113.509 124.205 136.228  0.00  0.00    +0.000 OA
ATOM     29  O   UNL     1     114.905 125.591 138.299  0.00  0.00    +0.000 OA
ATOM     30  C   UNL     1     114.207 124.898 137.263  0.00  0.00    +0.000 C 
ATOM     31  C   UNL     1     113.498 124.674 136.905  0.00  0.00    +0.000 C 
ATOM     32  C   UNL     1     114.197 125.368 137.941  0.00  0.00    +0.000 C 
ATOM     33  C   UNL     1     112.779 124.921 137.225  0.00  0.00    +0.000 C 
ATOM     34  C   UNL     1     113.478 125.614 138.262  0.00  0.00    +0.000 C 
BRANCH  33  37
ATOM     35  O   UNL     1     111.789 125.115 136.213  0.00  0.00    +0.000 OA
ATOM     36  O   UNL     1     111.641 124.058 137.164  0.00  0.00    +0.000 OA
ATOM     37  C   UNL     1     112.070 124.697 136.868  0.00  0.00    +0.000 C 
ENDBRANCH  33  37
ENDBRANCH  25  34
ENDBRANCH   2  25
TORSDOF 6
ENDMDL
MODEL 8
REMARK VINA RESULT:      -8.7      3.321      3.916
REMARK  Name = 21722022
REMARK  6 active torsions:
REMARK  status: ('A' for Active; 'I' for Inactive)
REMARK    1  A    between atoms: O_2  and  C_19
REMARK    2  A    between atoms: O_2  and  C_21
REMARK    3  A    between atoms: O_10  and  C_28
REMARK    4  A    between atoms: O_11  and  C_34
REMARK    5  A    between atoms: C_18  and  C_20
REMARK    6  A    between atoms: C_24  and  C_27
REMARK                            x       y       z     vdW  Elec       q    Type
REMARK                         _______ _______ _______ _____ _____    ______ ____
ROOT
ATOM      1  O   UNL     1     112.835 130.574 138.945  0.00  0.00    +0.000 OA
ATOM      2  C   UNL     1     111.994 130.584 137.789  0.00  0.00    +0.000 A 
ATOM      3  C   UNL     1     112.493 130.179 138.306  0.00  0.00    +0.000 A 
ATOM      4  C   UNL     1     111.653 130.188 137.150  0.00  0.00    +0.000 A 
ATOM      5  C   UNL     1     112.310 128.982 137.546  0.00  0.00    +0.000 A 
ATOM      6  C   UNL     1     112.651 129.379 138.184  0.00  0.00    +0.000 A 
ATOM      7  C   UNL     1     111.811 129.388 137.029  0.00  0.00    +0.000 A 
ENDROOT
BRANCH   5  12
ATOM      8  O   UNL     1     111.996 127.609 137.784  0.00  0.00    +0.000 OA
ATOM      9  O   UNL     1     113.592 125.532 136.565  0.00  0.00    +0.000 OA
ATOM     10  O   UNL     1     113.888 126.926 136.341  0.00  0.00    +0.000 OA
ATOM     11  O   UNL     1     111.340 124.815 138.280  0.00  0.00    +0.000 OA
ATOM     12  C   UNL     1     112.469 128.182 137.425  0.00  0.00    +0.000 A 
ATOM     13  C   UNL     1     113.099 127.955 136.944  0.00  0.00    +0.000 A 
ATOM     14  C   UNL     1     112.785 126.581 137.182  0.00  0.00    +0.000 A 
ATOM     15  C   UNL     1     112.154 126.809 137.663  0.00  0.00    +0.000 A 
ATOM     16  C   UNL     1     113.257 127.154 136.823  0.00  0.00    +0.000 A 
ATOM     17  C   UNL     1     112.959 125.750 137.047  0.00  0.00    +0.000 A 
ATOM     18  C   UNL     1     111.654 126.221 138.043  0.00  0.00    +0.000 A 
ATOM     19  C   UNL     1     112.471 125.148 137.419  0.00  0.00    +0.000 A 
ATOM     20  C   UNL     1     111.814 125.386 137.920  0.00  0.00    +0.000 A 
BRANCH  13  21
ATOM     21  O   UNL     1     113.572 128.527 136.584  0.00  0.00    +0.000 OA
ATOM     22  C   UNL     1     113.986 128.347 135.895  0.00  0.00    +0.000 C 
ENDBRANCH  13  21
BRANCH  19  23
ATOM     23  O   UNL     1     112.631 124.348 137.295  0.00  0.00    +0.000 OA
ATOM     24  C   UNL     1     112.166 123.910 136.774  0.00  0.00    +0.000 C 
ENDBRANCH  19  23
ENDBRANCH   5  12
BRANCH   2  25
ATOM     25  O   UNL     1     111.836 131.384 137.911  0.00  0.00    +0.000 OA
BRANCH  25  34
ATOM     26  O   UNL     1     110.516 131.291 138.449  0.00  0.00    +0.000 OA
ATOM     27  O   UNL     1     109.796 133.171 137.010  0.00  0.00    +0.000 OA
ATOM     28  O   UNL     1     108.716 132.451 138.027  0.00  0.00    +0.000 OA
ATOM     29  O   UNL     1     111.356 132.638 136.951  0.00  0.00    +0.000 OA
ATOM     30  C   UNL     1     110.036 132.544 137.489  0.00  0.00    +0.000 C 
ATOM     31  C   UNL     1     109.496 132.185 137.998  0.00  0.00    +0.000 C 
ATOM     32  C   UNL     1     110.816 132.278 137.460  0.00  0.00    +0.000 C 
ATOM     33  C   UNL     1     109.736 131.558 138.478  0.00  0.00    +0.000 C 
ATOM     34  C   UNL     1     111.056 131.651 137.940  0.00  0.00    +0.000 C 
BRANCH  33  37
ATOM     35  O   UNL     1     109.188 131.398 139.788  0.00  0.00    +0.000 OA
ATOM     36  O   UNL     1     108.665 130.638 138.697  0.00  0.00    +0.000 OA
ATOM     37  C   UNL     1     109.196 131.198 138.987  0.00  0.00    +0.000 C 
ENDBRANCH  33  37
ENDBRANCH  25  34
ENDBRANCH   2  25
TORSDOF 6
ENDMDL
MODEL 9
REMARK VINA RESULT:      -8.6      9.282     11.250
REMARK  Name = 21722022
REMARK  6 active torsions:
REMARK  status: ('A' for Active; 'I' for Inactive)
REMARK    1  A    between atoms: O_2  and  C_19
REMARK    2  A    between atoms: O_2  and  C_21
REMARK    3  A    between atoms: O_10  and  C_28
REMARK    4  A    between atoms: O_11  and  C_34
REMARK    5  A    between atoms: C_18  and  C_20
REMARK    6  A    between atoms: C_24  and  C_27
REMARK                            x       y       z     vdW  Elec       q    Type
REMARK                         _______ _______ _______ _____ _____    ______ ____
ROOT
ATOM      1  O   UNL     1     107.249 125.131 146.191  0.00  0.00    +0.000 OA
ATOM      2  C   UNL     1     106.369 126.211 145.874  0.00  0.00    +0.000 A 
ATOM      3  C   UNL     1     106.499 125.474 146.219  0.00  0.00    +0.000 A 
ATOM      4  C   UNL     1     105.619 126.554 145.902  0.00  0.00    +0.000 A 
ATOM      5  C   UNL     1     105.129 125.421 146.622  0.00  0.00    +0.000 A 
ATOM      6  C   UNL     1     105.879 125.079 146.593  0.00  0.00    +0.000 A 
ATOM      7  C   UNL     1     104.999 126.159 146.276  0.00  0.00    +0.000 A 
ENDROOT
BRANCH   5  12
ATOM      8  O   UNL     1     104.007 124.539 146.558  0.00  0.00    +0.000 OA
ATOM      9  O   UNL     1     102.517 123.926 148.957  0.00  0.00    +0.000 OA
ATOM     10  O   UNL     1     103.654 124.813 148.994  0.00  0.00    +0.000 OA
ATOM     11  O   UNL     1     101.721 122.739 146.411  0.00  0.00    +0.000 OA
ATOM     12  C   UNL     1     104.509 125.026 146.996  0.00  0.00    +0.000 A 
ATOM     13  C   UNL     1     104.392 125.117 147.807  0.00  0.00    +0.000 A 
ATOM     14  C   UNL     1     103.269 124.235 147.745  0.00  0.00    +0.000 A 
ATOM     15  C   UNL     1     103.387 124.144 146.933  0.00  0.00    +0.000 A 
ATOM     16  C   UNL     1     103.772 124.722 148.181  0.00  0.00    +0.000 A 
ATOM     17  C   UNL     1     102.627 123.829 148.146  0.00  0.00    +0.000 A 
ATOM     18  C   UNL     1     102.869 123.639 146.466  0.00  0.00    +0.000 A 
ATOM     19  C   UNL     1     102.100 123.320 147.696  0.00  0.00    +0.000 A 
ATOM     20  C   UNL     1     102.222 123.225 146.851  0.00  0.00    +0.000 A 
BRANCH  13  21
ATOM     21  O   UNL     1     104.894 125.604 148.245  0.00  0.00    +0.000 OA
ATOM     22  C   UNL     1     105.005 125.465 149.050  0.00  0.00    +0.000 C 
ENDBRANCH  13  21
BRANCH  19  23
ATOM     23  O   UNL     1     101.480 122.926 148.073  0.00  0.00    +0.000 OA
ATOM     24  C   UNL     1     100.715 123.232 148.039  0.00  0.00    +0.000 C 
ENDBRANCH  19  23
ENDBRANCH   5  12
BRANCH   2  25
ATOM     25  O   UNL     1     106.989 126.607 145.500  0.00  0.00    +0.000 OA
BRANCH  25  34
ATOM     26  O   UNL     1     106.657 126.289 144.146  0.00  0.00    +0.000 OA
ATOM     27  O   UNL     1     107.219 128.602 143.467  0.00  0.00    +0.000 OA
ATOM     28  O   UNL     1     106.700 127.514 142.341  0.00  0.00    +0.000 OA
ATOM     29  O   UNL     1     107.363 128.148 145.047  0.00  0.00    +0.000 OA
ATOM     30  C   UNL     1     107.031 127.831 143.693  0.00  0.00    +0.000 C 
ATOM     31  C   UNL     1     106.772 127.288 143.130  0.00  0.00    +0.000 C 
ATOM     32  C   UNL     1     107.104 127.605 144.484  0.00  0.00    +0.000 C 
ATOM     33  C   UNL     1     106.585 126.517 143.357  0.00  0.00    +0.000 C 
ATOM     34  C   UNL     1     106.917 126.834 144.710  0.00  0.00    +0.000 C 
BRANCH  33  37
ATOM     35  O   UNL     1     105.533 125.964 142.564  0.00  0.00    +0.000 OA
ATOM     36  O   UNL     1     106.858 125.437 142.461  0.00  0.00    +0.000 OA
ATOM     37  C   UNL     1     106.326 125.972 142.794  0.00  0.00    +0.000 C 
ENDBRANCH  33  37
ENDBRANCH  25  34
ENDBRANCH   2  25
TORSDOF 6
ENDMDL
MODEL 10
REMARK VINA RESULT:      -8.6      3.252      6.463
REMARK  Name = 21722022
REMARK  6 active torsions:
REMARK  status: ('A' for Active; 'I' for Inactive)
REMARK    1  A    between atoms: O_2  and  C_19
REMARK    2  A    between atoms: O_2  and  C_21
REMARK    3  A    between atoms: O_10  and  C_28
REMARK    4  A    between atoms: O_11  and  C_34
REMARK    5  A    between atoms: C_18  and  C_20
REMARK    6  A    between atoms: C_24  and  C_27
REMARK                            x       y       z     vdW  Elec       q    Type
REMARK                         _______ _______ _______ _____ _____    ______ ____
ROOT
ATOM      1  O   UNL     1     114.004 127.690 135.732  0.00  0.00    +0.000 OA
ATOM      2  C   UNL     1     113.274 127.183 136.850  0.00  0.00    +0.000 A 
ATOM      3  C   UNL     1     113.466 127.807 136.347  0.00  0.00    +0.000 A 
ATOM      4  C   UNL     1     112.736 127.299 137.465  0.00  0.00    +0.000 A 
ATOM      5  C   UNL     1     112.582 128.665 137.071  0.00  0.00    +0.000 A 
ATOM      6  C   UNL     1     113.120 128.547 136.457  0.00  0.00    +0.000 A 
ATOM      7  C   UNL     1     112.390 128.040 137.575  0.00  0.00    +0.000 A 
ENDROOT
BRANCH   5  12
ATOM      8  O   UNL     1     111.612 129.645 136.698  0.00  0.00    +0.000 OA
ATOM      9  O   UNL     1     111.479 132.156 138.122  0.00  0.00    +0.000 OA
ATOM     10  O   UNL     1     112.449 131.149 138.477  0.00  0.00    +0.000 OA
ATOM     11  O   UNL     1     109.628 131.632 135.925  0.00  0.00    +0.000 OA
ATOM     12  C   UNL     1     112.237 129.406 137.181  0.00  0.00    +0.000 A 
ATOM     13  C   UNL     1     112.516 129.906 137.774  0.00  0.00    +0.000 A 
ATOM     14  C   UNL     1     111.545 130.888 137.402  0.00  0.00    +0.000 A 
ATOM     15  C   UNL     1     111.266 130.386 136.808  0.00  0.00    +0.000 A 
ATOM     16  C   UNL     1     112.170 130.647 137.884  0.00  0.00    +0.000 A 
ATOM     17  C   UNL     1     111.194 131.661 137.526  0.00  0.00    +0.000 A 
ATOM     18  C   UNL     1     110.616 130.625 136.299  0.00  0.00    +0.000 A 
ATOM     19  C   UNL     1     110.542 131.917 137.027  0.00  0.00    +0.000 A 
ATOM     20  C   UNL     1     110.252 131.395 136.409  0.00  0.00    +0.000 A 
BRANCH  13  21
ATOM     21  O   UNL     1     113.140 129.667 138.257  0.00  0.00    +0.000 OA
ATOM     22  C   UNL     1     113.608 130.230 138.637  0.00  0.00    +0.000 C 
ENDBRANCH  13  21
BRANCH  19  23
ATOM     23  O   UNL     1     110.199 132.659 137.139  0.00  0.00    +0.000 OA
ATOM     24  C   UNL     1     110.434 133.297 136.673  0.00  0.00    +0.000 C 
ENDBRANCH  19  23
ENDBRANCH   5  12
BRANCH   2  25
ATOM     25  O   UNL     1     113.619 126.442 136.740  0.00  0.00    +0.000 OA
BRANCH  25  34
ATOM     26  O   UNL     1     112.398 125.833 136.318  0.00  0.00    +0.000 OA
ATOM     27  O   UNL     1     113.210 123.641 137.132  0.00  0.00    +0.000 OA
ATOM     28  O   UNL     1     111.719 123.762 136.439  0.00  0.00    +0.000 OA
ATOM     29  O   UNL     1     114.161 124.981 137.283  0.00  0.00    +0.000 OA
ATOM     30  C   UNL     1     112.939 124.372 136.861  0.00  0.00    +0.000 C 
ATOM     31  C   UNL     1     112.194 124.432 136.514  0.00  0.00    +0.000 C 
ATOM     32  C   UNL     1     113.415 125.041 136.937  0.00  0.00    +0.000 C 
ATOM     33  C   UNL     1     111.923 125.162 136.243  0.00  0.00    +0.000 C 
ATOM     34  C   UNL     1     113.145 125.772 136.665  0.00  0.00    +0.000 C 
BRANCH  33  37
ATOM     35  O   UNL     1     111.104 125.229 135.074  0.00  0.00    +0.000 OA
ATOM     36  O   UNL     1     110.504 125.279 136.371  0.00  0.00    +0.000 OA
ATOM     37  C   UNL     1     111.177 125.223 135.896  0.00  0.00    +0.000 C 
ENDBRANCH  33  37
ENDBRANCH  25  34
ENDBRANCH   2  25
TORSDOF 6
ENDMDL
