MODEL 1
REMARK VINA RESULT:      -9.1      0.000      0.000
REMARK  Name = 44259474
REMARK  5 active torsions:
REMARK  status: ('A' for Active; 'I' for Inactive)
REMARK    1  A    between atoms: O_2  and  C_18
REMARK    2  A    between atoms: O_2  and  C_20
REMARK    3  A    between atoms: O_10  and  C_32
REMARK    4  A    between atoms: C_17  and  C_19
REMARK    5  A    between atoms: C_21  and  C_24
REMARK                            x       y       z     vdW  Elec       q    Type
REMARK                         _______ _______ _______ _____ _____    ______ ____
ROOT
ATOM      1  O   UNL     1     113.556 126.747 136.802  0.00  0.00    +0.000 OA
ATOM      2  O   UNL     1     111.597 125.457 136.012  0.00  0.00    +0.000 OA
ATOM      3  O   UNL     1     112.242 124.212 136.353  0.00  0.00    +0.000 OA
ATOM      4  O   UNL     1     114.921 124.275 137.516  0.00  0.00    +0.000 OA
ATOM      5  C   UNL     1     112.245 126.711 136.233  0.00  0.00    +0.000 A 
ATOM      6  C   UNL     1     112.899 127.141 136.497  0.00  0.00    +0.000 A 
ATOM      7  C   UNL     1     112.250 125.887 136.276  0.00  0.00    +0.000 A 
ATOM      8  C   UNL     1     112.908 125.493 136.581  0.00  0.00    +0.000 A 
ATOM      9  C   UNL     1     113.560 125.923 136.844  0.00  0.00    +0.000 A 
ATOM     10  C   UNL     1     112.900 124.634 136.619  0.00  0.00    +0.000 A 
ATOM     11  C   UNL     1     114.251 125.525 137.164  0.00  0.00    +0.000 A 
ATOM     12  C   UNL     1     113.582 124.219 136.936  0.00  0.00    +0.000 A 
ATOM     13  C   UNL     1     114.262 124.666 137.211  0.00  0.00    +0.000 A 
ENDROOT
BRANCH   6  16
ATOM     14  O   UNL     1     113.124 129.541 134.962  0.00  0.00    +0.000 OA
ATOM     15  O   UNL     1     112.879 130.436 136.326  0.00  0.00    +0.000 OA
ATOM     16  C   UNL     1     112.894 127.965 136.455  0.00  0.00    +0.000 A 
ATOM     17  C   UNL     1     112.772 128.412 137.137  0.00  0.00    +0.000 A 
ATOM     18  C   UNL     1     113.011 128.341 135.729  0.00  0.00    +0.000 A 
ATOM     19  C   UNL     1     112.767 129.236 137.093  0.00  0.00    +0.000 A 
ATOM     20  C   UNL     1     113.006 129.165 135.687  0.00  0.00    +0.000 A 
ATOM     21  C   UNL     1     112.884 129.612 136.369  0.00  0.00    +0.000 A 
BRANCH  19  22
ATOM     22  O   UNL     1     112.644 129.684 137.775  0.00  0.00    +0.000 OA
ATOM     23  C   UNL     1     112.950 129.428 138.498  0.00  0.00    +0.000 C 
ENDBRANCH  19  22
ENDBRANCH   6  16
BRANCH   5  24
ATOM     24  O   UNL     1     111.588 127.105 135.928  0.00  0.00    +0.000 OA
BRANCH  24  33
ATOM     25  O   UNL     1     110.779 126.879 137.084  0.00  0.00    +0.000 OA
ATOM     26  O   UNL     1     108.750 126.892 135.667  0.00  0.00    +0.000 OA
ATOM     27  O   UNL     1     108.618 126.662 137.295  0.00  0.00    +0.000 OA
ATOM     28  O   UNL     1     110.235 127.113 134.983  0.00  0.00    +0.000 OA
ATOM     29  C   UNL     1     109.426 126.888 136.140  0.00  0.00    +0.000 C 
ATOM     30  C   UNL     1     109.361 126.773 136.954  0.00  0.00    +0.000 C 
ATOM     31  C   UNL     1     110.170 126.998 135.798  0.00  0.00    +0.000 C 
ATOM     32  C   UNL     1     110.037 126.769 137.426  0.00  0.00    +0.000 C 
ATOM     33  C   UNL     1     110.846 126.994 136.270  0.00  0.00    +0.000 C 
BRANCH  32  35
ATOM     34  O   UNL     1     110.196 127.252 138.761  0.00  0.00    +0.000 OA
ATOM     35  C   UNL     1     109.971 126.654 138.240  0.00  0.00    +0.000 C 
ENDBRANCH  32  35
ENDBRANCH  24  33
ENDBRANCH   5  24
TORSDOF 5
ENDMDL
MODEL 2
REMARK VINA RESULT:      -9.1      2.870      5.051
REMARK  Name = 44259474
REMARK  5 active torsions:
REMARK  status: ('A' for Active; 'I' for Inactive)
REMARK    1  A    between atoms: O_2  and  C_18
REMARK    2  A    between atoms: O_2  and  C_20
REMARK    3  A    between atoms: O_10  and  C_32
REMARK    4  A    between atoms: C_17  and  C_19
REMARK    5  A    between atoms: C_21  and  C_24
REMARK                            x       y       z     vdW  Elec       q    Type
REMARK                         _______ _______ _______ _____ _____    ______ ____
ROOT
ATOM      1  O   UNL     1     111.784 129.542 135.854  0.00  0.00    +0.000 OA
ATOM      2  O   UNL     1     112.294 130.867 137.883  0.00  0.00    +0.000 OA
ATOM      3  O   UNL     1     113.688 130.943 137.517  0.00  0.00    +0.000 OA
ATOM      4  O   UNL     1     114.582 129.654 135.053  0.00  0.00    +0.000 OA
ATOM      5  C   UNL     1     111.352 130.175 137.061  0.00  0.00    +0.000 A 
ATOM      6  C   UNL     1     111.182 129.733 136.385  0.00  0.00    +0.000 A 
ATOM      7  C   UNL     1     112.124 130.425 137.206  0.00  0.00    +0.000 A 
ATOM      8  C   UNL     1     112.727 130.234 136.676  0.00  0.00    +0.000 A 
ATOM      9  C   UNL     1     112.557 129.793 136.000  0.00  0.00    +0.000 A 
ATOM     10  C   UNL     1     113.527 130.502 136.839  0.00  0.00    +0.000 A 
ATOM     11  C   UNL     1     113.175 129.588 135.440  0.00  0.00    +0.000 A 
ATOM     12  C   UNL     1     114.159 130.306 136.290  0.00  0.00    +0.000 A 
ATOM     13  C   UNL     1     113.982 129.846 135.586  0.00  0.00    +0.000 A 
ENDROOT
BRANCH   6  16
ATOM     14  O   UNL     1     108.699 130.042 135.004  0.00  0.00    +0.000 OA
ATOM     15  O   UNL     1     108.091 128.733 135.804  0.00  0.00    +0.000 OA
ATOM     16  C   UNL     1     110.409 129.483 136.240  0.00  0.00    +0.000 A 
ATOM     17  C   UNL     1     110.106 128.828 136.640  0.00  0.00    +0.000 A 
ATOM     18  C   UNL     1     109.941 129.888 135.694  0.00  0.00    +0.000 A 
ATOM     19  C   UNL     1     109.333 128.579 136.494  0.00  0.00    +0.000 A 
ATOM     20  C   UNL     1     109.168 129.637 135.549  0.00  0.00    +0.000 A 
ATOM     21  C   UNL     1     108.864 128.983 135.949  0.00  0.00    +0.000 A 
BRANCH  19  22
ATOM     22  O   UNL     1     109.029 127.924 136.894  0.00  0.00    +0.000 OA
ATOM     23  C   UNL     1     109.466 127.225 136.935  0.00  0.00    +0.000 C 
ENDBRANCH  19  22
ENDBRANCH   6  16
BRANCH   5  24
ATOM     24  O   UNL     1     110.750 130.366 137.592  0.00  0.00    +0.000 OA
BRANCH  24  33
ATOM     25  O   UNL     1     110.660 131.736 137.195  0.00  0.00    +0.000 OA
ATOM     26  O   UNL     1     110.024 132.362 139.503  0.00  0.00    +0.000 OA
ATOM     27  O   UNL     1     110.147 133.522 138.338  0.00  0.00    +0.000 OA
ATOM     28  O   UNL     1     110.326 130.783 139.131  0.00  0.00    +0.000 OA
ATOM     29  C   UNL     1     110.236 132.153 138.734  0.00  0.00    +0.000 C 
ATOM     30  C   UNL     1     110.298 132.733 138.151  0.00  0.00    +0.000 C 
ATOM     31  C   UNL     1     110.387 131.363 138.547  0.00  0.00    +0.000 C 
ATOM     32  C   UNL     1     110.510 132.524 137.381  0.00  0.00    +0.000 C 
ATOM     33  C   UNL     1     110.599 131.154 137.778  0.00  0.00    +0.000 C 
BRANCH  32  35
ATOM     34  O   UNL     1     110.056 133.098 136.153  0.00  0.00    +0.000 OA
ATOM     35  C   UNL     1     110.571 133.105 136.799  0.00  0.00    +0.000 C 
ENDBRANCH  32  35
ENDBRANCH  24  33
ENDBRANCH   5  24
TORSDOF 5
ENDMDL
MODEL 3
REMARK VINA RESULT:      -9.0      1.305      4.028
REMARK  Name = 44259474
REMARK  5 active torsions:
REMARK  status: ('A' for Active; 'I' for Inactive)
REMARK    1  A    between atoms: O_2  and  C_18
REMARK    2  A    between atoms: O_2  and  C_20
REMARK    3  A    between atoms: O_10  and  C_32
REMARK    4  A    between atoms: C_17  and  C_19
REMARK    5  A    between atoms: C_21  and  C_24
REMARK                            x       y       z     vdW  Elec       q    Type
REMARK                         _______ _______ _______ _____ _____    ______ ____
ROOT
ATOM      1  O   UNL     1     112.945 127.246 136.219  0.00  0.00    +0.000 OA
ATOM      2  O   UNL     1     112.946 128.041 138.564  0.00  0.00    +0.000 OA
ATOM      3  O   UNL     1     113.398 129.348 138.150  0.00  0.00    +0.000 OA
ATOM      4  O   UNL     1     113.857 129.859 135.311  0.00  0.00    +0.000 OA
ATOM      5  C   UNL     1     112.722 127.001 137.610  0.00  0.00    +0.000 A 
ATOM      6  C   UNL     1     112.722 126.736 136.828  0.00  0.00    +0.000 A 
ATOM      7  C   UNL     1     112.946 127.776 137.782  0.00  0.00    +0.000 A 
ATOM      8  C   UNL     1     113.170 128.286 137.173  0.00  0.00    +0.000 A 
ATOM      9  C   UNL     1     113.169 128.021 136.392  0.00  0.00    +0.000 A 
ATOM     10  C   UNL     1     113.401 129.091 137.366  0.00  0.00    +0.000 A 
ATOM     11  C   UNL     1     113.400 128.542 135.749  0.00  0.00    +0.000 A 
ATOM     12  C   UNL     1     113.634 129.627 136.736  0.00  0.00    +0.000 A 
ATOM     13  C   UNL     1     113.634 129.351 135.922  0.00  0.00    +0.000 A 
ENDROOT
BRANCH   6  16
ATOM     14  O   UNL     1     113.305 123.938 136.810  0.00  0.00    +0.000 OA
ATOM     15  O   UNL     1     111.828 123.635 136.141  0.00  0.00    +0.000 OA
ATOM     16  C   UNL     1     112.498 125.961 136.656  0.00  0.00    +0.000 A 
ATOM     17  C   UNL     1     111.759 125.809 136.322  0.00  0.00    +0.000 A 
ATOM     18  C   UNL     1     113.013 125.337 136.819  0.00  0.00    +0.000 A 
ATOM     19  C   UNL     1     111.536 125.033 136.150  0.00  0.00    +0.000 A 
ATOM     20  C   UNL     1     112.789 124.562 136.647  0.00  0.00    +0.000 A 
ATOM     21  C   UNL     1     112.051 124.410 136.313  0.00  0.00    +0.000 A 
BRANCH  19  22
ATOM     22  O   UNL     1     110.797 124.881 135.816  0.00  0.00    +0.000 OA
ATOM     23  C   UNL     1     110.441 125.444 135.328  0.00  0.00    +0.000 C 
ENDBRANCH  19  22
ENDBRANCH   6  16
BRANCH   5  24
ATOM     24  O   UNL     1     112.498 126.491 138.219  0.00  0.00    +0.000 OA
BRANCH  24  33
ATOM     25  O   UNL     1     111.227 127.113 138.414  0.00  0.00    +0.000 OA
ATOM     26  O   UNL     1     111.266 126.444 140.797  0.00  0.00    +0.000 OA
ATOM     27  O   UNL     1     109.982 127.288 140.198  0.00  0.00    +0.000 OA
ATOM     28  O   UNL     1     112.525 126.045 139.807  0.00  0.00    +0.000 OA
ATOM     29  C   UNL     1     111.253 126.667 140.003  0.00  0.00    +0.000 C 
ATOM     30  C   UNL     1     110.611 127.089 139.703  0.00  0.00    +0.000 C 
ATOM     31  C   UNL     1     111.883 126.468 139.507  0.00  0.00    +0.000 C 
ATOM     32  C   UNL     1     110.598 127.312 138.909  0.00  0.00    +0.000 C 
ATOM     33  C   UNL     1     111.870 126.691 138.713  0.00  0.00    +0.000 C 
BRANCH  32  35
ATOM     34  O   UNL     1     109.449 127.382 138.062  0.00  0.00    +0.000 OA
ATOM     35  C   UNL     1     109.956 127.734 138.610  0.00  0.00    +0.000 C 
ENDBRANCH  32  35
ENDBRANCH  24  33
ENDBRANCH   5  24
TORSDOF 5
ENDMDL
MODEL 4
REMARK VINA RESULT:      -9.0      1.679      4.296
REMARK  Name = 44259474
REMARK  5 active torsions:
REMARK  status: ('A' for Active; 'I' for Inactive)
REMARK    1  A    between atoms: O_2  and  C_18
REMARK    2  A    between atoms: O_2  and  C_20
REMARK    3  A    between atoms: O_10  and  C_32
REMARK    4  A    between atoms: C_17  and  C_19
REMARK    5  A    between atoms: C_21  and  C_24
REMARK                            x       y       z     vdW  Elec       q    Type
REMARK                         _______ _______ _______ _____ _____    ______ ____
ROOT
ATOM      1  O   UNL     1     113.225 127.266 136.421  0.00  0.00    +0.000 OA
ATOM      2  O   UNL     1     111.974 128.309 138.285  0.00  0.00    +0.000 OA
ATOM      3  O   UNL     1     112.386 129.626 137.863  0.00  0.00    +0.000 OA
ATOM      4  O   UNL     1     114.095 129.892 135.509  0.00  0.00    +0.000 OA
ATOM      5  C   UNL     1     112.389 127.141 137.573  0.00  0.00    +0.000 A 
ATOM      6  C   UNL     1     112.806 126.794 136.951  0.00  0.00    +0.000 A 
ATOM      7  C   UNL     1     112.392 127.961 137.663  0.00  0.00    +0.000 A 
ATOM      8  C   UNL     1     112.811 128.434 137.133  0.00  0.00    +0.000 A 
ATOM      9  C   UNL     1     113.228 128.086 136.512  0.00  0.00    +0.000 A 
ATOM     10  C   UNL     1     112.806 129.287 137.238  0.00  0.00    +0.000 A 
ATOM     11  C   UNL     1     113.668 128.567 135.953  0.00  0.00    +0.000 A 
ATOM     12  C   UNL     1     113.241 129.784 136.689  0.00  0.00    +0.000 A 
ATOM     13  C   UNL     1     113.675 129.422 136.041  0.00  0.00    +0.000 A 
ENDROOT
BRANCH   6  16
ATOM     14  O   UNL     1     111.473 124.399 136.142  0.00  0.00    +0.000 OA
ATOM     15  O   UNL     1     112.792 123.514 136.589  0.00  0.00    +0.000 OA
ATOM     16  C   UNL     1     112.803 125.974 136.861  0.00  0.00    +0.000 A 
ATOM     17  C   UNL     1     113.462 125.531 137.085  0.00  0.00    +0.000 A 
ATOM     18  C   UNL     1     112.140 125.596 136.546  0.00  0.00    +0.000 A 
ATOM     19  C   UNL     1     113.458 124.711 136.994  0.00  0.00    +0.000 A 
ATOM     20  C   UNL     1     112.137 124.776 136.456  0.00  0.00    +0.000 A 
ATOM     21  C   UNL     1     112.796 124.334 136.680  0.00  0.00    +0.000 A 
BRANCH  19  22
ATOM     22  O   UNL     1     114.118 124.269 137.218  0.00  0.00    +0.000 OA
ATOM     23  C   UNL     1     114.864 124.621 137.237  0.00  0.00    +0.000 C 
ENDBRANCH  19  22
ENDBRANCH   6  16
BRANCH   5  24
ATOM     24  O   UNL     1     111.969 126.669 138.104  0.00  0.00    +0.000 OA
BRANCH  24  33
ATOM     25  O   UNL     1     112.915 126.873 139.155  0.00  0.00    +0.000 OA
ATOM     26  O   UNL     1     111.152 126.409 140.830  0.00  0.00    +0.000 OA
ATOM     27  O   UNL     1     112.684 126.768 141.323  0.00  0.00    +0.000 OA
ATOM     28  O   UNL     1     110.794 126.360 139.220  0.00  0.00    +0.000 OA
ATOM     29  C   UNL     1     111.739 126.564 140.272  0.00  0.00    +0.000 C 
ATOM     30  C   UNL     1     112.506 126.744 140.518  0.00  0.00    +0.000 C 
ATOM     31  C   UNL     1     111.561 126.539 139.466  0.00  0.00    +0.000 C 
ATOM     32  C   UNL     1     113.093 126.898 139.960  0.00  0.00    +0.000 C 
ATOM     33  C   UNL     1     112.148 126.694 138.908  0.00  0.00    +0.000 C 
BRANCH  32  35
ATOM     34  O   UNL     1     114.481 126.565 140.030  0.00  0.00    +0.000 OA
ATOM     35  C   UNL     1     113.859 127.078 140.207  0.00  0.00    +0.000 C 
ENDBRANCH  32  35
ENDBRANCH  24  33
ENDBRANCH   5  24
TORSDOF 5
ENDMDL
MODEL 5
REMARK VINA RESULT:      -9.0      1.779      2.810
REMARK  Name = 44259474
REMARK  5 active torsions:
REMARK  status: ('A' for Active; 'I' for Inactive)
REMARK    1  A    between atoms: O_2  and  C_18
REMARK    2  A    between atoms: O_2  and  C_20
REMARK    3  A    between atoms: O_10  and  C_32
REMARK    4  A    between atoms: C_17  and  C_19
REMARK    5  A    between atoms: C_21  and  C_24
REMARK                            x       y       z     vdW  Elec       q    Type
REMARK                         _______ _______ _______ _____ _____    ______ ____
ROOT
ATOM      1  O   UNL     1     113.782 126.253 138.226  0.00  0.00    +0.000 OA
ATOM      2  O   UNL     1     111.710 124.959 137.824  0.00  0.00    +0.000 OA
ATOM      3  O   UNL     1     112.334 124.243 136.738  0.00  0.00    +0.000 OA
ATOM      4  O   UNL     1     115.106 124.848 136.046  0.00  0.00    +0.000 OA
ATOM      5  C   UNL     1     112.425 125.953 138.561  0.00  0.00    +0.000 A 
ATOM      6  C   UNL     1     113.116 126.384 138.695  0.00  0.00    +0.000 A 
ATOM      7  C   UNL     1     112.401 125.390 137.958  0.00  0.00    +0.000 A 
ATOM      8  C   UNL     1     113.067 125.259 137.489  0.00  0.00    +0.000 A 
ATOM      9  C   UNL     1     113.757 125.690 137.623  0.00  0.00    +0.000 A 
ATOM     10  C   UNL     1     113.029 124.670 136.865  0.00  0.00    +0.000 A 
ATOM     11  C   UNL     1     114.457 125.562 137.142  0.00  0.00    +0.000 A 
ATOM     12  C   UNL     1     113.719 124.528 136.374  0.00  0.00    +0.000 A 
ATOM     13  C   UNL     1     114.438 124.977 136.513  0.00  0.00    +0.000 A 
ENDROOT
BRANCH   6  16
ATOM     14  O   UNL     1     113.316 127.027 141.472  0.00  0.00    +0.000 OA
ATOM     15  O   UNL     1     113.211 128.633 141.108  0.00  0.00    +0.000 OA
ATOM     16  C   UNL     1     113.140 126.947 139.297  0.00  0.00    +0.000 A 
ATOM     17  C   UNL     1     113.088 127.750 139.115  0.00  0.00    +0.000 A 
ATOM     18  C   UNL     1     113.216 126.706 140.084  0.00  0.00    +0.000 A 
ATOM     19  C   UNL     1     113.112 128.312 139.719  0.00  0.00    +0.000 A 
ATOM     20  C   UNL     1     113.240 127.269 140.686  0.00  0.00    +0.000 A 
ATOM     21  C   UNL     1     113.187 128.072 140.504  0.00  0.00    +0.000 A 
BRANCH  19  22
ATOM     22  O   UNL     1     113.060 129.115 139.537  0.00  0.00    +0.000 OA
ATOM     23  C   UNL     1     113.393 129.402 138.839  0.00  0.00    +0.000 C 
ENDBRANCH  19  22
ENDBRANCH   6  16
BRANCH   5  24
ATOM     24  O   UNL     1     111.759 126.085 139.030  0.00  0.00    +0.000 OA
BRANCH  24  33
ATOM     25  O   UNL     1     111.050 126.787 138.007  0.00  0.00    +0.000 OA
ATOM     26  O   UNL     1     108.902 126.031 138.977  0.00  0.00    +0.000 OA
ATOM     27  O   UNL     1     108.909 126.985 137.632  0.00  0.00    +0.000 OA
ATOM     28  O   UNL     1     110.327 125.581 139.676  0.00  0.00    +0.000 OA
ATOM     29  C   UNL     1     109.618 126.283 138.654  0.00  0.00    +0.000 C 
ATOM     30  C   UNL     1     109.622 126.760 137.981  0.00  0.00    +0.000 C 
ATOM     31  C   UNL     1     110.331 126.058 139.004  0.00  0.00    +0.000 C 
ATOM     32  C   UNL     1     110.338 127.012 137.658  0.00  0.00    +0.000 C 
ATOM     33  C   UNL     1     111.047 126.310 138.680  0.00  0.00    +0.000 C 
BRANCH  32  35
ATOM     34  O   UNL     1     110.636 128.259 137.026  0.00  0.00    +0.000 OA
ATOM     35  C   UNL     1     110.341 127.489 136.985  0.00  0.00    +0.000 C 
ENDBRANCH  32  35
ENDBRANCH  24  33
ENDBRANCH   5  24
TORSDOF 5
ENDMDL
MODEL 6
REMARK VINA RESULT:      -8.9      1.653      3.361
REMARK  Name = 44259474
REMARK  5 active torsions:
REMARK  status: ('A' for Active; 'I' for Inactive)
REMARK    1  A    between atoms: O_2  and  C_18
REMARK    2  A    between atoms: O_2  and  C_20
REMARK    3  A    between atoms: O_10  and  C_32
REMARK    4  A    between atoms: C_17  and  C_19
REMARK    5  A    between atoms: C_21  and  C_24
REMARK                            x       y       z     vdW  Elec       q    Type
REMARK                         _______ _______ _______ _____ _____    ______ ____
ROOT
ATOM      1  O   UNL     1     112.971 127.345 136.295  0.00  0.00    +0.000 OA
ATOM      2  O   UNL     1     111.241 128.651 135.099  0.00  0.00    +0.000 OA
ATOM      3  O   UNL     1     112.236 129.577 134.613  0.00  0.00    +0.000 OA
ATOM      4  O   UNL     1     115.033 129.174 135.353  0.00  0.00    +0.000 OA
ATOM      5  C   UNL     1     111.604 127.547 135.930  0.00  0.00    +0.000 A 
ATOM      6  C   UNL     1     112.181 127.111 136.329  0.00  0.00    +0.000 A 
ATOM      7  C   UNL     1     111.818 128.215 135.498  0.00  0.00    +0.000 A 
ATOM      8  C   UNL     1     112.609 128.449 135.463  0.00  0.00    +0.000 A 
ATOM      9  C   UNL     1     113.185 128.014 135.862  0.00  0.00    +0.000 A 
ATOM     10  C   UNL     1     112.819 129.148 135.009  0.00  0.00    +0.000 A 
ATOM     11  C   UNL     1     114.011 128.246 135.834  0.00  0.00    +0.000 A 
ATOM     12  C   UNL     1     113.641 129.396 134.970  0.00  0.00    +0.000 A 
ATOM     13  C   UNL     1     114.241 128.942 135.385  0.00  0.00    +0.000 A 
ENDROOT
BRANCH   6  16
ATOM     14  O   UNL     1     111.376 124.370 136.410  0.00  0.00    +0.000 OA
ATOM     15  O   UNL     1     111.321 124.434 138.058  0.00  0.00    +0.000 OA
ATOM     16  C   UNL     1     111.966 126.442 136.762  0.00  0.00    +0.000 A 
ATOM     17  C   UNL     1     111.939 126.475 137.586  0.00  0.00    +0.000 A 
ATOM     18  C   UNL     1     111.779 125.741 136.369  0.00  0.00    +0.000 A 
ATOM     19  C   UNL     1     111.724 125.805 138.017  0.00  0.00    +0.000 A 
ATOM     20  C   UNL     1     111.564 125.072 136.802  0.00  0.00    +0.000 A 
ATOM     21  C   UNL     1     111.536 125.104 137.626  0.00  0.00    +0.000 A 
BRANCH  19  22
ATOM     22  O   UNL     1     111.696 125.837 138.841  0.00  0.00    +0.000 OA
ATOM     23  C   UNL     1     112.192 126.356 139.251  0.00  0.00    +0.000 C 
ENDBRANCH  19  22
ENDBRANCH   6  16
BRANCH   5  24
ATOM     24  O   UNL     1     110.813 127.313 135.964  0.00  0.00    +0.000 OA
BRANCH  24  33
ATOM     25  O   UNL     1     110.405 128.361 136.846  0.00  0.00    +0.000 OA
ATOM     26  O   UNL     1     108.176 128.397 135.770  0.00  0.00    +0.000 OA
ATOM     27  O   UNL     1     108.511 129.432 137.010  0.00  0.00    +0.000 OA
ATOM     28  O   UNL     1     109.327 127.337 135.247  0.00  0.00    +0.000 OA
ATOM     29  C   UNL     1     108.919 128.385 136.129  0.00  0.00    +0.000 C 
ATOM     30  C   UNL     1     109.087 128.902 136.749  0.00  0.00    +0.000 C 
ATOM     31  C   UNL     1     109.495 127.855 135.867  0.00  0.00    +0.000 C 
ATOM     32  C   UNL     1     109.830 128.890 137.108  0.00  0.00    +0.000 C 
ATOM     33  C   UNL     1     110.238 127.843 136.226  0.00  0.00    +0.000 C 
BRANCH  32  35
ATOM     34  O   UNL     1     110.179 129.111 138.475  0.00  0.00    +0.000 OA
ATOM     35  C   UNL     1     109.996 129.408 137.727  0.00  0.00    +0.000 C 
ENDBRANCH  32  35
ENDBRANCH  24  33
ENDBRANCH   5  24
TORSDOF 5
ENDMDL
MODEL 7
REMARK VINA RESULT:      -8.8      1.778      4.445
REMARK  Name = 44259474
REMARK  5 active torsions:
REMARK  status: ('A' for Active; 'I' for Inactive)
REMARK    1  A    between atoms: O_2  and  C_18
REMARK    2  A    between atoms: O_2  and  C_20
REMARK    3  A    between atoms: O_10  and  C_32
REMARK    4  A    between atoms: C_17  and  C_19
REMARK    5  A    between atoms: C_21  and  C_24
REMARK                            x       y       z     vdW  Elec       q    Type
REMARK                         _______ _______ _______ _____ _____    ______ ____
ROOT
ATOM      1  O   UNL     1     111.917 128.227 138.233  0.00  0.00    +0.000 OA
ATOM      2  O   UNL     1     113.691 127.264 136.801  0.00  0.00    +0.000 OA
ATOM      3  O   UNL     1     113.490 128.293 135.810  0.00  0.00    +0.000 OA
ATOM      4  O   UNL     1     111.454 130.335 136.278  0.00  0.00    +0.000 OA
ATOM      5  C   UNL     1     112.914 127.230 137.999  0.00  0.00    +0.000 A 
ATOM      6  C   UNL     1     112.323 127.551 138.477  0.00  0.00    +0.000 A 
ATOM      7  C   UNL     1     113.100 127.585 137.278  0.00  0.00    +0.000 A 
ATOM      8  C   UNL     1     112.694 128.261 137.035  0.00  0.00    +0.000 A 
ATOM      9  C   UNL     1     112.103 128.581 137.512  0.00  0.00    +0.000 A 
ATOM     10  C   UNL     1     112.897 128.621 136.281  0.00  0.00    +0.000 A 
ATOM     11  C   UNL     1     111.673 129.284 137.270  0.00  0.00    +0.000 A 
ATOM     12  C   UNL     1     112.478 129.325 136.022  0.00  0.00    +0.000 A 
ATOM     13  C   UNL     1     111.862 129.659 136.519  0.00  0.00    +0.000 A 
ENDROOT
BRANCH   6  16
ATOM     14  O   UNL     1     112.951 127.043 141.219  0.00  0.00    +0.000 OA
ATOM     15  O   UNL     1     111.584 126.131 141.363  0.00  0.00    +0.000 OA
ATOM     16  C   UNL     1     112.137 127.196 139.198  0.00  0.00    +0.000 A 
ATOM     17  C   UNL     1     111.454 126.740 139.271  0.00  0.00    +0.000 A 
ATOM     18  C   UNL     1     112.637 127.297 139.848  0.00  0.00    +0.000 A 
ATOM     19  C   UNL     1     111.270 126.385 139.993  0.00  0.00    +0.000 A 
ATOM     20  C   UNL     1     112.452 126.942 140.569  0.00  0.00    +0.000 A 
ATOM     21  C   UNL     1     111.768 126.486 140.641  0.00  0.00    +0.000 A 
BRANCH  19  22
ATOM     22  O   UNL     1     110.586 125.929 140.065  0.00  0.00    +0.000 OA
ATOM     23  C   UNL     1     109.916 126.116 139.621  0.00  0.00    +0.000 C 
ENDBRANCH  19  22
ENDBRANCH   6  16
BRANCH   5  24
ATOM     24  O   UNL     1     113.320 126.554 138.243  0.00  0.00    +0.000 OA
BRANCH  24  33
ATOM     25  O   UNL     1     112.651 125.686 137.326  0.00  0.00    +0.000 OA
ATOM     26  O   UNL     1     114.656 124.239 137.231  0.00  0.00    +0.000 OA
ATOM     27  O   UNL     1     113.319 123.855 136.346  0.00  0.00    +0.000 OA
ATOM     28  O   UNL     1     114.657 125.589 138.180  0.00  0.00    +0.000 OA
ATOM     29  C   UNL     1     113.988 124.722 137.263  0.00  0.00    +0.000 C 
ATOM     30  C   UNL     1     113.319 124.530 136.820  0.00  0.00    +0.000 C 
ATOM     31  C   UNL     1     113.988 125.397 137.738  0.00  0.00    +0.000 C 
ATOM     32  C   UNL     1     112.650 125.012 136.852  0.00  0.00    +0.000 C 
ATOM     33  C   UNL     1     113.320 125.880 137.769  0.00  0.00    +0.000 C 
BRANCH  32  35
ATOM     34  O   UNL     1     111.280 124.613 136.790  0.00  0.00    +0.000 OA
ATOM     35  C   UNL     1     111.982 124.819 136.409  0.00  0.00    +0.000 C 
ENDBRANCH  32  35
ENDBRANCH  24  33
ENDBRANCH   5  24
TORSDOF 5
ENDMDL
MODEL 8
REMARK VINA RESULT:      -8.8      1.619      3.266
REMARK  Name = 44259474
REMARK  5 active torsions:
REMARK  status: ('A' for Active; 'I' for Inactive)
REMARK    1  A    between atoms: O_2  and  C_18
REMARK    2  A    between atoms: O_2  and  C_20
REMARK    3  A    between atoms: O_10  and  C_32
REMARK    4  A    between atoms: C_17  and  C_19
REMARK    5  A    between atoms: C_21  and  C_24
REMARK                            x       y       z     vdW  Elec       q    Type
REMARK                         _______ _______ _______ _____ _____    ______ ____
ROOT
ATOM      1  O   UNL     1     113.131 128.292 138.357  0.00  0.00    +0.000 OA
ATOM      2  O   UNL     1     112.029 126.098 138.670  0.00  0.00    +0.000 OA
ATOM      3  O   UNL     1     112.265 126.150 140.093  0.00  0.00    +0.000 OA
ATOM      4  O   UNL     1     113.642 128.467 141.219  0.00  0.00    +0.000 OA
ATOM      5  C   UNL     1     112.457 127.156 137.811  0.00  0.00    +0.000 A 
ATOM      6  C   UNL     1     112.824 127.888 137.707  0.00  0.00    +0.000 A 
ATOM      7  C   UNL     1     112.396 126.830 138.566  0.00  0.00    +0.000 A 
ATOM      8  C   UNL     1     112.703 127.234 139.216  0.00  0.00    +0.000 A 
ATOM      9  C   UNL     1     113.070 127.965 139.112  0.00  0.00    +0.000 A 
ATOM     10  C   UNL     1     112.634 126.882 139.998  0.00  0.00    +0.000 A 
ATOM     11  C   UNL     1     113.394 128.396 139.781  0.00  0.00    +0.000 A 
ATOM     12  C   UNL     1     112.951 127.299 140.679  0.00  0.00    +0.000 A 
ATOM     13  C   UNL     1     113.334 128.061 140.570  0.00  0.00    +0.000 A 
ENDROOT
BRANCH   6  16
ATOM     14  O   UNL     1     114.387 128.502 135.394  0.00  0.00    +0.000 OA
ATOM     15  O   UNL     1     113.068 129.194 134.686  0.00  0.00    +0.000 OA
ATOM     16  C   UNL     1     112.884 128.215 136.951  0.00  0.00    +0.000 A 
ATOM     17  C   UNL     1     112.225 128.561 136.597  0.00  0.00    +0.000 A 
ATOM     18  C   UNL     1     113.606 128.195 136.550  0.00  0.00    +0.000 A 
ATOM     19  C   UNL     1     112.286 128.887 135.842  0.00  0.00    +0.000 A 
ATOM     20  C   UNL     1     113.666 128.521 135.795  0.00  0.00    +0.000 A 
ATOM     21  C   UNL     1     113.006 128.868 135.441  0.00  0.00    +0.000 A 
BRANCH  19  22
ATOM     22  O   UNL     1     111.626 129.234 135.488  0.00  0.00    +0.000 OA
ATOM     23  C   UNL     1     111.158 129.763 135.915  0.00  0.00    +0.000 C 
ENDBRANCH  19  22
ENDBRANCH   6  16
BRANCH   5  24
ATOM     24  O   UNL     1     112.150 126.752 137.160  0.00  0.00    +0.000 OA
BRANCH  24  33
ATOM     25  O   UNL     1     113.196 125.780 137.122  0.00  0.00    +0.000 OA
ATOM     26  O   UNL     1     111.609 124.109 136.218  0.00  0.00    +0.000 OA
ATOM     27  O   UNL     1     113.184 123.694 136.481  0.00  0.00    +0.000 OA
ATOM     28  O   UNL     1     111.092 125.638 136.558  0.00  0.00    +0.000 OA
ATOM     29  C   UNL     1     112.138 124.666 136.519  0.00  0.00    +0.000 C 
ATOM     30  C   UNL     1     112.926 124.459 136.651  0.00  0.00    +0.000 C 
ATOM     31  C   UNL     1     111.880 125.431 136.689  0.00  0.00    +0.000 C 
ATOM     32  C   UNL     1     113.455 125.015 136.952  0.00  0.00    +0.000 C 
ATOM     33  C   UNL     1     112.408 125.988 136.991  0.00  0.00    +0.000 C 
BRANCH  32  35
ATOM     34  O   UNL     1     114.845 125.195 136.674  0.00  0.00    +0.000 OA
ATOM     35  C   UNL     1     114.242 124.808 137.083  0.00  0.00    +0.000 C 
ENDBRANCH  32  35
ENDBRANCH  24  33
ENDBRANCH   5  24
TORSDOF 5
ENDMDL
MODEL 9
REMARK VINA RESULT:      -8.8      1.261      4.173
REMARK  Name = 44259474
REMARK  5 active torsions:
REMARK  status: ('A' for Active; 'I' for Inactive)
REMARK    1  A    between atoms: O_2  and  C_18
REMARK    2  A    between atoms: O_2  and  C_20
REMARK    3  A    between atoms: O_10  and  C_32
REMARK    4  A    between atoms: C_17  and  C_19
REMARK    5  A    between atoms: C_21  and  C_24
REMARK                            x       y       z     vdW  Elec       q    Type
REMARK                         _______ _______ _______ _____ _____    ______ ____
ROOT
ATOM      1  O   UNL     1     111.749 126.450 136.373  0.00  0.00    +0.000 OA
ATOM      2  O   UNL     1     112.269 128.519 135.117  0.00  0.00    +0.000 OA
ATOM      3  O   UNL     1     110.917 128.592 134.619  0.00  0.00    +0.000 OA
ATOM      4  O   UNL     1     109.002 126.531 135.407  0.00  0.00    +0.000 OA
ATOM      5  C   UNL     1     112.682 127.461 135.984  0.00  0.00    +0.000 A 
ATOM      6  C   UNL     1     112.508 126.771 136.403  0.00  0.00    +0.000 A 
ATOM      7  C   UNL     1     112.096 127.829 135.536  0.00  0.00    +0.000 A 
ATOM      8  C   UNL     1     111.336 127.508 135.506  0.00  0.00    +0.000 A 
ATOM      9  C   UNL     1     111.163 126.819 135.924  0.00  0.00    +0.000 A 
ATOM     10  C   UNL     1     110.734 127.902 135.035  0.00  0.00    +0.000 A 
ATOM     11  C   UNL     1     110.376 126.475 135.901  0.00  0.00    +0.000 A 
ATOM     12  C   UNL     1     109.942 127.573 135.000  0.00  0.00    +0.000 A 
ATOM     13  C   UNL     1     109.761 126.854 135.436  0.00  0.00    +0.000 A 
ENDROOT
BRANCH   6  16
ATOM     14  O   UNL     1     114.847 125.136 136.552  0.00  0.00    +0.000 OA
ATOM     15  O   UNL     1     114.855 125.296 138.194  0.00  0.00    +0.000 OA
ATOM     16  C   UNL     1     113.095 126.403 136.851  0.00  0.00    +0.000 A 
ATOM     17  C   UNL     1     113.098 126.483 137.672  0.00  0.00    +0.000 A 
ATOM     18  C   UNL     1     113.678 125.953 136.477  0.00  0.00    +0.000 A 
ATOM     19  C   UNL     1     113.686 126.114 138.119  0.00  0.00    +0.000 A 
ATOM     20  C   UNL     1     114.264 125.585 136.926  0.00  0.00    +0.000 A 
ATOM     21  C   UNL     1     114.268 125.665 137.747  0.00  0.00    +0.000 A 
BRANCH  19  22
ATOM     22  O   UNL     1     113.690 126.195 138.941  0.00  0.00    +0.000 OA
ATOM     23  C   UNL     1     112.992 126.382 139.340  0.00  0.00    +0.000 C 
ENDBRANCH  19  22
ENDBRANCH   6  16
BRANCH   5  24
ATOM     24  O   UNL     1     113.441 127.782 136.014  0.00  0.00    +0.000 OA
BRANCH  24  33
ATOM     25  O   UNL     1     113.080 128.877 136.858  0.00  0.00    +0.000 OA
ATOM     26  O   UNL     1     114.817 130.276 135.787  0.00  0.00    +0.000 OA
ATOM     27  O   UNL     1     113.876 130.904 136.987  0.00  0.00    +0.000 OA
ATOM     28  O   UNL     1     114.600 128.715 135.300  0.00  0.00    +0.000 OA
ATOM     29  C   UNL     1     114.238 129.810 136.144  0.00  0.00    +0.000 C 
ATOM     30  C   UNL     1     113.767 130.123 136.744  0.00  0.00    +0.000 C 
ATOM     31  C   UNL     1     114.129 129.028 135.900  0.00  0.00    +0.000 C 
ATOM     32  C   UNL     1     113.188 129.657 137.101  0.00  0.00    +0.000 C 
ATOM     33  C   UNL     1     113.550 128.562 136.257  0.00  0.00    +0.000 C 
BRANCH  32  35
ATOM     34  O   UNL     1     112.756 129.658 138.463  0.00  0.00    +0.000 OA
ATOM     35  C   UNL     1     112.718 129.971 137.701  0.00  0.00    +0.000 C 
ENDBRANCH  32  35
ENDBRANCH  24  33
ENDBRANCH   5  24
TORSDOF 5
ENDMDL
