MODEL 1
REMARK VINA RESULT:     -10.5      0.000      0.000
REMARK  Name = 44257710
REMARK  9 active torsions:
REMARK  status: ('A' for Active; 'I' for Inactive)
REMARK    1  A    between atoms: O_1  and  C_21
REMARK    2  A    between atoms: O_1  and  C_23
REMARK    3  A    between atoms: O_3  and  C_22
REMARK    4  A    between atoms: O_3  and  C_31
REMARK    5  A    between atoms: C_26  and  C_34
REMARK    6  A    between atoms: C_29  and  C_37
REMARK    7  A    between atoms: C_30  and  C_38
REMARK    8  A    between atoms: C_36  and  C_40
REMARK    9  A    between atoms: C_46  and  C_48
REMARK                            x       y       z     vdW  Elec       q    Type
REMARK                         _______ _______ _______ _____ _____    ______ ____
ROOT
ATOM      1  O   UNL     1     113.266 128.748 139.453  0.00  0.00    +0.000 OA
ATOM      2  O   UNL     1     110.853 128.521 139.955  0.00  0.00    +0.000 OA
ATOM      3  O   UNL     1     111.967 127.738 140.886  0.00  0.00    +0.000 OA
ATOM      4  C   UNL     1     111.905 129.064 139.154  0.00  0.00    +0.000 C 
ATOM      5  C   UNL     1     111.657 128.596 139.788  0.00  0.00    +0.000 C 
ATOM      6  C   UNL     1     112.709 129.140 138.988  0.00  0.00    +0.000 C 
ATOM      7  C   UNL     1     112.214 128.205 140.254  0.00  0.00    +0.000 C 
ATOM      8  C   UNL     1     113.018 128.281 140.086  0.00  0.00    +0.000 C 
ENDROOT
BRANCH   6  13
ATOM      9  O   UNL     1     112.851 128.444 137.491  0.00  0.00    +0.000 OA
ATOM     10  O   UNL     1     113.051 130.737 139.225  0.00  0.00    +0.000 OA
ATOM     11  O   UNL     1     113.697 131.010 136.455  0.00  0.00    +0.000 OA
ATOM     12  O   UNL     1     113.610 129.886 135.554  0.00  0.00    +0.000 OA
ATOM     13  C   UNL     1     112.956 129.608 138.354  0.00  0.00    +0.000 A 
ATOM     14  C   UNL     1     113.032 129.277 137.602  0.00  0.00    +0.000 A 
ATOM     15  C   UNL     1     113.127 130.406 138.473  0.00  0.00    +0.000 A 
ATOM     16  C   UNL     1     113.279 129.745 136.969  0.00  0.00    +0.000 A 
ATOM     17  C   UNL     1     113.374 130.873 137.840  0.00  0.00    +0.000 A 
ATOM     18  C   UNL     1     113.450 130.543 137.087  0.00  0.00    +0.000 A 
ATOM     19  C   UNL     1     113.362 129.412 136.181  0.00  0.00    +0.000 A 
ATOM     20  C   UNL     1     112.928 128.094 136.710  0.00  0.00    +0.000 A 
ATOM     21  C   UNL     1     113.185 128.581 136.051  0.00  0.00    +0.000 A 
BRANCH  20  23
ATOM     22  O   UNL     1     112.240 124.900 136.247  0.00  0.00    +0.000 OA
ATOM     23  C   UNL     1     112.756 127.296 136.595  0.00  0.00    +0.000 A 
ATOM     24  C   UNL     1     113.328 126.723 136.756  0.00  0.00    +0.000 A 
ATOM     25  C   UNL     1     112.013 127.070 136.317  0.00  0.00    +0.000 A 
ATOM     26  C   UNL     1     113.155 125.925 136.640  0.00  0.00    +0.000 A 
ATOM     27  C   UNL     1     111.840 126.271 136.201  0.00  0.00    +0.000 A 
ATOM     28  C   UNL     1     112.412 125.699 136.363  0.00  0.00    +0.000 A 
ENDBRANCH  20  23
ENDBRANCH   6  13
BRANCH   8  30
ATOM     29  O   UNL     1     114.336 128.200 140.635  0.00  0.00    +0.000 OA
ATOM     30  C   UNL     1     113.575 127.890 140.552  0.00  0.00    +0.000 C 
ENDBRANCH   8  30
BRANCH   4  31
ATOM     31  O   UNL     1     111.348 129.456 138.688  0.00  0.00    +0.000 OA
BRANCH  31  36
ATOM     32  O   UNL     1     110.840 130.323 139.704  0.00  0.00    +0.000 OA
ATOM     33  O   UNL     1     108.555 130.057 138.790  0.00  0.00    +0.000 OA
ATOM     34  O   UNL     1     108.809 131.013 140.111  0.00  0.00    +0.000 OA
ATOM     35  C   UNL     1     109.952 129.757 138.740  0.00  0.00    +0.000 C 
ATOM     36  C   UNL     1     110.713 129.846 139.044  0.00  0.00    +0.000 C 
ATOM     37  C   UNL     1     109.317 130.146 139.095  0.00  0.00    +0.000 C 
ATOM     38  C   UNL     1     109.445 130.624 139.755  0.00  0.00    +0.000 C 
ATOM     39  C   UNL     1     110.206 130.712 140.060  0.00  0.00    +0.000 C 
BRANCH  39  41
ATOM     40  O   UNL     1     110.759 131.893 140.645  0.00  0.00    +0.000 OA
ATOM     41  C   UNL     1     110.332 131.190 140.720  0.00  0.00    +0.000 C 
ENDBRANCH  39  41
BRANCH  35  42
ATOM     42  O   UNL     1     109.825 129.279 138.079  0.00  0.00    +0.000 OA
BRANCH  42  47
ATOM     43  O   UNL     1     109.947 130.383 137.180  0.00  0.00    +0.000 OA
ATOM     44  O   UNL     1     108.970 128.445 136.940  0.00  0.00    +0.000 OA
ATOM     45  O   UNL     1     108.665 129.131 135.471  0.00  0.00    +0.000 OA
ATOM     46  O   UNL     1     109.214 130.652 135.141  0.00  0.00    +0.000 OA
ATOM     47  C   UNL     1     109.672 129.622 137.344  0.00  0.00    +0.000 C 
ATOM     48  C   UNL     1     109.245 129.205 136.775  0.00  0.00    +0.000 C 
ATOM     49  C   UNL     1     109.093 129.549 136.041  0.00  0.00    +0.000 C 
ATOM     50  C   UNL     1     109.367 130.309 135.875  0.00  0.00    +0.000 C 
ATOM     51  C   UNL     1     109.794 130.726 136.445  0.00  0.00    +0.000 C 
BRANCH  51  53
ATOM     52  O   UNL     1     109.728 132.137 136.654  0.00  0.00    +0.000 OA
ATOM     53  C   UNL     1     110.069 131.486 136.280  0.00  0.00    +0.000 C 
ENDBRANCH  51  53
ENDBRANCH  42  47
ENDBRANCH  35  42
ENDBRANCH  31  36
ENDBRANCH   4  31
TORSDOF 9
ENDMDL
MODEL 2
REMARK VINA RESULT:     -10.4      1.787      3.412
REMARK  Name = 44257710
REMARK  9 active torsions:
REMARK  status: ('A' for Active; 'I' for Inactive)
REMARK    1  A    between atoms: O_1  and  C_21
REMARK    2  A    between atoms: O_1  and  C_23
REMARK    3  A    between atoms: O_3  and  C_22
REMARK    4  A    between atoms: O_3  and  C_31
REMARK    5  A    between atoms: C_26  and  C_34
REMARK    6  A    between atoms: C_29  and  C_37
REMARK    7  A    between atoms: C_30  and  C_38
REMARK    8  A    between atoms: C_36  and  C_40
REMARK    9  A    between atoms: C_46  and  C_48
REMARK                            x       y       z     vdW  Elec       q    Type
REMARK                         _______ _______ _______ _____ _____    ______ ____
ROOT
ATOM      1  O   UNL     1     110.710 126.624 140.847  0.00  0.00    +0.000 OA
ATOM      2  O   UNL     1     109.653 128.648 139.892  0.00  0.00    +0.000 OA
ATOM      3  O   UNL     1     108.714 127.415 140.458  0.00  0.00    +0.000 OA
ATOM      4  C   UNL     1     110.828 127.915 140.246  0.00  0.00    +0.000 C 
ATOM      5  C   UNL     1     110.005 127.973 140.210  0.00  0.00    +0.000 C 
ATOM      6  C   UNL     1     111.180 127.240 140.564  0.00  0.00    +0.000 C 
ATOM      7  C   UNL     1     109.535 127.357 140.493  0.00  0.00    +0.000 C 
ATOM      8  C   UNL     1     109.888 126.682 140.811  0.00  0.00    +0.000 C 
ENDROOT
BRANCH   6  13
ATOM      9  O   UNL     1     111.989 126.601 139.268  0.00  0.00    +0.000 OA
ATOM     10  O   UNL     1     111.986 127.756 141.908  0.00  0.00    +0.000 OA
ATOM     11  O   UNL     1     114.468 127.008 140.705  0.00  0.00    +0.000 OA
ATOM     12  O   UNL     1     114.513 126.426 139.385  0.00  0.00    +0.000 OA
ATOM     13  C   UNL     1     112.002 127.182 140.599  0.00  0.00    +0.000 A 
ATOM     14  C   UNL     1     112.421 126.866 139.962  0.00  0.00    +0.000 A 
ATOM     15  C   UNL     1     112.406 127.440 141.271  0.00  0.00    +0.000 A 
ATOM     16  C   UNL     1     113.244 126.808 139.998  0.00  0.00    +0.000 A 
ATOM     17  C   UNL     1     113.227 127.382 141.306  0.00  0.00    +0.000 A 
ATOM     18  C   UNL     1     113.647 127.066 140.670  0.00  0.00    +0.000 A 
ATOM     19  C   UNL     1     113.691 126.481 139.342  0.00  0.00    +0.000 A 
ATOM     20  C   UNL     1     112.420 126.271 138.602  0.00  0.00    +0.000 A 
ATOM     21  C   UNL     1     113.276 126.210 138.638  0.00  0.00    +0.000 A 
BRANCH  20  23
ATOM     22  O   UNL     1     110.796 125.242 135.920  0.00  0.00    +0.000 OA
ATOM     23  C   UNL     1     112.014 126.014 137.932  0.00  0.00    +0.000 A 
ATOM     24  C   UNL     1     111.967 126.500 137.267  0.00  0.00    +0.000 A 
ATOM     25  C   UNL     1     111.656 125.271 137.926  0.00  0.00    +0.000 A 
ATOM     26  C   UNL     1     111.561 126.242 136.596  0.00  0.00    +0.000 A 
ATOM     27  C   UNL     1     111.250 125.013 137.256  0.00  0.00    +0.000 A 
ATOM     28  C   UNL     1     111.202 125.499 136.591  0.00  0.00    +0.000 A 
ENDBRANCH  20  23
ENDBRANCH   6  13
BRANCH   8  30
ATOM     29  O   UNL     1     109.671 125.284 141.014  0.00  0.00    +0.000 OA
ATOM     30  C   UNL     1     109.419 126.066 141.094  0.00  0.00    +0.000 C 
ENDBRANCH   8  30
BRANCH   4  31
ATOM     31  O   UNL     1     111.297 128.531 139.963  0.00  0.00    +0.000 OA
BRANCH  31  36
ATOM     32  O   UNL     1     110.871 129.513 140.910  0.00  0.00    +0.000 OA
ATOM     33  O   UNL     1     110.999 131.258 139.160  0.00  0.00    +0.000 OA
ATOM     34  O   UNL     1     110.530 131.657 140.691  0.00  0.00    +0.000 OA
ATOM     35  C   UNL     1     111.148 129.895 139.562  0.00  0.00    +0.000 C 
ATOM     36  C   UNL     1     111.106 129.313 140.146  0.00  0.00    +0.000 C 
ATOM     37  C   UNL     1     110.956 130.676 139.744  0.00  0.00    +0.000 C 
ATOM     38  C   UNL     1     110.722 130.875 140.509  0.00  0.00    +0.000 C 
ATOM     39  C   UNL     1     110.680 130.293 141.092  0.00  0.00    +0.000 C 
BRANCH  39  41
ATOM     40  O   UNL     1     110.994 130.477 142.474  0.00  0.00    +0.000 OA
ATOM     41  C   UNL     1     110.445 130.494 141.858  0.00  0.00    +0.000 C 
ENDBRANCH  39  41
BRANCH  35  42
ATOM     42  O   UNL     1     111.383 129.695 138.796  0.00  0.00    +0.000 OA
BRANCH  42  47
ATOM     43  O   UNL     1     112.746 130.026 139.065  0.00  0.00    +0.000 OA
ATOM     44  O   UNL     1     111.656 129.878 137.179  0.00  0.00    +0.000 OA
ATOM     45  O   UNL     1     113.157 130.300 136.639  0.00  0.00    +0.000 OA
ATOM     46  O   UNL     1     114.384 130.540 137.715  0.00  0.00    +0.000 OA
ATOM     47  C   UNL     1     112.133 129.906 138.526  0.00  0.00    +0.000 C 
ATOM     48  C   UNL     1     112.269 129.997 137.718  0.00  0.00    +0.000 C 
ATOM     49  C   UNL     1     113.020 130.209 137.448  0.00  0.00    +0.000 C 
ATOM     50  C   UNL     1     113.634 130.329 137.986  0.00  0.00    +0.000 C 
ATOM     51  C   UNL     1     113.497 130.237 138.795  0.00  0.00    +0.000 C 
BRANCH  51  53
ATOM     52  O   UNL     1     114.081 130.995 139.855  0.00  0.00    +0.000 OA
ATOM     53  C   UNL     1     114.110 130.357 139.332  0.00  0.00    +0.000 C 
ENDBRANCH  51  53
ENDBRANCH  42  47
ENDBRANCH  35  42
ENDBRANCH  31  36
ENDBRANCH   4  31
TORSDOF 9
ENDMDL
MODEL 3
REMARK VINA RESULT:     -10.3      1.584      3.926
REMARK  Name = 44257710
REMARK  9 active torsions:
REMARK  status: ('A' for Active; 'I' for Inactive)
REMARK    1  A    between atoms: O_1  and  C_21
REMARK    2  A    between atoms: O_1  and  C_23
REMARK    3  A    between atoms: O_3  and  C_22
REMARK    4  A    between atoms: O_3  and  C_31
REMARK    5  A    between atoms: C_26  and  C_34
REMARK    6  A    between atoms: C_29  and  C_37
REMARK    7  A    between atoms: C_30  and  C_38
REMARK    8  A    between atoms: C_36  and  C_40
REMARK    9  A    between atoms: C_46  and  C_48
REMARK                            x       y       z     vdW  Elec       q    Type
REMARK                         _______ _______ _______ _____ _____    ______ ____
ROOT
ATOM      1  O   UNL     1     113.019 128.742 135.490  0.00  0.00    +0.000 OA
ATOM      2  O   UNL     1     113.535 129.590 137.758  0.00  0.00    +0.000 OA
ATOM      3  O   UNL     1     114.551 129.923 136.501  0.00  0.00    +0.000 OA
ATOM      4  C   UNL     1     112.683 128.858 136.874  0.00  0.00    +0.000 C 
ATOM      5  C   UNL     1     113.363 129.307 137.002  0.00  0.00    +0.000 C 
ATOM      6  C   UNL     1     112.511 128.576 136.119  0.00  0.00    +0.000 C 
ATOM      7  C   UNL     1     113.872 129.474 136.374  0.00  0.00    +0.000 C 
ATOM      8  C   UNL     1     113.699 129.191 135.618  0.00  0.00    +0.000 C 
ENDROOT
BRANCH   6  13
ATOM      9  O   UNL     1     112.583 126.937 136.351  0.00  0.00    +0.000 OA
ATOM     10  O   UNL     1     111.114 129.312 135.642  0.00  0.00    +0.000 OA
ATOM     11  O   UNL     1     109.790 126.779 135.609  0.00  0.00    +0.000 OA
ATOM     12  O   UNL     1     110.491 125.567 135.958  0.00  0.00    +0.000 OA
ATOM     13  C   UNL     1     111.830 128.126 135.991  0.00  0.00    +0.000 A 
ATOM     14  C   UNL     1     111.850 127.309 136.102  0.00  0.00    +0.000 A 
ATOM     15  C   UNL     1     111.132 128.494 135.753  0.00  0.00    +0.000 A 
ATOM     16  C   UNL     1     111.169 126.860 135.975  0.00  0.00    +0.000 A 
ATOM     17  C   UNL     1     110.452 128.045 135.626  0.00  0.00    +0.000 A 
ATOM     18  C   UNL     1     110.470 127.228 135.736  0.00  0.00    +0.000 A 
ATOM     19  C   UNL     1     111.176 126.009 136.087  0.00  0.00    +0.000 A 
ATOM     20  C   UNL     1     112.609 126.087 136.468  0.00  0.00    +0.000 A 
ATOM     21  C   UNL     1     111.901 125.619 136.335  0.00  0.00    +0.000 A 
BRANCH  20  23
ATOM     22  O   UNL     1     115.409 124.625 137.423  0.00  0.00    +0.000 OA
ATOM     23  C   UNL     1     113.309 125.721 136.706  0.00  0.00    +0.000 A 
ATOM     24  C   UNL     1     113.924 125.618 136.167  0.00  0.00    +0.000 A 
ATOM     25  C   UNL     1     113.393 125.459 137.484  0.00  0.00    +0.000 A 
ATOM     26  C   UNL     1     114.624 125.252 136.406  0.00  0.00    +0.000 A 
ATOM     27  C   UNL     1     114.093 125.094 137.724  0.00  0.00    +0.000 A 
ATOM     28  C   UNL     1     114.709 124.990 137.184  0.00  0.00    +0.000 A 
ENDBRANCH  20  23
ENDBRANCH   6  13
BRANCH   8  30
ATOM     29  O   UNL     1     114.612 128.744 134.612  0.00  0.00    +0.000 OA
ATOM     30  C   UNL     1     114.207 129.357 134.990  0.00  0.00    +0.000 C 
ENDBRANCH   8  30
BRANCH   4  31
ATOM     31  O   UNL     1     112.174 128.692 137.503  0.00  0.00    +0.000 OA
BRANCH  31  36
ATOM     32  O   UNL     1     111.724 130.024 137.756  0.00  0.00    +0.000 OA
ATOM     33  O   UNL     1     111.838 129.600 140.191  0.00  0.00    +0.000 OA
ATOM     34  O   UNL     1     111.349 131.074 139.632  0.00  0.00    +0.000 OA
ATOM     35  C   UNL     1     112.006 129.146 138.847  0.00  0.00    +0.000 C 
ATOM     36  C   UNL     1     111.968 129.288 138.035  0.00  0.00    +0.000 C 
ATOM     37  C   UNL     1     111.800 129.741 139.379  0.00  0.00    +0.000 C 
ATOM     38  C   UNL     1     111.556 130.478 139.099  0.00  0.00    +0.000 C 
ATOM     39  C   UNL     1     111.518 130.619 138.287  0.00  0.00    +0.000 C 
BRANCH  39  41
ATOM     40  O   UNL     1     110.575 131.421 137.574  0.00  0.00    +0.000 OA
ATOM     41  C   UNL     1     111.273 131.356 138.009  0.00  0.00    +0.000 C 
ENDBRANCH  39  41
BRANCH  35  42
ATOM     42  O   UNL     1     112.251 128.409 139.127  0.00  0.00    +0.000 OA
BRANCH  42  47
ATOM     43  O   UNL     1     110.898 127.981 139.296  0.00  0.00    +0.000 OA
ATOM     44  O   UNL     1     112.760 127.199 140.125  0.00  0.00    +0.000 OA
ATOM     45  O   UNL     1     111.662 126.164 140.794  0.00  0.00    +0.000 OA
ATOM     46  O   UNL     1     110.055 126.341 140.465  0.00  0.00    +0.000 OA
ATOM     47  C   UNL     1     111.702 127.892 139.461  0.00  0.00    +0.000 C 
ATOM     48  C   UNL     1     111.957 127.287 139.960  0.00  0.00    +0.000 C 
ATOM     49  C   UNL     1     111.408 126.770 140.295  0.00  0.00    +0.000 C 
ATOM     50  C   UNL     1     110.604 126.858 140.130  0.00  0.00    +0.000 C 
ATOM     51  C   UNL     1     110.349 127.464 139.630  0.00  0.00    +0.000 C 
BRANCH  51  53
ATOM     52  O   UNL     1     109.261 127.391 138.709  0.00  0.00    +0.000 OA
ATOM     53  C   UNL     1     109.546 127.551 139.466  0.00  0.00    +0.000 C 
ENDBRANCH  51  53
ENDBRANCH  42  47
ENDBRANCH  35  42
ENDBRANCH  31  36
ENDBRANCH   4  31
TORSDOF 9
ENDMDL
MODEL 4
REMARK VINA RESULT:     -10.3      1.170      3.605
REMARK  Name = 44257710
REMARK  9 active torsions:
REMARK  status: ('A' for Active; 'I' for Inactive)
REMARK    1  A    between atoms: O_1  and  C_21
REMARK    2  A    between atoms: O_1  and  C_23
REMARK    3  A    between atoms: O_3  and  C_22
REMARK    4  A    between atoms: O_3  and  C_31
REMARK    5  A    between atoms: C_26  and  C_34
REMARK    6  A    between atoms: C_29  and  C_37
REMARK    7  A    between atoms: C_30  and  C_38
REMARK    8  A    between atoms: C_36  and  C_40
REMARK    9  A    between atoms: C_46  and  C_48
REMARK                            x       y       z     vdW  Elec       q    Type
REMARK                         _______ _______ _______ _____ _____    ______ ____
ROOT
ATOM      1  O   UNL     1     110.573 128.930 135.942  0.00  0.00    +0.000 OA
ATOM      2  O   UNL     1     109.712 129.117 138.255  0.00  0.00    +0.000 OA
ATOM      3  O   UNL     1     108.681 128.766 137.016  0.00  0.00    +0.000 OA
ATOM      4  C   UNL     1     110.803 129.168 137.333  0.00  0.00    +0.000 C 
ATOM      5  C   UNL     1     109.999 129.055 137.484  0.00  0.00    +0.000 C 
ATOM      6  C   UNL     1     111.089 129.105 136.562  0.00  0.00    +0.000 C 
ATOM      7  C   UNL     1     109.483 128.879 136.865  0.00  0.00    +0.000 C 
ATOM      8  C   UNL     1     109.771 128.817 136.094  0.00  0.00    +0.000 C 
ENDROOT
BRANCH   6  13
ATOM      9  O   UNL     1     112.104 127.798 136.628  0.00  0.00    +0.000 OA
ATOM     10  O   UNL     1     111.657 130.612 136.202  0.00  0.00    +0.000 OA
ATOM     11  O   UNL     1     114.302 129.557 135.957  0.00  0.00    +0.000 OA
ATOM     12  O   UNL     1     114.567 128.154 136.162  0.00  0.00    +0.000 OA
ATOM     13  C   UNL     1     111.893 129.219 136.410  0.00  0.00    +0.000 A 
ATOM     14  C   UNL     1     112.411 128.578 136.439  0.00  0.00    +0.000 A 
ATOM     15  C   UNL     1     112.177 129.972 136.231  0.00  0.00    +0.000 A 
ATOM     16  C   UNL     1     113.215 128.691 136.288  0.00  0.00    +0.000 A 
ATOM     17  C   UNL     1     112.979 130.085 136.079  0.00  0.00    +0.000 A 
ATOM     18  C   UNL     1     113.499 129.444 136.108  0.00  0.00    +0.000 A 
ATOM     19  C   UNL     1     113.765 128.032 136.315  0.00  0.00    +0.000 A 
ATOM     20  C   UNL     1     112.640 127.127 136.659  0.00  0.00    +0.000 A 
ATOM     21  C   UNL     1     113.476 127.244 136.502  0.00  0.00    +0.000 A 
BRANCH  20  23
ATOM     22  O   UNL     1     111.493 124.118 137.379  0.00  0.00    +0.000 OA
ATOM     23  C   UNL     1     112.353 126.375 136.839  0.00  0.00    +0.000 A 
ATOM     24  C   UNL     1     112.410 126.085 137.610  0.00  0.00    +0.000 A 
ATOM     25  C   UNL     1     112.009 125.912 136.249  0.00  0.00    +0.000 A 
ATOM     26  C   UNL     1     112.123 125.333 137.789  0.00  0.00    +0.000 A 
ATOM     27  C   UNL     1     111.722 125.160 136.428  0.00  0.00    +0.000 A 
ATOM     28  C   UNL     1     111.779 124.870 137.199  0.00  0.00    +0.000 A 
ENDBRANCH  20  23
ENDBRANCH   6  13
BRANCH   8  30
ATOM     29  O   UNL     1     109.551 128.356 134.759  0.00  0.00    +0.000 OA
ATOM     30  C   UNL     1     109.255 128.642 135.475  0.00  0.00    +0.000 C 
ENDBRANCH   8  30
BRANCH   4  31
ATOM     31  O   UNL     1     111.319 129.343 137.952  0.00  0.00    +0.000 OA
BRANCH  31  36
ATOM     32  O   UNL     1     110.744 130.603 138.304  0.00  0.00    +0.000 OA
ATOM     33  O   UNL     1     111.163 130.127 140.696  0.00  0.00    +0.000 OA
ATOM     34  O   UNL     1     110.448 131.546 140.251  0.00  0.00    +0.000 OA
ATOM     35  C   UNL     1     111.241 129.736 139.324  0.00  0.00    +0.000 C 
ATOM     36  C   UNL     1     111.101 129.894 138.527  0.00  0.00    +0.000 C 
ATOM     37  C   UNL     1     111.023 130.286 139.899  0.00  0.00    +0.000 C 
ATOM     38  C   UNL     1     110.666 130.995 139.675  0.00  0.00    +0.000 C 
ATOM     39  C   UNL     1     110.526 131.153 138.878  0.00  0.00    +0.000 C 
BRANCH  39  41
ATOM     40  O   UNL     1     110.614 132.450 138.284  0.00  0.00    +0.000 OA
ATOM     41  C   UNL     1     110.169 131.863 138.656  0.00  0.00    +0.000 C 
ENDBRANCH  39  41
BRANCH  35  42
ATOM     42  O   UNL     1     111.598 129.026 139.547  0.00  0.00    +0.000 OA
BRANCH  42  47
ATOM     43  O   UNL     1     112.892 129.632 139.567  0.00  0.00    +0.000 OA
ATOM     44  O   UNL     1     112.163 127.790 140.483  0.00  0.00    +0.000 OA
ATOM     45  O   UNL     1     113.739 127.777 140.972  0.00  0.00    +0.000 OA
ATOM     46  O   UNL     1     114.750 129.001 140.524  0.00  0.00    +0.000 OA
ATOM     47  C   UNL     1     112.386 129.020 139.791  0.00  0.00    +0.000 C 
ATOM     48  C   UNL     1     112.668 128.402 140.259  0.00  0.00    +0.000 C 
ATOM     49  C   UNL     1     113.456 128.396 140.503  0.00  0.00    +0.000 C 
ATOM     50  C   UNL     1     113.962 129.007 140.280  0.00  0.00    +0.000 C 
ATOM     51  C   UNL     1     113.680 129.626 139.811  0.00  0.00    +0.000 C 
BRANCH  51  53
ATOM     52  O   UNL     1     114.126 130.975 139.951  0.00  0.00    +0.000 OA
ATOM     53  C   UNL     1     114.186 130.237 139.587  0.00  0.00    +0.000 C 
ENDBRANCH  51  53
ENDBRANCH  42  47
ENDBRANCH  35  42
ENDBRANCH  31  36
ENDBRANCH   4  31
TORSDOF 9
ENDMDL
MODEL 5
REMARK VINA RESULT:     -10.2      1.631      4.227
REMARK  Name = 44257710
REMARK  9 active torsions:
REMARK  status: ('A' for Active; 'I' for Inactive)
REMARK    1  A    between atoms: O_1  and  C_21
REMARK    2  A    between atoms: O_1  and  C_23
REMARK    3  A    between atoms: O_3  and  C_22
REMARK    4  A    between atoms: O_3  and  C_31
REMARK    5  A    between atoms: C_26  and  C_34
REMARK    6  A    between atoms: C_29  and  C_37
REMARK    7  A    between atoms: C_30  and  C_38
REMARK    8  A    between atoms: C_36  and  C_40
REMARK    9  A    between atoms: C_46  and  C_48
REMARK                            x       y       z     vdW  Elec       q    Type
REMARK                         _______ _______ _______ _____ _____    ______ ____
ROOT
ATOM      1  O   UNL     1     110.399 126.334 136.639  0.00  0.00    +0.000 OA
ATOM      2  O   UNL     1     110.937 128.441 135.458  0.00  0.00    +0.000 OA
ATOM      3  O   UNL     1     110.373 127.142 134.612  0.00  0.00    +0.000 OA
ATOM      4  C   UNL     1     110.860 127.686 136.669  0.00  0.00    +0.000 C 
ATOM      5  C   UNL     1     110.758 127.739 135.852  0.00  0.00    +0.000 C 
ATOM      6  C   UNL     1     110.681 126.984 137.062  0.00  0.00    +0.000 C 
ATOM      7  C   UNL     1     110.476 127.089 135.428  0.00  0.00    +0.000 C 
ATOM      8  C   UNL     1     110.297 126.386 135.823  0.00  0.00    +0.000 C 
ENDROOT
BRANCH   6  13
ATOM      9  O   UNL     1     112.128 126.431 137.649  0.00  0.00    +0.000 OA
ATOM     10  O   UNL     1     109.458 127.425 138.078  0.00  0.00    +0.000 OA
ATOM     11  O   UNL     1     111.093 126.774 140.330  0.00  0.00    +0.000 OA
ATOM     12  O   UNL     1     112.435 126.273 140.157  0.00  0.00    +0.000 OA
ATOM     13  C   UNL     1     110.784 126.931 137.880  0.00  0.00    +0.000 A 
ATOM     14  C   UNL     1     111.499 126.658 138.188  0.00  0.00    +0.000 A 
ATOM     15  C   UNL     1     110.172 127.152 138.388  0.00  0.00    +0.000 A 
ATOM     16  C   UNL     1     111.602 126.605 139.006  0.00  0.00    +0.000 A 
ATOM     17  C   UNL     1     110.275 127.099 139.204  0.00  0.00    +0.000 A 
ATOM     18  C   UNL     1     110.990 126.826 139.514  0.00  0.00    +0.000 A 
ATOM     19  C   UNL     1     112.340 126.323 139.340  0.00  0.00    +0.000 A 
ATOM     20  C   UNL     1     112.874 126.146 137.965  0.00  0.00    +0.000 A 
ATOM     21  C   UNL     1     112.982 126.091 138.816  0.00  0.00    +0.000 A 
BRANCH  20  23
ATOM     22  O   UNL     1     115.314 125.265 135.925  0.00  0.00    +0.000 OA
ATOM     23  C   UNL     1     113.484 125.926 137.455  0.00  0.00    +0.000 A 
ATOM     24  C   UNL     1     113.959 126.504 137.106  0.00  0.00    +0.000 A 
ATOM     25  C   UNL     1     113.620 125.128 137.294  0.00  0.00    +0.000 A 
ATOM     26  C   UNL     1     114.568 126.283 136.596  0.00  0.00    +0.000 A 
ATOM     27  C   UNL     1     114.229 124.907 136.784  0.00  0.00    +0.000 A 
ATOM     28  C   UNL     1     114.704 125.485 136.435  0.00  0.00    +0.000 A 
ENDBRANCH  20  23
ENDBRANCH   6  13
BRANCH   8  30
ATOM     29  O   UNL     1     110.418 125.017 135.432  0.00  0.00    +0.000 OA
ATOM     30  C   UNL     1     110.015 125.737 135.400  0.00  0.00    +0.000 C 
ENDBRANCH   8  30
BRANCH   4  31
ATOM     31  O   UNL     1     111.142 128.336 137.092  0.00  0.00    +0.000 OA
BRANCH  31  36
ATOM     32  O   UNL     1     110.053 129.216 136.805  0.00  0.00    +0.000 OA
ATOM     33  O   UNL     1     111.630 131.116 136.644  0.00  0.00    +0.000 OA
ATOM     34  O   UNL     1     110.015 131.362 136.411  0.00  0.00    +0.000 OA
ATOM     35  C   UNL     1     111.386 129.726 136.868  0.00  0.00    +0.000 C 
ATOM     36  C   UNL     1     110.860 129.092 136.922  0.00  0.00    +0.000 C 
ATOM     37  C   UNL     1     111.105 130.482 136.698  0.00  0.00    +0.000 C 
ATOM     38  C   UNL     1     110.297 130.605 136.581  0.00  0.00    +0.000 C 
ATOM     39  C   UNL     1     109.771 129.971 136.635  0.00  0.00    +0.000 C 
BRANCH  39  41
ATOM     40  O   UNL     1     108.439 130.013 137.150  0.00  0.00    +0.000 OA
ATOM     41  C   UNL     1     108.964 130.095 136.519  0.00  0.00    +0.000 C 
ENDBRANCH  39  41
BRANCH  35  42
ATOM     42  O   UNL     1     112.194 129.603 136.984  0.00  0.00    +0.000 OA
BRANCH  42  47
ATOM     43  O   UNL     1     112.099 129.935 138.371  0.00  0.00    +0.000 OA
ATOM     44  O   UNL     1     113.813 129.920 137.018  0.00  0.00    +0.000 OA
ATOM     45  O   UNL     1     114.529 130.410 138.421  0.00  0.00    +0.000 OA
ATOM     46  O   UNL     1     113.625 130.584 139.791  0.00  0.00    +0.000 OA
ATOM     47  C   UNL     1     112.552 129.848 137.686  0.00  0.00    +0.000 C 
ATOM     48  C   UNL     1     113.361 130.006 137.702  0.00  0.00    +0.000 C 
ATOM     49  C   UNL     1     113.718 130.252 138.404  0.00  0.00    +0.000 C 
ATOM     50  C   UNL     1     113.267 130.339 139.089  0.00  0.00    +0.000 C 
ATOM     51  C   UNL     1     112.457 130.180 139.072  0.00  0.00    +0.000 C 
BRANCH  51  53
ATOM     52  O   UNL     1     111.530 130.934 139.854  0.00  0.00    +0.000 OA
ATOM     53  C   UNL     1     112.006 130.268 139.757  0.00  0.00    +0.000 C 
ENDBRANCH  51  53
ENDBRANCH  42  47
ENDBRANCH  35  42
ENDBRANCH  31  36
ENDBRANCH   4  31
TORSDOF 9
ENDMDL
MODEL 6
REMARK VINA RESULT:     -10.2      1.653      5.038
REMARK  Name = 44257710
REMARK  9 active torsions:
REMARK  status: ('A' for Active; 'I' for Inactive)
REMARK    1  A    between atoms: O_1  and  C_21
REMARK    2  A    between atoms: O_1  and  C_23
REMARK    3  A    between atoms: O_3  and  C_22
REMARK    4  A    between atoms: O_3  and  C_31
REMARK    5  A    between atoms: C_26  and  C_34
REMARK    6  A    between atoms: C_29  and  C_37
REMARK    7  A    between atoms: C_30  and  C_38
REMARK    8  A    between atoms: C_36  and  C_40
REMARK    9  A    between atoms: C_46  and  C_48
REMARK                            x       y       z     vdW  Elec       q    Type
REMARK                         _______ _______ _______ _____ _____    ______ ____
ROOT
ATOM      1  O   UNL     1     112.681 129.077 136.281  0.00  0.00    +0.000 OA
ATOM      2  O   UNL     1     113.356 126.764 136.846  0.00  0.00    +0.000 OA
ATOM      3  O   UNL     1     114.281 127.667 135.820  0.00  0.00    +0.000 OA
ATOM      4  C   UNL     1     112.443 127.855 136.983  0.00  0.00    +0.000 C 
ATOM      5  C   UNL     1     113.131 127.535 136.658  0.00  0.00    +0.000 C 
ATOM      6  C   UNL     1     112.218 128.626 136.794  0.00  0.00    +0.000 C 
ATOM      7  C   UNL     1     113.594 127.987 136.145  0.00  0.00    +0.000 C 
ATOM      8  C   UNL     1     113.368 128.758 135.957  0.00  0.00    +0.000 C 
ENDROOT
BRANCH   6  13
ATOM      9  O   UNL     1     112.315 129.413 138.248  0.00  0.00    +0.000 OA
ATOM     10  O   UNL     1     110.781 128.475 135.997  0.00  0.00    +0.000 OA
ATOM     11  O   UNL     1     109.468 129.905 138.095  0.00  0.00    +0.000 OA
ATOM     12  O   UNL     1     110.200 130.391 139.239  0.00  0.00    +0.000 OA
ATOM     13  C   UNL     1     111.530 128.946 137.120  0.00  0.00    +0.000 A 
ATOM     14  C   UNL     1     111.561 129.341 137.843  0.00  0.00    +0.000 A 
ATOM     15  C   UNL     1     110.812 128.871 136.721  0.00  0.00    +0.000 A 
ATOM     16  C   UNL     1     110.873 129.661 138.168  0.00  0.00    +0.000 A 
ATOM     17  C   UNL     1     110.125 129.190 137.046  0.00  0.00    +0.000 A 
ATOM     18  C   UNL     1     110.155 129.585 137.770  0.00  0.00    +0.000 A 
ATOM     19  C   UNL     1     110.893 130.074 138.921  0.00  0.00    +0.000 A 
ATOM     20  C   UNL     1     112.354 129.823 139.002  0.00  0.00    +0.000 A 
ATOM     21  C   UNL     1     111.638 130.156 139.341  0.00  0.00    +0.000 A 
BRANCH  20  23
ATOM     22  O   UNL     1     115.233 130.120 140.587  0.00  0.00    +0.000 OA
ATOM     23  C   UNL     1     113.074 129.897 139.399  0.00  0.00    +0.000 A 
ATOM     24  C   UNL     1     113.234 129.422 140.054  0.00  0.00    +0.000 A 
ATOM     25  C   UNL     1     113.632 130.447 139.140  0.00  0.00    +0.000 A 
ATOM     26  C   UNL     1     113.955 129.497 140.449  0.00  0.00    +0.000 A 
ATOM     27  C   UNL     1     114.352 130.521 139.536  0.00  0.00    +0.000 A 
ATOM     28  C   UNL     1     114.513 130.046 140.191  0.00  0.00    +0.000 A 
ENDBRANCH  20  23
ENDBRANCH   6  13
BRANCH   8  30
ATOM     29  O   UNL     1     113.893 130.025 135.554  0.00  0.00    +0.000 OA
ATOM     30  C   UNL     1     113.830 129.209 135.444  0.00  0.00    +0.000 C 
ENDBRANCH   8  30
BRANCH   4  31
ATOM     31  O   UNL     1     111.981 127.404 137.496  0.00  0.00    +0.000 OA
BRANCH  31  36
ATOM     32  O   UNL     1     111.608 126.404 136.546  0.00  0.00    +0.000 OA
ATOM     33  O   UNL     1     111.725 124.678 138.316  0.00  0.00    +0.000 OA
ATOM     34  O   UNL     1     111.313 124.253 136.775  0.00  0.00    +0.000 OA
ATOM     35  C   UNL     1     111.852 126.041 137.905  0.00  0.00    +0.000 C 
ATOM     36  C   UNL     1     111.814 126.616 137.315  0.00  0.00    +0.000 C 
ATOM     37  C   UNL     1     111.686 125.253 137.726  0.00  0.00    +0.000 C 
ATOM     38  C   UNL     1     111.480 125.042 136.955  0.00  0.00    +0.000 C 
ATOM     39  C   UNL     1     111.441 125.617 136.365  0.00  0.00    +0.000 C 
BRANCH  39  41
ATOM     40  O   UNL     1     110.505 125.631 135.286  0.00  0.00    +0.000 OA
ATOM     41  C   UNL     1     111.235 125.404 135.595  0.00  0.00    +0.000 C 
ENDBRANCH  39  41
BRANCH  35  42
ATOM     42  O   UNL     1     112.058 126.253 138.676  0.00  0.00    +0.000 OA
BRANCH  42  47
ATOM     43  O   UNL     1     110.682 126.258 139.059  0.00  0.00    +0.000 OA
ATOM     44  O   UNL     1     112.501 126.355 140.262  0.00  0.00    +0.000 OA
ATOM     45  O   UNL     1     111.347 126.411 141.439  0.00  0.00    +0.000 OA
ATOM     46  O   UNL     1     109.749 126.365 141.030  0.00  0.00    +0.000 OA
ATOM     47  C   UNL     1     111.481 126.281 139.265  0.00  0.00    +0.000 C 
ATOM     48  C   UNL     1     111.703 126.332 140.057  0.00  0.00    +0.000 C 
ATOM     49  C   UNL     1     111.125 126.360 140.646  0.00  0.00    +0.000 C 
ATOM     50  C   UNL     1     110.326 126.337 140.442  0.00  0.00    +0.000 C 
ATOM     51  C   UNL     1     110.105 126.286 139.648  0.00  0.00    +0.000 C 
BRANCH  51  53
ATOM     52  O   UNL     1     108.961 126.905 139.059  0.00  0.00    +0.000 OA
ATOM     53  C   UNL     1     109.306 126.262 139.444  0.00  0.00    +0.000 C 
ENDBRANCH  51  53
ENDBRANCH  42  47
ENDBRANCH  35  42
ENDBRANCH  31  36
ENDBRANCH   4  31
TORSDOF 9
ENDMDL
MODEL 7
REMARK VINA RESULT:     -10.2      1.401      4.011
REMARK  Name = 44257710
REMARK  9 active torsions:
REMARK  status: ('A' for Active; 'I' for Inactive)
REMARK    1  A    between atoms: O_1  and  C_21
REMARK    2  A    between atoms: O_1  and  C_23
REMARK    3  A    between atoms: O_3  and  C_22
REMARK    4  A    between atoms: O_3  and  C_31
REMARK    5  A    between atoms: C_26  and  C_34
REMARK    6  A    between atoms: C_29  and  C_37
REMARK    7  A    between atoms: C_30  and  C_38
REMARK    8  A    between atoms: C_36  and  C_40
REMARK    9  A    between atoms: C_46  and  C_48
REMARK                            x       y       z     vdW  Elec       q    Type
REMARK                         _______ _______ _______ _____ _____    ______ ____
ROOT
ATOM      1  O   UNL     1     111.798 130.525 138.122  0.00  0.00    +0.000 OA
ATOM      2  O   UNL     1     111.184 128.860 139.846  0.00  0.00    +0.000 OA
ATOM      3  O   UNL     1     110.580 130.393 139.928  0.00  0.00    +0.000 OA
ATOM      4  C   UNL     1     111.896 129.203 138.656  0.00  0.00    +0.000 C 
ATOM      5  C   UNL     1     111.389 129.415 139.272  0.00  0.00    +0.000 C 
ATOM      6  C   UNL     1     112.100 129.759 138.081  0.00  0.00    +0.000 C 
ATOM      7  C   UNL     1     111.087 130.182 139.312  0.00  0.00    +0.000 C 
ATOM      8  C   UNL     1     111.292 130.737 138.737  0.00  0.00    +0.000 C 
ENDROOT
BRANCH   6  13
ATOM      9  O   UNL     1     111.452 129.105 136.704  0.00  0.00    +0.000 OA
ATOM     10  O   UNL     1     113.727 129.988 138.235  0.00  0.00    +0.000 OA
ATOM     11  O   UNL     1     114.127 128.911 135.618  0.00  0.00    +0.000 OA
ATOM     12  O   UNL     1     113.014 128.458 134.820  0.00  0.00    +0.000 OA
ATOM     13  C   UNL     1     112.608 129.547 137.465  0.00  0.00    +0.000 A 
ATOM     14  C   UNL     1     112.300 129.220 136.773  0.00  0.00    +0.000 A 
ATOM     15  C   UNL     1     113.421 129.661 137.542  0.00  0.00    +0.000 A 
ATOM     16  C   UNL     1     112.808 129.008 136.157  0.00  0.00    +0.000 A 
ATOM     17  C   UNL     1     113.927 129.450 136.927  0.00  0.00    +0.000 A 
ATOM     18  C   UNL     1     113.621 129.123 136.234  0.00  0.00    +0.000 A 
ATOM     19  C   UNL     1     112.501 128.667 135.431  0.00  0.00    +0.000 A 
ATOM     20  C   UNL     1     111.127 128.765 135.985  0.00  0.00    +0.000 A 
ATOM     21  C   UNL     1     111.654 128.545 135.344  0.00  0.00    +0.000 A 
BRANCH  20  23
ATOM     22  O   UNL     1     107.872 128.311 135.688  0.00  0.00    +0.000 OA
ATOM     23  C   UNL     1     110.313 128.652 135.911  0.00  0.00    +0.000 A 
ATOM     24  C   UNL     1     109.989 127.901 136.023  0.00  0.00    +0.000 A 
ATOM     25  C   UNL     1     109.822 129.289 135.725  0.00  0.00    +0.000 A 
ATOM     26  C   UNL     1     109.176 127.788 135.948  0.00  0.00    +0.000 A 
ATOM     27  C   UNL     1     109.009 129.176 135.651  0.00  0.00    +0.000 A 
ATOM     28  C   UNL     1     108.685 128.425 135.762  0.00  0.00    +0.000 A 
ENDBRANCH  20  23
ENDBRANCH   6  13
BRANCH   8  30
ATOM     29  O   UNL     1     111.007 131.990 138.111  0.00  0.00    +0.000 OA
ATOM     30  C   UNL     1     110.990 131.503 138.778  0.00  0.00    +0.000 C 
ENDBRANCH   8  30
BRANCH   4  31
ATOM     31  O   UNL     1     112.198 128.437 138.615  0.00  0.00    +0.000 OA
BRANCH  31  36
ATOM     32  O   UNL     1     112.987 128.483 139.805  0.00  0.00    +0.000 OA
ATOM     33  O   UNL     1     112.349 126.147 140.319  0.00  0.00    +0.000 OA
ATOM     34  O   UNL     1     113.351 126.972 141.338  0.00  0.00    +0.000 OA
ATOM     35  C   UNL     1     112.274 127.292 139.467  0.00  0.00    +0.000 C 
ATOM     36  C   UNL     1     112.487 128.071 139.296  0.00  0.00    +0.000 C 
ATOM     37  C   UNL     1     112.562 126.926 140.148  0.00  0.00    +0.000 C 
ATOM     38  C   UNL     1     113.063 127.339 140.657  0.00  0.00    +0.000 C 
ATOM     39  C   UNL     1     113.276 128.117 140.485  0.00  0.00    +0.000 C 
BRANCH  39  41
ATOM     40  O   UNL     1     114.523 128.766 140.736  0.00  0.00    +0.000 OA
ATOM     41  C   UNL     1     113.777 128.529 140.995  0.00  0.00    +0.000 C 
ENDBRANCH  39  41
BRANCH  35  42
ATOM     42  O   UNL     1     111.772 126.880 138.958  0.00  0.00    +0.000 OA
BRANCH  42  47
ATOM     43  O   UNL     1     112.877 126.313 138.250  0.00  0.00    +0.000 OA
ATOM     44  O   UNL     1     110.789 125.689 138.376  0.00  0.00    +0.000 OA
ATOM     45  O   UNL     1     111.401 124.528 137.377  0.00  0.00    +0.000 OA
ATOM     46  O   UNL     1     112.997 124.556 136.960  0.00  0.00    +0.000 OA
ATOM     47  C   UNL     1     112.079 126.299 138.458  0.00  0.00    +0.000 C 
ATOM     48  C   UNL     1     111.587 125.704 138.168  0.00  0.00    +0.000 C 
ATOM     49  C   UNL     1     111.893 125.123 137.669  0.00  0.00    +0.000 C 
ATOM     50  C   UNL     1     112.691 125.137 137.460  0.00  0.00    +0.000 C 
ATOM     51  C   UNL     1     113.183 125.732 137.751  0.00  0.00    +0.000 C 
BRANCH  51  53
ATOM     52  O   UNL     1     114.549 125.468 138.071  0.00  0.00    +0.000 OA
ATOM     53  C   UNL     1     113.981 125.746 137.542  0.00  0.00    +0.000 C 
ENDBRANCH  51  53
ENDBRANCH  42  47
ENDBRANCH  35  42
ENDBRANCH  31  36
ENDBRANCH   4  31
TORSDOF 9
ENDMDL
MODEL 8
REMARK VINA RESULT:     -10.2      1.873      3.777
REMARK  Name = 44257710
REMARK  9 active torsions:
REMARK  status: ('A' for Active; 'I' for Inactive)
REMARK    1  A    between atoms: O_1  and  C_21
REMARK    2  A    between atoms: O_1  and  C_23
REMARK    3  A    between atoms: O_3  and  C_22
REMARK    4  A    between atoms: O_3  and  C_31
REMARK    5  A    between atoms: C_26  and  C_34
REMARK    6  A    between atoms: C_29  and  C_37
REMARK    7  A    between atoms: C_30  and  C_38
REMARK    8  A    between atoms: C_36  and  C_40
REMARK    9  A    between atoms: C_46  and  C_48
REMARK                            x       y       z     vdW  Elec       q    Type
REMARK                         _______ _______ _______ _____ _____    ______ ____
ROOT
ATOM      1  O   UNL     1     112.944 130.146 138.789  0.00  0.00    +0.000 OA
ATOM      2  O   UNL     1     113.415 129.409 141.104  0.00  0.00    +0.000 OA
ATOM      3  O   UNL     1     114.588 130.166 140.224  0.00  0.00    +0.000 OA
ATOM      4  C   UNL     1     112.514 129.522 140.001  0.00  0.00    +0.000 C 
ATOM      5  C   UNL     1     113.258 129.655 140.333  0.00  0.00    +0.000 C 
ATOM      6  C   UNL     1     112.357 129.768 139.229  0.00  0.00    +0.000 C 
ATOM      7  C   UNL     1     113.845 130.033 139.893  0.00  0.00    +0.000 C 
ATOM      8  C   UNL     1     113.687 130.279 139.121  0.00  0.00    +0.000 C 
ENDROOT
BRANCH   6  13
ATOM      9  O   UNL     1     112.091 128.352 138.412  0.00  0.00    +0.000 OA
ATOM     10  O   UNL     1     111.169 130.902 139.386  0.00  0.00    +0.000 OA
ATOM     11  O   UNL     1     109.383 129.236 137.903  0.00  0.00    +0.000 OA
ATOM     12  O   UNL     1     109.806 127.952 137.398  0.00  0.00    +0.000 OA
ATOM     13  C   UNL     1     111.613 129.635 138.897  0.00  0.00    +0.000 A 
ATOM     14  C   UNL     1     111.464 128.935 138.487  0.00  0.00    +0.000 A 
ATOM     15  C   UNL     1     111.019 130.202 138.976  0.00  0.00    +0.000 A 
ATOM     16  C   UNL     1     110.720 128.802 138.156  0.00  0.00    +0.000 A 
ATOM     17  C   UNL     1     110.276 130.069 138.645  0.00  0.00    +0.000 A 
ATOM     18  C   UNL     1     110.126 129.369 138.234  0.00  0.00    +0.000 A 
ATOM     19  C   UNL     1     110.552 128.077 137.726  0.00  0.00    +0.000 A 
ATOM     20  C   UNL     1     111.941 127.621 137.986  0.00  0.00    +0.000 A 
ATOM     21  C   UNL     1     111.167 127.482 137.641  0.00  0.00    +0.000 A 
BRANCH  20  23
ATOM     22  O   UNL     1     114.324 125.359 137.679  0.00  0.00    +0.000 OA
ATOM     23  C   UNL     1     112.537 127.056 137.909  0.00  0.00    +0.000 A 
ATOM     24  C   UNL     1     113.075 127.106 137.286  0.00  0.00    +0.000 A 
ATOM     25  C   UNL     1     112.595 126.440 138.456  0.00  0.00    +0.000 A 
ATOM     26  C   UNL     1     113.670 126.540 137.210  0.00  0.00    +0.000 A 
ATOM     27  C   UNL     1     113.190 125.874 138.379  0.00  0.00    +0.000 A 
ATOM     28  C   UNL     1     113.728 125.925 137.756  0.00  0.00    +0.000 A 
ENDBRANCH  20  23
ENDBRANCH   6  13
BRANCH   8  30
ATOM     29  O   UNL     1     114.223 130.678 137.857  0.00  0.00    +0.000 OA
ATOM     30  C   UNL     1     114.273 130.657 138.681  0.00  0.00    +0.000 C 
ENDBRANCH   8  30
BRANCH   4  31
ATOM     31  O   UNL     1     111.928 129.143 140.441  0.00  0.00    +0.000 OA
BRANCH  31  36
ATOM     32  O   UNL     1     111.834 130.140 141.461  0.00  0.00    +0.000 OA
ATOM     33  O   UNL     1     111.398 128.378 143.143  0.00  0.00    +0.000 OA
ATOM     34  O   UNL     1     111.450 129.962 143.602  0.00  0.00    +0.000 OA
ATOM     35  C   UNL     1     111.663 128.761 141.792  0.00  0.00    +0.000 C 
ATOM     36  C   UNL     1     111.808 129.349 141.231  0.00  0.00    +0.000 C 
ATOM     37  C   UNL     1     111.543 128.965 142.582  0.00  0.00    +0.000 C 
ATOM     38  C   UNL     1     111.570 129.757 142.811  0.00  0.00    +0.000 C 
ATOM     39  C   UNL     1     111.715 130.345 142.250  0.00  0.00    +0.000 C 
BRANCH  39  41
ATOM     40  O   UNL     1     111.192 131.672 142.177  0.00  0.00    +0.000 OA
ATOM     41  C   UNL     1     111.741 131.137 142.480  0.00  0.00    +0.000 C 
ENDBRANCH  39  41
BRANCH  35  42
ATOM     42  O   UNL     1     111.637 127.968 141.562  0.00  0.00    +0.000 OA
BRANCH  42  47
ATOM     43  O   UNL     1     110.209 128.012 141.535  0.00  0.00    +0.000 OA
ATOM     44  O   UNL     1     111.591 126.329 141.377  0.00  0.00    +0.000 OA
ATOM     45  O   UNL     1     110.141 125.553 141.257  0.00  0.00    +0.000 OA
ATOM     46  O   UNL     1     108.735 126.414 141.323  0.00  0.00    +0.000 OA
ATOM     47  C   UNL     1     110.911 127.580 141.502  0.00  0.00    +0.000 C 
ATOM     48  C   UNL     1     110.889 126.761 141.410  0.00  0.00    +0.000 C 
ATOM     49  C   UNL     1     110.164 126.373 141.350  0.00  0.00    +0.000 C 
ATOM     50  C   UNL     1     109.461 126.803 141.383  0.00  0.00    +0.000 C 
ATOM     51  C   UNL     1     109.483 127.623 141.476  0.00  0.00    +0.000 C 
BRANCH  51  53
ATOM     52  O   UNL     1     108.519 128.466 140.844  0.00  0.00    +0.000 OA
ATOM     53  C   UNL     1     108.780 128.053 141.508  0.00  0.00    +0.000 C 
ENDBRANCH  51  53
ENDBRANCH  42  47
ENDBRANCH  35  42
ENDBRANCH  31  36
ENDBRANCH   4  31
TORSDOF 9
ENDMDL
MODEL 9
REMARK VINA RESULT:     -10.1      1.737      3.497
REMARK  Name = 44257710
REMARK  9 active torsions:
REMARK  status: ('A' for Active; 'I' for Inactive)
REMARK    1  A    between atoms: O_1  and  C_21
REMARK    2  A    between atoms: O_1  and  C_23
REMARK    3  A    between atoms: O_3  and  C_22
REMARK    4  A    between atoms: O_3  and  C_31
REMARK    5  A    between atoms: C_26  and  C_34
REMARK    6  A    between atoms: C_29  and  C_37
REMARK    7  A    between atoms: C_30  and  C_38
REMARK    8  A    between atoms: C_36  and  C_40
REMARK    9  A    between atoms: C_46  and  C_48
REMARK                            x       y       z     vdW  Elec       q    Type
REMARK                         _______ _______ _______ _____ _____    ______ ____
ROOT
ATOM      1  O   UNL     1     110.272 125.920 138.837  0.00  0.00    +0.000 OA
ATOM      2  O   UNL     1     111.482 127.932 139.619  0.00  0.00    +0.000 OA
ATOM      3  O   UNL     1     111.167 126.698 140.669  0.00  0.00    +0.000 OA
ATOM      4  C   UNL     1     110.832 127.208 138.573  0.00  0.00    +0.000 C 
ATOM      5  C   UNL     1     111.079 127.261 139.359  0.00  0.00    +0.000 C 
ATOM      6  C   UNL     1     110.429 126.537 138.312  0.00  0.00    +0.000 C 
ATOM      7  C   UNL     1     110.922 126.644 139.884  0.00  0.00    +0.000 C 
ATOM      8  C   UNL     1     110.518 125.974 139.622  0.00  0.00    +0.000 C 
ENDROOT
BRANCH   6  13
ATOM      9  O   UNL     1     111.451 125.854 137.203  0.00  0.00    +0.000 OA
ATOM     10  O   UNL     1     108.944 127.105 137.872  0.00  0.00    +0.000 OA
ATOM     11  O   UNL     1     109.446 126.322 135.170  0.00  0.00    +0.000 OA
ATOM     12  O   UNL     1     110.689 125.693 134.794  0.00  0.00    +0.000 OA
ATOM     13  C   UNL     1     110.183 126.483 137.526  0.00  0.00    +0.000 A 
ATOM     14  C   UNL     1     110.680 126.146 136.961  0.00  0.00    +0.000 A 
ATOM     15  C   UNL     1     109.440 126.767 137.306  0.00  0.00    +0.000 A 
ATOM     16  C   UNL     1     110.434 126.092 136.175  0.00  0.00    +0.000 A 
ATOM     17  C   UNL     1     109.195 126.713 136.521  0.00  0.00    +0.000 A 
ATOM     18  C   UNL     1     109.692 126.376 135.955  0.00  0.00    +0.000 A 
ATOM     19  C   UNL     1     110.942 125.743 135.577  0.00  0.00    +0.000 A 
ATOM     20  C   UNL     1     111.973 125.501 136.618  0.00  0.00    +0.000 A 
ATOM     21  C   UNL     1     111.718 125.445 135.800  0.00  0.00    +0.000 A 
BRANCH  20  23
ATOM     22  O   UNL     1     114.941 124.368 137.510  0.00  0.00    +0.000 OA
ATOM     23  C   UNL     1     112.715 125.218 136.841  0.00  0.00    +0.000 A 
ATOM     24  C   UNL     1     113.374 125.713 136.802  0.00  0.00    +0.000 A 
ATOM     25  C   UNL     1     112.799 124.440 137.103  0.00  0.00    +0.000 A 
ATOM     26  C   UNL     1     114.116 125.429 137.025  0.00  0.00    +0.000 A 
ATOM     27  C   UNL     1     113.540 124.156 137.327  0.00  0.00    +0.000 A 
ATOM     28  C   UNL     1     114.199 124.651 137.287  0.00  0.00    +0.000 A 
ENDBRANCH  20  23
ENDBRANCH   6  13
BRANCH   8  30
ATOM     29  O   UNL     1     109.613 125.009 140.163  0.00  0.00    +0.000 OA
ATOM     30  C   UNL     1     110.361 125.357 140.147  0.00  0.00    +0.000 C 
ENDBRANCH   8  30
BRANCH   4  31
ATOM     31  O   UNL     1     110.990 127.825 138.048  0.00  0.00    +0.000 OA
BRANCH  31  36
ATOM     32  O   UNL     1     110.198 128.840 138.669  0.00  0.00    +0.000 OA
ATOM     33  O   UNL     1     111.999 130.490 138.266  0.00  0.00    +0.000 OA
ATOM     34  O   UNL     1     110.607 130.955 139.022  0.00  0.00    +0.000 OA
ATOM     35  C   UNL     1     111.494 129.157 138.158  0.00  0.00    +0.000 C 
ATOM     36  C   UNL     1     110.893 128.607 138.292  0.00  0.00    +0.000 C 
ATOM     37  C   UNL     1     111.399 129.940 138.401  0.00  0.00    +0.000 C 
ATOM     38  C   UNL     1     110.703 130.172 138.778  0.00  0.00    +0.000 C 
ATOM     39  C   UNL     1     110.103 129.622 138.912  0.00  0.00    +0.000 C 
BRANCH  39  41
ATOM     40  O   UNL     1     108.687 129.812 138.890  0.00  0.00    +0.000 OA
ATOM     41  C   UNL     1     109.407 129.855 139.290  0.00  0.00    +0.000 C 
ENDBRANCH  39  41
BRANCH  35  42
ATOM     42  O   UNL     1     112.190 128.925 137.780  0.00  0.00    +0.000 OA
BRANCH  42  47
ATOM     43  O   UNL     1     111.680 129.359 136.517  0.00  0.00    +0.000 OA
ATOM     44  O   UNL     1     113.707 128.836 137.137  0.00  0.00    +0.000 OA
ATOM     45  O   UNL     1     113.956 129.226 135.553  0.00  0.00    +0.000 OA
ATOM     46  O   UNL     1     112.688 129.705 134.612  0.00  0.00    +0.000 OA
ATOM     47  C   UNL     1     112.314 129.120 136.988  0.00  0.00    +0.000 C 
ATOM     48  C   UNL     1     113.072 129.075 136.667  0.00  0.00    +0.000 C 
ATOM     49  C   UNL     1     113.197 129.270 135.875  0.00  0.00    +0.000 C 
ATOM     50  C   UNL     1     112.564 129.510 135.404  0.00  0.00    +0.000 C 
ATOM     51  C   UNL     1     111.804 129.554 135.726  0.00  0.00    +0.000 C 
BRANCH  51  53
ATOM     52  O   UNL     1     110.680 129.228 134.908  0.00  0.00    +0.000 OA
ATOM     53  C   UNL     1     111.171 129.793 135.255  0.00  0.00    +0.000 C 
ENDBRANCH  51  53
ENDBRANCH  42  47
ENDBRANCH  35  42
ENDBRANCH  31  36
ENDBRANCH   4  31
TORSDOF 9
ENDMDL
MODEL 10
REMARK VINA RESULT:     -10.1      1.708      4.480
REMARK  Name = 44257710
REMARK  9 active torsions:
REMARK  status: ('A' for Active; 'I' for Inactive)
REMARK    1  A    between atoms: O_1  and  C_21
REMARK    2  A    between atoms: O_1  and  C_23
REMARK    3  A    between atoms: O_3  and  C_22
REMARK    4  A    between atoms: O_3  and  C_31
REMARK    5  A    between atoms: C_26  and  C_34
REMARK    6  A    between atoms: C_29  and  C_37
REMARK    7  A    between atoms: C_30  and  C_38
REMARK    8  A    between atoms: C_36  and  C_40
REMARK    9  A    between atoms: C_46  and  C_48
REMARK                            x       y       z     vdW  Elec       q    Type
REMARK                         _______ _______ _______ _____ _____    ______ ____
ROOT
ATOM      1  O   UNL     1     112.642 126.630 138.994  0.00  0.00    +0.000 OA
ATOM      2  O   UNL     1     111.905 128.300 137.323  0.00  0.00    +0.000 OA
ATOM      3  O   UNL     1     113.135 127.261 136.964  0.00  0.00    +0.000 OA
ATOM      4  C   UNL     1     111.781 127.706 138.617  0.00  0.00    +0.000 C 
ATOM      5  C   UNL     1     112.151 127.743 137.880  0.00  0.00    +0.000 C 
ATOM      6  C   UNL     1     112.027 127.150 139.174  0.00  0.00    +0.000 C 
ATOM      7  C   UNL     1     112.766 127.224 137.700  0.00  0.00    +0.000 C 
ATOM      8  C   UNL     1     113.011 126.667 138.258  0.00  0.00    +0.000 C 
ENDROOT
BRANCH   6  13
ATOM      9  O   UNL     1     112.591 128.113 140.397  0.00  0.00    +0.000 OA
ATOM     10  O   UNL     1     110.751 126.130 139.406  0.00  0.00    +0.000 OA
ATOM     11  O   UNL     1     110.548 127.002 142.121  0.00  0.00    +0.000 OA
ATOM     12  O   UNL     1     111.451 127.993 142.655  0.00  0.00    +0.000 OA
ATOM     13  C   UNL     1     111.657 127.113 139.911  0.00  0.00    +0.000 A 
ATOM     14  C   UNL     1     111.926 127.586 140.531  0.00  0.00    +0.000 A 
ATOM     15  C   UNL     1     111.019 126.603 140.027  0.00  0.00    +0.000 A 
ATOM     16  C   UNL     1     111.556 127.549 141.268  0.00  0.00    +0.000 A 
ATOM     17  C   UNL     1     110.650 126.566 140.763  0.00  0.00    +0.000 A 
ATOM     18  C   UNL     1     110.918 127.039 141.384  0.00  0.00    +0.000 A 
ATOM     19  C   UNL     1     111.826 128.036 141.921  0.00  0.00    +0.000 A 
ATOM     20  C   UNL     1     112.875 128.608 141.040  0.00  0.00    +0.000 A 
ATOM     21  C   UNL     1     112.490 128.570 141.807  0.00  0.00    +0.000 A 
BRANCH  20  23
ATOM     22  O   UNL     1     115.427 130.645 140.563  0.00  0.00    +0.000 OA
ATOM     23  C   UNL     1     113.513 129.117 140.920  0.00  0.00    +0.000 A 
ATOM     24  C   UNL     1     114.262 128.809 140.765  0.00  0.00    +0.000 A 
ATOM     25  C   UNL     1     113.402 129.934 140.957  0.00  0.00    +0.000 A 
ATOM     26  C   UNL     1     114.900 129.319 140.646  0.00  0.00    +0.000 A 
ATOM     27  C   UNL     1     114.039 130.443 140.838  0.00  0.00    +0.000 A 
ATOM     28  C   UNL     1     114.789 130.136 140.682  0.00  0.00    +0.000 A 
ENDBRANCH  20  23
ENDBRANCH   6  13
BRANCH   8  30
ATOM     29  O   UNL     1     114.128 125.879 138.677  0.00  0.00    +0.000 OA
ATOM     30  C   UNL     1     113.626 126.148 138.078  0.00  0.00    +0.000 C 
ENDBRANCH   8  30
BRANCH   4  31
ATOM     31  O   UNL     1     111.166 128.226 138.797  0.00  0.00    +0.000 OA
BRANCH  31  36
ATOM     32  O   UNL     1     110.242 127.755 137.813  0.00  0.00    +0.000 OA
ATOM     33  O   UNL     1     109.483 130.076 137.414  0.00  0.00    +0.000 OA
ATOM     34  O   UNL     1     108.813 128.831 136.563  0.00  0.00    +0.000 OA
ATOM     35  C   UNL     1     110.324 129.151 138.105  0.00  0.00    +0.000 C 
ATOM     36  C   UNL     1     110.577 128.377 138.238  0.00  0.00    +0.000 C 
ATOM     37  C   UNL     1     109.736 129.303 137.547  0.00  0.00    +0.000 C 
ATOM     38  C   UNL     1     109.401 128.680 137.122  0.00  0.00    +0.000 C 
ATOM     39  C   UNL     1     109.655 127.906 137.255  0.00  0.00    +0.000 C 
BRANCH  39  41
ATOM     40  O   UNL     1     108.879 126.707 137.222  0.00  0.00    +0.000 OA
ATOM     41  C   UNL     1     109.319 127.284 136.829  0.00  0.00    +0.000 C 
ENDBRANCH  39  41
BRANCH  35  42
ATOM     42  O   UNL     1     110.659 129.774 138.531  0.00  0.00    +0.000 OA
BRANCH  42  47
ATOM     43  O   UNL     1     109.557 129.773 139.440  0.00  0.00    +0.000 OA
ATOM     44  O   UNL     1     111.154 131.229 139.130  0.00  0.00    +0.000 OA
ATOM     45  O   UNL     1     110.299 131.957 140.339  0.00  0.00    +0.000 OA
ATOM     46  O   UNL     1     108.950 131.229 140.949  0.00  0.00    +0.000 OA
ATOM     47  C   UNL     1     110.232 130.138 139.135  0.00  0.00    +0.000 C 
ATOM     48  C   UNL     1     110.479 130.865 139.434  0.00  0.00    +0.000 C 
ATOM     49  C   UNL     1     110.052 131.229 140.039  0.00  0.00    +0.000 C 
ATOM     50  C   UNL     1     109.377 130.865 140.344  0.00  0.00    +0.000 C 
ATOM     51  C   UNL     1     109.130 130.137 140.044  0.00  0.00    +0.000 C 
BRANCH  51  53
ATOM     52  O   UNL     1     108.501 129.005 140.647  0.00  0.00    +0.000 OA
ATOM     53  C   UNL     1     108.455 129.773 140.350  0.00  0.00    +0.000 C 
ENDBRANCH  51  53
ENDBRANCH  42  47
ENDBRANCH  35  42
ENDBRANCH  31  36
ENDBRANCH   4  31
TORSDOF 9
ENDMDL
