MODEL 1
REMARK VINA RESULT:      -8.3      0.000      0.000
REMARK  Name = 11834369
REMARK  3 active torsions:
REMARK  status: ('A' for Active; 'I' for Inactive)
REMARK    1  A    between atoms: O_4  and  C_13
REMARK    2  A    between atoms: O_5  and  C_19
REMARK    3  A    between atoms: C_7  and  C_8
REMARK                            x       y       z     vdW  Elec       q    Type
REMARK                         _______ _______ _______ _____ _____    ______ ____
ROOT
ATOM      1  O   UNL     1     104.576 124.191 146.948  0.00  0.00    +0.000 OA
ATOM      2  O   UNL     1     103.002 125.700 148.119  0.00  0.00    +0.000 OA
ATOM      3  C   UNL     1     104.864 124.772 147.458  0.00  0.00    +0.000 A 
ATOM      4  C   UNL     1     103.764 124.113 146.828  0.00  0.00    +0.000 A 
ATOM      5  C   UNL     1     103.239 124.616 147.218  0.00  0.00    +0.000 A 
ATOM      6  C   UNL     1     103.476 123.505 146.293  0.00  0.00    +0.000 A 
ATOM      7  C   UNL     1     104.340 125.275 147.849  0.00  0.00    +0.000 A 
ATOM      8  C   UNL     1     103.527 125.197 147.728  0.00  0.00    +0.000 A 
ATOM      9  C   UNL     1     102.391 124.545 147.101  0.00  0.00    +0.000 A 
ATOM     10  C   UNL     1     102.631 123.419 146.164  0.00  0.00    +0.000 A 
ATOM     11  C   UNL     1     102.085 123.943 146.570  0.00  0.00    +0.000 A 
ENDROOT
BRANCH   3  14
ATOM     12  O   UNL     1     107.332 124.356 148.979  0.00  0.00    +0.000 OA
ATOM     13  O   UNL     1     108.078 124.994 148.084  0.00  0.00    +0.000 OA
ATOM     14  C   UNL     1     105.676 124.849 147.579  0.00  0.00    +0.000 A 
ATOM     15  C   UNL     1     106.838 124.608 148.375  0.00  0.00    +0.000 A 
ATOM     16  C   UNL     1     106.026 124.531 148.255  0.00  0.00    +0.000 A 
ATOM     17  C   UNL     1     107.301 125.005 147.819  0.00  0.00    +0.000 A 
ATOM     18  C   UNL     1     106.139 125.246 147.023  0.00  0.00    +0.000 A 
ATOM     19  C   UNL     1     106.953 125.324 147.143  0.00  0.00    +0.000 A 
ATOM     20  C   UNL     1     108.096 124.594 148.800  0.00  0.00    +0.000 C 
ENDBRANCH   3  14
BRANCH   6  21
ATOM     21  O   UNL     1     104.008 123.006 145.907  0.00  0.00    +0.000 OA
ATOM     22  C   UNL     1     104.055 123.012 145.083  0.00  0.00    +0.000 C 
ENDBRANCH   6  21
BRANCH  10  23
ATOM     23  O   UNL     1     102.346 122.838 145.653  0.00  0.00    +0.000 OA
ATOM     24  C   UNL     1     101.533 122.743 145.548  0.00  0.00    +0.000 C 
ENDBRANCH  10  23
TORSDOF 3
ENDMDL
MODEL 2
REMARK VINA RESULT:      -8.2      0.992      4.599
REMARK  Name = 11834369
REMARK  3 active torsions:
REMARK  status: ('A' for Active; 'I' for Inactive)
REMARK    1  A    between atoms: O_4  and  C_13
REMARK    2  A    between atoms: O_5  and  C_19
REMARK    3  A    between atoms: C_7  and  C_8
REMARK                            x       y       z     vdW  Elec       q    Type
REMARK                         _______ _______ _______ _____ _____    ______ ____
ROOT
ATOM      1  O   UNL     1     105.087 124.334 147.363  0.00  0.00    +0.000 OA
ATOM      2  O   UNL     1     106.356 125.356 145.500  0.00  0.00    +0.000 OA
ATOM      3  C   UNL     1     104.743 124.397 146.615  0.00  0.00    +0.000 A 
ATOM      4  C   UNL     1     105.853 124.611 147.489  0.00  0.00    +0.000 A 
ATOM      5  C   UNL     1     106.276 124.951 146.868  0.00  0.00    +0.000 A 
ATOM      6  C   UNL     1     106.201 124.539 148.272  0.00  0.00    +0.000 A 
ATOM      7  C   UNL     1     105.166 124.738 145.994  0.00  0.00    +0.000 A 
ATOM      8  C   UNL     1     105.933 125.015 146.121  0.00  0.00    +0.000 A 
ATOM      9  C   UNL     1     107.076 125.244 146.987  0.00  0.00    +0.000 A 
ATOM     10  C   UNL     1     106.999 124.825 148.410  0.00  0.00    +0.000 A 
ATOM     11  C   UNL     1     107.439 125.180 147.763  0.00  0.00    +0.000 A 
ENDROOT
BRANCH   3  14
ATOM     12  O   UNL     1     101.830 124.568 146.857  0.00  0.00    +0.000 OA
ATOM     13  O   UNL     1     101.635 123.433 146.196  0.00  0.00    +0.000 OA
ATOM     14  C   UNL     1     103.977 124.120 146.489  0.00  0.00    +0.000 A 
ATOM     15  C   UNL     1     102.565 124.271 146.646  0.00  0.00    +0.000 A 
ATOM     16  C   UNL     1     103.331 124.548 146.773  0.00  0.00    +0.000 A 
ATOM     17  C   UNL     1     102.443 123.566 146.236  0.00  0.00    +0.000 A 
ATOM     18  C   UNL     1     103.856 123.415 146.079  0.00  0.00    +0.000 A 
ATOM     19  C   UNL     1     103.088 123.137 145.952  0.00  0.00    +0.000 A 
ATOM     20  C   UNL     1     101.257 124.051 146.580  0.00  0.00    +0.000 C 
ENDBRANCH   3  14
BRANCH   6  21
ATOM     21  O   UNL     1     105.770 124.197 148.887  0.00  0.00    +0.000 OA
ATOM     22  C   UNL     1     105.515 124.661 149.520  0.00  0.00    +0.000 C 
ENDBRANCH   6  21
BRANCH  10  23
ATOM     23  O   UNL     1     107.340 124.761 149.158  0.00  0.00    +0.000 OA
ATOM     24  C   UNL     1     108.148 124.610 149.231  0.00  0.00    +0.000 C 
ENDBRANCH  10  23
TORSDOF 3
ENDMDL
MODEL 3
REMARK VINA RESULT:      -8.0      9.402     10.230
REMARK  Name = 11834369
REMARK  3 active torsions:
REMARK  status: ('A' for Active; 'I' for Inactive)
REMARK    1  A    between atoms: O_4  and  C_13
REMARK    2  A    between atoms: O_5  and  C_19
REMARK    3  A    between atoms: C_7  and  C_8
REMARK                            x       y       z     vdW  Elec       q    Type
REMARK                         _______ _______ _______ _____ _____    ______ ____
ROOT
ATOM      1  O   UNL     1     102.633 132.019 141.131  0.00  0.00    +0.000 OA
ATOM      2  O   UNL     1     100.712 132.157 142.685  0.00  0.00    +0.000 OA
ATOM      3  C   UNL     1     102.300 131.328 141.436  0.00  0.00    +0.000 A 
ATOM      4  C   UNL     1     102.327 132.754 141.343  0.00  0.00    +0.000 A 
ATOM      5  C   UNL     1     101.686 132.800 141.861  0.00  0.00    +0.000 A 
ATOM      6  C   UNL     1     102.683 133.466 141.017  0.00  0.00    +0.000 A 
ATOM      7  C   UNL     1     101.660 131.374 141.954  0.00  0.00    +0.000 A 
ATOM      8  C   UNL     1     101.352 132.111 142.167  0.00  0.00    +0.000 A 
ATOM      9  C   UNL     1     101.358 133.561 142.089  0.00  0.00    +0.000 A 
ATOM     10  C   UNL     1     102.368 134.235 141.235  0.00  0.00    +0.000 A 
ATOM     11  C   UNL     1     101.701 134.283 141.774  0.00  0.00    +0.000 A 
ENDROOT
BRANCH   3  14
ATOM     12  O   UNL     1     104.092 129.041 141.800  0.00  0.00    +0.000 OA
ATOM     13  O   UNL     1     103.625 128.411 140.728  0.00  0.00    +0.000 OA
ATOM     14  C   UNL     1     102.607 130.593 141.224  0.00  0.00    +0.000 A 
ATOM     15  C   UNL     1     103.510 129.513 141.466  0.00  0.00    +0.000 A 
ATOM     16  C   UNL     1     103.203 130.248 141.678  0.00  0.00    +0.000 A 
ATOM     17  C   UNL     1     103.220 129.121 140.800  0.00  0.00    +0.000 A 
ATOM     18  C   UNL     1     102.317 130.202 140.558  0.00  0.00    +0.000 A 
ATOM     19  C   UNL     1     102.623 129.465 140.346  0.00  0.00    +0.000 A 
ATOM     20  C   UNL     1     104.163 128.362 141.346  0.00  0.00    +0.000 C 
ENDBRANCH   3  14
BRANCH   6  21
ATOM     21  O   UNL     1     103.323 133.410 140.500  0.00  0.00    +0.000 OA
ATOM     22  C   UNL     1     104.074 133.650 140.746  0.00  0.00    +0.000 C 
ENDBRANCH   6  21
BRANCH  10  23
ATOM     23  O   UNL     1     102.703 134.923 140.928  0.00  0.00    +0.000 OA
ATOM     24  C   UNL     1     102.327 135.649 141.036  0.00  0.00    +0.000 C 
ENDBRANCH  10  23
TORSDOF 3
ENDMDL
MODEL 4
REMARK VINA RESULT:      -7.8     11.808     12.965
REMARK  Name = 11834369
REMARK  3 active torsions:
REMARK  status: ('A' for Active; 'I' for Inactive)
REMARK    1  A    between atoms: O_4  and  C_13
REMARK    2  A    between atoms: O_5  and  C_19
REMARK    3  A    between atoms: C_7  and  C_8
REMARK                            x       y       z     vdW  Elec       q    Type
REMARK                         _______ _______ _______ _____ _____    ______ ____
ROOT
ATOM      1  O   UNL     1     110.963 126.338 136.556  0.00  0.00    +0.000 OA
ATOM      2  O   UNL     1     109.680 125.502 134.612  0.00  0.00    +0.000 OA
ATOM      3  C   UNL     1     111.196 125.643 136.177  0.00  0.00    +0.000 A 
ATOM      4  C   UNL     1     110.304 126.754 136.288  0.00  0.00    +0.000 A 
ATOM      5  C   UNL     1     109.876 126.475 135.640  0.00  0.00    +0.000 A 
ATOM      6  C   UNL     1     110.072 127.477 136.692  0.00  0.00    +0.000 A 
ATOM      7  C   UNL     1     110.768 125.364 135.529  0.00  0.00    +0.000 A 
ATOM      8  C   UNL     1     110.108 125.781 135.260  0.00  0.00    +0.000 A 
ATOM      9  C   UNL     1     109.187 126.900 135.351  0.00  0.00    +0.000 A 
ATOM     10  C   UNL     1     109.386 127.914 136.416  0.00  0.00    +0.000 A 
ATOM     11  C   UNL     1     108.940 127.624 135.742  0.00  0.00    +0.000 A 
ENDROOT
BRANCH   3  14
ATOM     12  O   UNL     1     114.079 125.245 136.504  0.00  0.00    +0.000 OA
ATOM     13  O   UNL     1     113.920 124.110 137.175  0.00  0.00    +0.000 OA
ATOM     14  C   UNL     1     111.855 125.228 136.445  0.00  0.00    +0.000 A 
ATOM     15  C   UNL     1     113.274 125.100 136.565  0.00  0.00    +0.000 A 
ATOM     16  C   UNL     1     112.614 125.516 136.297  0.00  0.00    +0.000 A 
ATOM     17  C   UNL     1     113.175 124.395 136.982  0.00  0.00    +0.000 A 
ATOM     18  C   UNL     1     111.757 124.523 136.863  0.00  0.00    +0.000 A 
ATOM     19  C   UNL     1     112.417 124.106 137.131  0.00  0.00    +0.000 A 
ATOM     20  C   UNL     1     114.477 124.635 136.880  0.00  0.00    +0.000 C 
ENDBRANCH   3  14
BRANCH   6  21
ATOM     21  O   UNL     1     110.506 127.748 137.339  0.00  0.00    +0.000 OA
ATOM     22  C   UNL     1     110.174 127.731 138.094  0.00  0.00    +0.000 C 
ENDBRANCH   6  21
BRANCH  10  23
ATOM     23  O   UNL     1     109.156 128.609 136.798  0.00  0.00    +0.000 OA
ATOM     24  C   UNL     1     108.748 129.193 136.381  0.00  0.00    +0.000 C 
ENDBRANCH  10  23
TORSDOF 3
ENDMDL
MODEL 5
REMARK VINA RESULT:      -7.8     12.632     13.901
REMARK  Name = 11834369
REMARK  3 active torsions:
REMARK  status: ('A' for Active; 'I' for Inactive)
REMARK    1  A    between atoms: O_4  and  C_13
REMARK    2  A    between atoms: O_5  and  C_19
REMARK    3  A    between atoms: C_7  and  C_8
REMARK                            x       y       z     vdW  Elec       q    Type
REMARK                         _______ _______ _______ _____ _____    ______ ____
ROOT
ATOM      1  O   UNL     1     112.731 126.506 136.614  0.00  0.00    +0.000 OA
ATOM      2  O   UNL     1     115.041 125.642 136.399  0.00  0.00    +0.000 OA
ATOM      3  C   UNL     1     113.359 127.030 136.505  0.00  0.00    +0.000 A 
ATOM      4  C   UNL     1     112.873 125.694 136.651  0.00  0.00    +0.000 A 
ATOM      5  C   UNL     1     113.643 125.407 136.580  0.00  0.00    +0.000 A 
ATOM      6  C   UNL     1     112.210 125.158 136.765  0.00  0.00    +0.000 A 
ATOM      7  C   UNL     1     114.128 126.742 136.433  0.00  0.00    +0.000 A 
ATOM      8  C   UNL     1     114.271 125.930 136.471  0.00  0.00    +0.000 A 
ATOM      9  C   UNL     1     113.803 124.563 136.617  0.00  0.00    +0.000 A 
ATOM     10  C   UNL     1     112.352 124.312 136.805  0.00  0.00    +0.000 A 
ATOM     11  C   UNL     1     113.154 124.012 136.731  0.00  0.00    +0.000 A 
ENDROOT
BRANCH   3  14
ATOM     12  O   UNL     1     112.958 129.671 137.706  0.00  0.00    +0.000 OA
ATOM     13  O   UNL     1     112.801 130.264 136.528  0.00  0.00    +0.000 OA
ATOM     14  C   UNL     1     113.217 127.841 136.468  0.00  0.00    +0.000 A 
ATOM     15  C   UNL     1     113.031 129.097 137.124  0.00  0.00    +0.000 A 
ATOM     16  C   UNL     1     113.172 128.286 137.162  0.00  0.00    +0.000 A 
ATOM     17  C   UNL     1     112.933 129.465 136.392  0.00  0.00    +0.000 A 
ATOM     18  C   UNL     1     113.119 128.210 135.736  0.00  0.00    +0.000 A 
ATOM     19  C   UNL     1     112.977 129.022 135.698  0.00  0.00    +0.000 A 
ATOM     20  C   UNL     1     112.817 130.390 137.338  0.00  0.00    +0.000 C 
ENDBRANCH   3  14
BRANCH   6  21
ATOM     21  O   UNL     1     111.444 125.455 136.836  0.00  0.00    +0.000 OA
ATOM     22  C   UNL     1     110.904 125.353 136.220  0.00  0.00    +0.000 C 
ENDBRANCH   6  21
BRANCH  10  23
ATOM     23  O   UNL     1     111.723 123.790 136.914  0.00  0.00    +0.000 OA
ATOM     24  C   UNL     1     111.866 123.019 137.169  0.00  0.00    +0.000 C 
ENDBRANCH  10  23
TORSDOF 3
ENDMDL
MODEL 6
REMARK VINA RESULT:      -7.8      2.775      3.436
REMARK  Name = 11834369
REMARK  3 active torsions:
REMARK  status: ('A' for Active; 'I' for Inactive)
REMARK    1  A    between atoms: O_4  and  C_13
REMARK    2  A    between atoms: O_5  and  C_19
REMARK    3  A    between atoms: C_7  and  C_8
REMARK                            x       y       z     vdW  Elec       q    Type
REMARK                         _______ _______ _______ _____ _____    ______ ____
ROOT
ATOM      1  O   UNL     1     106.640 125.767 146.111  0.00  0.00    +0.000 OA
ATOM      2  O   UNL     1     106.331 128.187 146.526  0.00  0.00    +0.000 OA
ATOM      3  C   UNL     1     106.816 126.084 146.852  0.00  0.00    +0.000 A 
ATOM      4  C   UNL     1     106.361 126.256 145.509  0.00  0.00    +0.000 A 
ATOM      5  C   UNL     1     106.258 127.063 145.647  0.00  0.00    +0.000 A 
ATOM      6  C   UNL     1     106.181 125.913 144.741  0.00  0.00    +0.000 A 
ATOM      7  C   UNL     1     106.713 126.890 146.990  0.00  0.00    +0.000 A 
ATOM      8  C   UNL     1     106.434 127.380 146.387  0.00  0.00    +0.000 A 
ATOM      9  C   UNL     1     105.968 127.583 145.027  0.00  0.00    +0.000 A 
ATOM     10  C   UNL     1     105.890 126.418 144.109  0.00  0.00    +0.000 A 
ATOM     11  C   UNL     1     105.783 127.258 144.253  0.00  0.00    +0.000 A 
ENDROOT
BRANCH   3  14
ATOM     12  O   UNL     1     106.458 124.326 149.167  0.00  0.00    +0.000 OA
ATOM     13  O   UNL     1     107.762 124.113 149.299  0.00  0.00    +0.000 OA
ATOM     14  C   UNL     1     107.094 125.595 147.455  0.00  0.00    +0.000 A 
ATOM     15  C   UNL     1     106.842 124.748 148.578  0.00  0.00    +0.000 A 
ATOM     16  C   UNL     1     106.564 125.237 147.976  0.00  0.00    +0.000 A 
ATOM     17  C   UNL     1     107.653 124.616 148.660  0.00  0.00    +0.000 A 
ATOM     18  C   UNL     1     107.905 125.462 147.537  0.00  0.00    +0.000 A 
ATOM     19  C   UNL     1     108.184 124.973 148.140  0.00  0.00    +0.000 A 
ATOM     20  C   UNL     1     107.025 123.935 149.611  0.00  0.00    +0.000 C 
ENDBRANCH   3  14
BRANCH   6  21
ATOM     21  O   UNL     1     106.287 125.105 144.612  0.00  0.00    +0.000 OA
ATOM     22  C   UNL     1     105.632 124.617 144.492  0.00  0.00    +0.000 C 
ENDBRANCH   6  21
BRANCH  10  23
ATOM     23  O   UNL     1     105.715 126.098 143.369  0.00  0.00    +0.000 OA
ATOM     24  C   UNL     1     105.670 126.589 142.708  0.00  0.00    +0.000 C 
ENDBRANCH  10  23
TORSDOF 3
ENDMDL
MODEL 7
REMARK VINA RESULT:      -7.7     10.490     11.611
REMARK  Name = 11834369
REMARK  3 active torsions:
REMARK  status: ('A' for Active; 'I' for Inactive)
REMARK    1  A    between atoms: O_4  and  C_13
REMARK    2  A    between atoms: O_5  and  C_19
REMARK    3  A    between atoms: C_7  and  C_8
REMARK                            x       y       z     vdW  Elec       q    Type
REMARK                         _______ _______ _______ _____ _____    ______ ____
ROOT
ATOM      1  O   UNL     1     111.674 132.901 146.394  0.00  0.00    +0.000 OA
ATOM      2  O   UNL     1     113.571 132.089 147.761  0.00  0.00    +0.000 OA
ATOM      3  C   UNL     1     112.319 132.536 146.029  0.00  0.00    +0.000 A 
ATOM      4  C   UNL     1     111.662 132.995 147.212  0.00  0.00    +0.000 A 
ATOM      5  C   UNL     1     112.294 132.724 147.668  0.00  0.00    +0.000 A 
ATOM      6  C   UNL     1     110.984 133.376 147.580  0.00  0.00    +0.000 A 
ATOM      7  C   UNL     1     112.951 132.266 146.485  0.00  0.00    +0.000 A 
ATOM      8  C   UNL     1     112.939 132.360 147.305  0.00  0.00    +0.000 A 
ATOM      9  C   UNL     1     112.292 132.816 148.523  0.00  0.00    +0.000 A 
ATOM     10  C   UNL     1     110.965 133.476 148.433  0.00  0.00    +0.000 A 
ATOM     11  C   UNL     1     111.624 133.195 148.907  0.00  0.00    +0.000 A 
ENDROOT
BRANCH   3  14
ATOM     12  O   UNL     1     111.668 131.118 143.551  0.00  0.00    +0.000 OA
ATOM     13  O   UNL     1     112.280 132.017 142.789  0.00  0.00    +0.000 OA
ATOM     14  C   UNL     1     112.332 132.442 145.210  0.00  0.00    +0.000 A 
ATOM     15  C   UNL     1     111.977 131.696 144.045  0.00  0.00    +0.000 A 
ATOM     16  C   UNL     1     111.964 131.790 144.863  0.00  0.00    +0.000 A 
ATOM     17  C   UNL     1     112.357 132.255 143.571  0.00  0.00    +0.000 A 
ATOM     18  C   UNL     1     112.712 133.001 144.737  0.00  0.00    +0.000 A 
ATOM     19  C   UNL     1     112.725 132.907 143.917  0.00  0.00    +0.000 A 
ATOM     20  C   UNL     1     111.854 131.316 142.778  0.00  0.00    +0.000 C 
ENDBRANCH   3  14
BRANCH   6  21
ATOM     21  O   UNL     1     110.357 133.643 147.116  0.00  0.00    +0.000 OA
ATOM     22  C   UNL     1     109.614 133.289 147.183  0.00  0.00    +0.000 C 
ENDBRANCH   6  21
BRANCH  10  23
ATOM     23  O   UNL     1     110.320 133.841 148.794  0.00  0.00    +0.000 OA
ATOM     24  C   UNL     1     110.312 133.953 149.611  0.00  0.00    +0.000 C 
ENDBRANCH  10  23
TORSDOF 3
ENDMDL
MODEL 8
REMARK VINA RESULT:      -7.7     12.623     13.707
REMARK  Name = 11834369
REMARK  3 active torsions:
REMARK  status: ('A' for Active; 'I' for Inactive)
REMARK    1  A    between atoms: O_4  and  C_13
REMARK    2  A    between atoms: O_5  and  C_19
REMARK    3  A    between atoms: C_7  and  C_8
REMARK                            x       y       z     vdW  Elec       q    Type
REMARK                         _______ _______ _______ _____ _____    ______ ____
ROOT
ATOM      1  O   UNL     1     110.794 127.189 135.837  0.00  0.00    +0.000 OA
ATOM      2  O   UNL     1     109.655 125.364 134.613  0.00  0.00    +0.000 OA
ATOM      3  C   UNL     1     110.152 127.360 135.346  0.00  0.00    +0.000 A 
ATOM      4  C   UNL     1     111.055 126.412 135.919  0.00  0.00    +0.000 A 
ATOM      5  C   UNL     1     110.676 125.804 135.511  0.00  0.00    +0.000 A 
ATOM      6  C   UNL     1     111.725 126.248 136.433  0.00  0.00    +0.000 A 
ATOM      7  C   UNL     1     109.773 126.751 134.938  0.00  0.00    +0.000 A 
ATOM      8  C   UNL     1     110.035 125.972 135.021  0.00  0.00    +0.000 A 
ATOM      9  C   UNL     1     110.940 124.989 135.589  0.00  0.00    +0.000 A 
ATOM     10  C   UNL     1     112.002 125.440 136.523  0.00  0.00    +0.000 A 
ATOM     11  C   UNL     1     111.607 124.806 136.098  0.00  0.00    +0.000 A 
ENDROOT
BRANCH   3  14
ATOM     12  O   UNL     1     108.450 129.633 136.059  0.00  0.00    +0.000 OA
ATOM     13  O   UNL     1     108.998 130.425 135.144  0.00  0.00    +0.000 OA
ATOM     14  C   UNL     1     109.890 128.137 135.263  0.00  0.00    +0.000 A 
ATOM     15  C   UNL     1     109.026 129.201 135.666  0.00  0.00    +0.000 A 
ATOM     16  C   UNL     1     109.288 128.424 135.749  0.00  0.00    +0.000 A 
ATOM     17  C   UNL     1     109.367 129.693 135.098  0.00  0.00    +0.000 A 
ATOM     18  C   UNL     1     110.231 128.628 134.695  0.00  0.00    +0.000 A 
ATOM     19  C   UNL     1     109.969 129.407 134.612  0.00  0.00    +0.000 A 
ATOM     20  C   UNL     1     108.433 130.387 135.737  0.00  0.00    +0.000 C 
ENDBRANCH   3  14
BRANCH   6  21
ATOM     21  O   UNL     1     112.098 126.863 136.837  0.00  0.00    +0.000 OA
ATOM     22  C   UNL     1     112.033 126.916 137.658  0.00  0.00    +0.000 C 
ENDBRANCH   6  21
BRANCH  10  23
ATOM     23  O   UNL     1     112.643 125.273 137.015  0.00  0.00    +0.000 OA
ATOM     24  C   UNL     1     113.035 124.550 136.951  0.00  0.00    +0.000 C 
ENDBRANCH  10  23
TORSDOF 3
ENDMDL
MODEL 9
REMARK VINA RESULT:      -7.7     12.977     13.995
REMARK  Name = 11834369
REMARK  3 active torsions:
REMARK  status: ('A' for Active; 'I' for Inactive)
REMARK    1  A    between atoms: O_4  and  C_13
REMARK    2  A    between atoms: O_5  and  C_19
REMARK    3  A    between atoms: C_7  and  C_8
REMARK                            x       y       z     vdW  Elec       q    Type
REMARK                         _______ _______ _______ _____ _____    ______ ____
ROOT
ATOM      1  O   UNL     1     112.929 126.947 136.433  0.00  0.00    +0.000 OA
ATOM      2  O   UNL     1     110.699 127.062 135.366  0.00  0.00    +0.000 OA
ATOM      3  C   UNL     1     112.641 127.670 136.156  0.00  0.00    +0.000 A 
ATOM      4  C   UNL     1     112.474 126.264 136.355  0.00  0.00    +0.000 A 
ATOM      5  C   UNL     1     111.731 126.302 135.999  0.00  0.00    +0.000 A 
ATOM      6  C   UNL     1     112.786 125.518 136.647  0.00  0.00    +0.000 A 
ATOM      7  C   UNL     1     111.898 127.708 135.801  0.00  0.00    +0.000 A 
ATOM      8  C   UNL     1     111.442 127.023 135.722  0.00  0.00    +0.000 A 
ATOM      9  C   UNL     1     111.247 125.597 135.911  0.00  0.00    +0.000 A 
ATOM     10  C   UNL     1     112.316 124.803 136.568  0.00  0.00    +0.000 A 
ATOM     11  C   UNL     1     111.542 124.843 136.197  0.00  0.00    +0.000 A 
ENDROOT
BRANCH   3  14
ATOM     12  O   UNL     1     113.582 130.029 137.614  0.00  0.00    +0.000 OA
ATOM     13  O   UNL     1     114.383 130.410 136.626  0.00  0.00    +0.000 OA
ATOM     14  C   UNL     1     113.095 128.353 136.235  0.00  0.00    +0.000 A 
ATOM     15  C   UNL     1     113.508 129.483 137.006  0.00  0.00    +0.000 A 
ATOM     16  C   UNL     1     113.053 128.800 136.927  0.00  0.00    +0.000 A 
ATOM     17  C   UNL     1     114.005 129.720 136.392  0.00  0.00    +0.000 A 
ATOM     18  C   UNL     1     113.593 128.590 135.621  0.00  0.00    +0.000 A 
ATOM     19  C   UNL     1     114.048 129.274 135.700  0.00  0.00    +0.000 A 
ATOM     20  C   UNL     1     114.121 130.600 137.380  0.00  0.00    +0.000 C 
ENDBRANCH   3  14
BRANCH   6  21
ATOM     21  O   UNL     1     113.530 125.490 137.001  0.00  0.00    +0.000 OA
ATOM     22  C   UNL     1     114.157 125.117 136.615  0.00  0.00    +0.000 C 
ENDBRANCH   6  21
BRANCH  10  23
ATOM     23  O   UNL     1     112.607 124.083 136.845  0.00  0.00    +0.000 OA
ATOM     24  C   UNL     1     112.094 123.447 136.961  0.00  0.00    +0.000 C 
ENDBRANCH  10  23
TORSDOF 3
ENDMDL
MODEL 10
REMARK VINA RESULT:      -7.6     12.266     13.993
REMARK  Name = 11834369
REMARK  3 active torsions:
REMARK  status: ('A' for Active; 'I' for Inactive)
REMARK    1  A    between atoms: O_4  and  C_13
REMARK    2  A    between atoms: O_5  and  C_19
REMARK    3  A    between atoms: C_7  and  C_8
REMARK                            x       y       z     vdW  Elec       q    Type
REMARK                         _______ _______ _______ _____ _____    ______ ____
ROOT
ATOM      1  O   UNL     1     113.008 127.415 137.265  0.00  0.00    +0.000 OA
ATOM      2  O   UNL     1     114.333 128.443 135.444  0.00  0.00    +0.000 OA
ATOM      3  C   UNL     1     113.421 126.936 136.735  0.00  0.00    +0.000 A 
ATOM      4  C   UNL     1     113.037 128.235 137.189  0.00  0.00    +0.000 A 
ATOM      5  C   UNL     1     113.478 128.578 136.582  0.00  0.00    +0.000 A 
ATOM      6  C   UNL     1     112.603 128.723 137.748  0.00  0.00    +0.000 A 
ATOM      7  C   UNL     1     113.862 127.279 136.128  0.00  0.00    +0.000 A 
ATOM      8  C   UNL     1     113.891 128.100 136.051  0.00  0.00    +0.000 A 
ATOM      9  C   UNL     1     113.516 129.432 136.492  0.00  0.00    +0.000 A 
ATOM     10  C   UNL     1     112.629 129.579 137.674  0.00  0.00    +0.000 A 
ATOM     11  C   UNL     1     113.088 129.935 137.042  0.00  0.00    +0.000 A 
ENDROOT
BRANCH   3  14
ATOM     12  O   UNL     1     112.119 124.329 136.448  0.00  0.00    +0.000 OA
ATOM     13  O   UNL     1     113.151 123.674 136.969  0.00  0.00    +0.000 OA
ATOM     14  C   UNL     1     113.393 126.116 136.811  0.00  0.00    +0.000 A 
ATOM     15  C   UNL     1     112.695 124.880 136.640  0.00  0.00    +0.000 A 
ATOM     16  C   UNL     1     112.724 125.701 136.564  0.00  0.00    +0.000 A 
ATOM     17  C   UNL     1     113.336 124.474 136.964  0.00  0.00    +0.000 A 
ATOM     18  C   UNL     1     114.033 125.709 137.135  0.00  0.00    +0.000 A 
ATOM     19  C   UNL     1     114.005 124.888 137.212  0.00  0.00    +0.000 A 
ATOM     20  C   UNL     1     112.400 123.586 136.651  0.00  0.00    +0.000 C 
ENDBRANCH   3  14
BRANCH   6  21
ATOM     21  O   UNL     1     112.164 128.372 138.352  0.00  0.00    +0.000 OA
ATOM     22  C   UNL     1     112.422 128.425 139.134  0.00  0.00    +0.000 C 
ENDBRANCH   6  21
BRANCH  10  23
ATOM     23  O   UNL     1     112.215 130.055 138.206  0.00  0.00    +0.000 OA
ATOM     24  C   UNL     1     112.087 130.851 138.033  0.00  0.00    +0.000 C 
ENDBRANCH  10  23
TORSDOF 3
ENDMDL
