MODEL 1
REMARK VINA RESULT:      -8.5      0.000      0.000
REMARK  Name = 44258700
REMARK  2 active torsions:
REMARK  status: ('A' for Active; 'I' for Inactive)
REMARK    1  A    between atoms: O_2  and  C_10
REMARK    2  A    between atoms: C_9  and  C_12
REMARK                            x       y       z     vdW  Elec       q    Type
REMARK                         _______ _______ _______ _____ _____    ______ ____
ROOT
ATOM      1  O   UNL     1     105.686 124.505 147.790  0.00  0.00    +0.000 OA
ATOM      2  O   UNL     1     106.337 124.088 149.276  0.00  0.00    +0.000 OA
ATOM      3  O   UNL     1     107.085 125.592 146.061  0.00  0.00    +0.000 OA
ATOM      4  O   UNL     1     107.964 124.410 149.602  0.00  0.00    +0.000 OA
ATOM      5  C   UNL     1     106.947 125.028 147.366  0.00  0.00    +0.000 A 
ATOM      6  C   UNL     1     106.480 124.666 147.942  0.00  0.00    +0.000 A 
ATOM      7  C   UNL     1     105.357 124.708 147.060  0.00  0.00    +0.000 A 
ATOM      8  C   UNL     1     105.823 125.070 146.484  0.00  0.00    +0.000 A 
ATOM      9  C   UNL     1     106.618 125.230 146.637  0.00  0.00    +0.000 A 
ATOM     10  C   UNL     1     106.811 124.450 148.707  0.00  0.00    +0.000 A 
ATOM     11  C   UNL     1     107.776 125.200 147.514  0.00  0.00    +0.000 A 
ATOM     12  C   UNL     1     107.638 124.614 148.872  0.00  0.00    +0.000 A 
ATOM     13  C   UNL     1     108.124 124.991 148.271  0.00  0.00    +0.000 A 
ENDROOT
BRANCH   7  15
ATOM     14  O   UNL     1     102.177 124.069 146.451  0.00  0.00    +0.000 OA
ATOM     15  C   UNL     1     104.563 124.548 146.908  0.00  0.00    +0.000 A 
ATOM     16  C   UNL     1     104.349 123.857 146.511  0.00  0.00    +0.000 A 
ATOM     17  C   UNL     1     103.981 125.080 147.153  0.00  0.00    +0.000 A 
ATOM     18  C   UNL     1     103.553 123.697 146.359  0.00  0.00    +0.000 A 
ATOM     19  C   UNL     1     103.186 124.920 147.000  0.00  0.00    +0.000 A 
ATOM     20  C   UNL     1     102.972 124.229 146.603  0.00  0.00    +0.000 A 
ENDBRANCH   7  15
BRANCH   8  21
ATOM     21  O   UNL     1     105.495 125.272 145.755  0.00  0.00    +0.000 OA
ATOM     22  C   UNL     1     105.952 125.666 145.192  0.00  0.00    +0.000 C 
ENDBRANCH   8  21
TORSDOF 2
ENDMDL
MODEL 2
REMARK VINA RESULT:      -8.2      1.221      4.031
REMARK  Name = 44258700
REMARK  2 active torsions:
REMARK  status: ('A' for Active; 'I' for Inactive)
REMARK    1  A    between atoms: O_2  and  C_10
REMARK    2  A    between atoms: C_9  and  C_12
REMARK                            x       y       z     vdW  Elec       q    Type
REMARK                         _______ _______ _______ _____ _____    ______ ____
ROOT
ATOM      1  O   UNL     1     105.009 124.211 146.834  0.00  0.00    +0.000 OA
ATOM      2  O   UNL     1     104.476 122.980 145.830  0.00  0.00    +0.000 OA
ATOM      3  O   UNL     1     103.391 125.685 147.990  0.00  0.00    +0.000 OA
ATOM      4  O   UNL     1     102.819 122.739 145.602  0.00  0.00    +0.000 OA
ATOM      5  C   UNL     1     103.659 124.590 147.112  0.00  0.00    +0.000 A 
ATOM      6  C   UNL     1     104.199 124.099 146.727  0.00  0.00    +0.000 A 
ATOM      7  C   UNL     1     105.280 124.815 147.327  0.00  0.00    +0.000 A 
ATOM      8  C   UNL     1     104.740 125.306 147.712  0.00  0.00    +0.000 A 
ATOM      9  C   UNL     1     103.930 125.193 147.604  0.00  0.00    +0.000 A 
ATOM     10  C   UNL     1     103.929 123.466 146.211  0.00  0.00    +0.000 A 
ATOM     11  C   UNL     1     102.813 124.483 147.008  0.00  0.00    +0.000 A 
ATOM     12  C   UNL     1     103.087 123.344 146.095  0.00  0.00    +0.000 A 
ATOM     13  C   UNL     1     102.525 123.856 146.496  0.00  0.00    +0.000 A 
ENDROOT
BRANCH   7  15
ATOM     14  O   UNL     1     108.522 125.264 147.754  0.00  0.00    +0.000 OA
ATOM     15  C   UNL     1     106.090 124.927 147.434  0.00  0.00    +0.000 A 
ATOM     16  C   UNL     1     106.469 124.599 148.089  0.00  0.00    +0.000 A 
ATOM     17  C   UNL     1     106.521 125.368 146.886  0.00  0.00    +0.000 A 
ATOM     18  C   UNL     1     107.280 124.711 148.196  0.00  0.00    +0.000 A 
ATOM     19  C   UNL     1     107.331 125.480 146.993  0.00  0.00    +0.000 A 
ATOM     20  C   UNL     1     107.711 125.152 147.648  0.00  0.00    +0.000 A 
ENDBRANCH   7  15
BRANCH   8  21
ATOM     21  O   UNL     1     105.011 125.910 148.205  0.00  0.00    +0.000 OA
ATOM     22  C   UNL     1     104.475 126.438 148.543  0.00  0.00    +0.000 C 
ENDBRANCH   8  21
TORSDOF 2
ENDMDL
MODEL 3
REMARK VINA RESULT:      -8.2     12.549     13.533
REMARK  Name = 44258700
REMARK  2 active torsions:
REMARK  status: ('A' for Active; 'I' for Inactive)
REMARK    1  A    between atoms: O_2  and  C_10
REMARK    2  A    between atoms: C_9  and  C_12
REMARK                            x       y       z     vdW  Elec       q    Type
REMARK                         _______ _______ _______ _____ _____    ______ ____
ROOT
ATOM      1  O   UNL     1     111.975 125.847 136.084  0.00  0.00    +0.000 OA
ATOM      2  O   UNL     1     110.724 124.886 135.520  0.00  0.00    +0.000 OA
ATOM      3  O   UNL     1     111.962 128.291 135.692  0.00  0.00    +0.000 OA
ATOM      4  O   UNL     1     109.440 125.588 134.674  0.00  0.00    +0.000 OA
ATOM      5  C   UNL     1     111.347 127.011 135.542  0.00  0.00    +0.000 A 
ATOM      6  C   UNL     1     111.351 126.196 135.672  0.00  0.00    +0.000 A 
ATOM      7  C   UNL     1     112.595 126.314 136.366  0.00  0.00    +0.000 A 
ATOM      8  C   UNL     1     112.591 127.128 136.235  0.00  0.00    +0.000 A 
ATOM      9  C   UNL     1     111.967 127.476 135.823  0.00  0.00    +0.000 A 
ATOM     10  C   UNL     1     110.711 125.699 135.384  0.00  0.00    +0.000 A 
ATOM     11  C   UNL     1     110.703 127.385 135.114  0.00  0.00    +0.000 A 
ATOM     12  C   UNL     1     110.059 126.056 134.954  0.00  0.00    +0.000 A 
ATOM     13  C   UNL     1     110.055 126.905 134.818  0.00  0.00    +0.000 A 
ENDROOT
BRANCH   7  15
ATOM     14  O   UNL     1     115.091 124.917 138.013  0.00  0.00    +0.000 OA
ATOM     15  C   UNL     1     113.219 125.965 136.778  0.00  0.00    +0.000 A 
ATOM     16  C   UNL     1     113.194 125.916 137.601  0.00  0.00    +0.000 A 
ATOM     17  C   UNL     1     113.868 125.664 136.366  0.00  0.00    +0.000 A 
ATOM     18  C   UNL     1     113.818 125.567 138.013  0.00  0.00    +0.000 A 
ATOM     19  C   UNL     1     114.491 125.315 136.778  0.00  0.00    +0.000 A 
ATOM     20  C   UNL     1     114.466 125.266 137.601  0.00  0.00    +0.000 A 
ENDBRANCH   7  15
BRANCH   8  21
ATOM     21  O   UNL     1     113.210 127.594 136.517  0.00  0.00    +0.000 OA
ATOM     22  C   UNL     1     113.272 128.383 136.284  0.00  0.00    +0.000 C 
ENDBRANCH   8  21
TORSDOF 2
ENDMDL
MODEL 4
REMARK VINA RESULT:      -8.0     12.321     13.422
REMARK  Name = 44258700
REMARK  2 active torsions:
REMARK  status: ('A' for Active; 'I' for Inactive)
REMARK    1  A    between atoms: O_2  and  C_10
REMARK    2  A    between atoms: C_9  and  C_12
REMARK                            x       y       z     vdW  Elec       q    Type
REMARK                         _______ _______ _______ _____ _____    ______ ____
ROOT
ATOM      1  O   UNL     1     112.190 126.572 136.146  0.00  0.00    +0.000 OA
ATOM      2  O   UNL     1     111.818 128.104 135.579  0.00  0.00    +0.000 OA
ATOM      3  O   UNL     1     110.755 124.636 135.583  0.00  0.00    +0.000 OA
ATOM      4  O   UNL     1     110.451 128.333 134.612  0.00  0.00    +0.000 OA
ATOM      5  C   UNL     1     111.043 126.032 135.487  0.00  0.00    +0.000 A 
ATOM      6  C   UNL     1     111.521 126.677 135.675  0.00  0.00    +0.000 A 
ATOM      7  C   UNL     1     112.381 125.821 136.430  0.00  0.00    +0.000 A 
ATOM      8  C   UNL     1     111.902 125.175 136.242  0.00  0.00    +0.000 A 
ATOM      9  C   UNL     1     111.233 125.281 135.771  0.00  0.00    +0.000 A 
ATOM     10  C   UNL     1     111.334 127.465 135.386  0.00  0.00    +0.000 A 
ATOM     11  C   UNL     1     110.344 126.129 134.997  0.00  0.00    +0.000 A 
ATOM     12  C   UNL     1     110.639 127.581 134.894  0.00  0.00    +0.000 A 
ATOM     13  C   UNL     1     110.140 126.908 134.699  0.00  0.00    +0.000 A 
ENDROOT
BRANCH   7  15
ATOM     14  O   UNL     1     115.056 125.401 138.318  0.00  0.00    +0.000 OA
ATOM     15  C   UNL     1     113.049 125.716 136.902  0.00  0.00    +0.000 A 
ATOM     16  C   UNL     1     113.766 125.495 136.558  0.00  0.00    +0.000 A 
ATOM     17  C   UNL     1     113.001 125.832 137.718  0.00  0.00    +0.000 A 
ATOM     18  C   UNL     1     114.435 125.390 137.030  0.00  0.00    +0.000 A 
ATOM     19  C   UNL     1     113.669 125.727 138.189  0.00  0.00    +0.000 A 
ATOM     20  C   UNL     1     114.386 125.506 137.846  0.00  0.00    +0.000 A 
ENDBRANCH   7  15
BRANCH   8  21
ATOM     21  O   UNL     1     112.093 124.425 136.526  0.00  0.00    +0.000 OA
ATOM     22  C   UNL     1     111.611 123.780 136.343  0.00  0.00    +0.000 C 
ENDBRANCH   8  21
TORSDOF 2
ENDMDL
MODEL 5
REMARK VINA RESULT:      -7.8      2.005      3.914
REMARK  Name = 44258700
REMARK  2 active torsions:
REMARK  status: ('A' for Active; 'I' for Inactive)
REMARK    1  A    between atoms: O_2  and  C_10
REMARK    2  A    between atoms: C_9  and  C_12
REMARK                            x       y       z     vdW  Elec       q    Type
REMARK                         _______ _______ _______ _____ _____    ______ ____
ROOT
ATOM      1  O   UNL     1     106.558 125.131 146.090  0.00  0.00    +0.000 OA
ATOM      2  O   UNL     1     106.322 124.171 144.737  0.00  0.00    +0.000 OA
ATOM      3  O   UNL     1     105.978 127.537 146.045  0.00  0.00    +0.000 OA
ATOM      4  O   UNL     1     105.682 124.848 143.327  0.00  0.00    +0.000 OA
ATOM      5  C   UNL     1     106.052 126.270 145.390  0.00  0.00    +0.000 A 
ATOM      6  C   UNL     1     106.245 125.468 145.405  0.00  0.00    +0.000 A 
ATOM      7  C   UNL     1     106.678 125.597 146.761  0.00  0.00    +0.000 A 
ATOM      8  C   UNL     1     106.484 126.399 146.746  0.00  0.00    +0.000 A 
ATOM      9  C   UNL     1     106.171 126.735 146.060  0.00  0.00    +0.000 A 
ATOM     10  C   UNL     1     106.126 124.971 144.712  0.00  0.00    +0.000 A 
ATOM     11  C   UNL     1     105.725 126.631 144.682  0.00  0.00    +0.000 A 
ATOM     12  C   UNL     1     105.800 125.316 143.996  0.00  0.00    +0.000 A 
ATOM     13  C   UNL     1     105.599 126.152 143.981  0.00  0.00    +0.000 A 
ENDROOT
BRANCH   7  15
ATOM     14  O   UNL     1     107.932 124.251 149.501  0.00  0.00    +0.000 OA
ATOM     15  C   UNL     1     106.991 125.261 147.445  0.00  0.00    +0.000 A 
ATOM     16  C   UNL     1     106.489 124.917 148.003  0.00  0.00    +0.000 A 
ATOM     17  C   UNL     1     107.807 125.268 147.572  0.00  0.00    +0.000 A 
ATOM     18  C   UNL     1     106.803 124.580 148.689  0.00  0.00    +0.000 A 
ATOM     19  C   UNL     1     108.120 124.931 148.257  0.00  0.00    +0.000 A 
ATOM     20  C   UNL     1     107.618 124.587 148.815  0.00  0.00    +0.000 A 
ENDBRANCH   7  15
BRANCH   8  21
ATOM     21  O   UNL     1     106.604 126.864 147.416  0.00  0.00    +0.000 OA
ATOM     22  C   UNL     1     106.192 127.574 147.504  0.00  0.00    +0.000 C 
ENDBRANCH   8  21
TORSDOF 2
ENDMDL
MODEL 6
REMARK VINA RESULT:      -7.7      1.425      2.847
REMARK  Name = 44258700
REMARK  2 active torsions:
REMARK  status: ('A' for Active; 'I' for Inactive)
REMARK    1  A    between atoms: O_2  and  C_10
REMARK    2  A    between atoms: C_9  and  C_12
REMARK                            x       y       z     vdW  Elec       q    Type
REMARK                         _______ _______ _______ _____ _____    ______ ____
ROOT
ATOM      1  O   UNL     1     104.192 124.385 146.122  0.00  0.00    +0.000 OA
ATOM      2  O   UNL     1     105.179 124.772 144.825  0.00  0.00    +0.000 OA
ATOM      3  O   UNL     1     104.957 124.764 148.445  0.00  0.00    +0.000 OA
ATOM      4  O   UNL     1     106.712 125.427 145.101  0.00  0.00    +0.000 OA
ATOM      5  C   UNL     1     105.194 124.831 147.038  0.00  0.00    +0.000 A 
ATOM      6  C   UNL     1     104.939 124.704 146.264  0.00  0.00    +0.000 A 
ATOM      7  C   UNL     1     103.699 124.192 146.756  0.00  0.00    +0.000 A 
ATOM      8  C   UNL     1     103.954 124.318 147.530  0.00  0.00    +0.000 A 
ATOM      9  C   UNL     1     104.702 124.637 147.671  0.00  0.00    +0.000 A 
ATOM     10  C   UNL     1     105.442 124.902 145.595  0.00  0.00    +0.000 A 
ATOM     11  C   UNL     1     105.971 125.163 147.198  0.00  0.00    +0.000 A 
ATOM     12  C   UNL     1     106.222 125.235 145.736  0.00  0.00    +0.000 A 
ATOM     13  C   UNL     1     106.488 125.366 146.543  0.00  0.00    +0.000 A 
ENDROOT
BRANCH   7  15
ATOM     14  O   UNL     1     100.710 122.912 146.188  0.00  0.00    +0.000 OA
ATOM     15  C   UNL     1     102.952 123.872 146.614  0.00  0.00    +0.000 A 
ATOM     16  C   UNL     1     102.287 124.361 146.611  0.00  0.00    +0.000 A 
ATOM     17  C   UNL     1     102.869 123.063 146.475  0.00  0.00    +0.000 A 
ATOM     18  C   UNL     1     101.540 124.041 146.469  0.00  0.00    +0.000 A 
ATOM     19  C   UNL     1     102.122 122.743 146.333  0.00  0.00    +0.000 A 
ATOM     20  C   UNL     1     101.458 123.232 146.330  0.00  0.00    +0.000 A 
ENDBRANCH   7  15
BRANCH   8  21
ATOM     21  O   UNL     1     103.462 124.125 148.163  0.00  0.00    +0.000 OA
ATOM     22  C   UNL     1     103.670 124.346 148.930  0.00  0.00    +0.000 C 
ENDBRANCH   8  21
TORSDOF 2
ENDMDL
MODEL 7
REMARK VINA RESULT:      -7.7      9.941     11.903
REMARK  Name = 44258700
REMARK  2 active torsions:
REMARK  status: ('A' for Active; 'I' for Inactive)
REMARK    1  A    between atoms: O_2  and  C_10
REMARK    2  A    between atoms: C_9  and  C_12
REMARK                            x       y       z     vdW  Elec       q    Type
REMARK                         _______ _______ _______ _____ _____    ______ ____
ROOT
ATOM      1  O   UNL     1     113.521 126.349 138.925  0.00  0.00    +0.000 OA
ATOM      2  O   UNL     1     114.124 127.126 140.281  0.00  0.00    +0.000 OA
ATOM      3  O   UNL     1     111.108 125.830 138.739  0.00  0.00    +0.000 OA
ATOM      4  O   UNL     1     113.079 127.561 141.536  0.00  0.00    +0.000 OA
ATOM      5  C   UNL     1     112.201 126.385 139.472  0.00  0.00    +0.000 A 
ATOM      6  C   UNL     1     113.005 126.559 139.534  0.00  0.00    +0.000 A 
ATOM      7  C   UNL     1     113.231 125.966 138.253  0.00  0.00    +0.000 A 
ATOM      8  C   UNL     1     112.427 125.793 138.191  0.00  0.00    +0.000 A 
ATOM      9  C   UNL     1     111.912 126.003 138.801  0.00  0.00    +0.000 A 
ATOM     10  C   UNL     1     113.319 126.957 140.228  0.00  0.00    +0.000 A 
ATOM     11  C   UNL     1     111.654 126.599 140.100  0.00  0.00    +0.000 A 
ATOM     12  C   UNL     1     112.787 127.178 140.866  0.00  0.00    +0.000 A 
ATOM     13  C   UNL     1     111.949 126.998 140.801  0.00  0.00    +0.000 A 
ENDROOT
BRANCH   7  15
ATOM     14  O   UNL     1     115.296 125.127 135.818  0.00  0.00    +0.000 OA
ATOM     15  C   UNL     1     113.747 125.757 137.645  0.00  0.00    +0.000 A 
ATOM     16  C   UNL     1     113.855 126.263 137.002  0.00  0.00    +0.000 A 
ATOM     17  C   UNL     1     114.156 125.040 137.679  0.00  0.00    +0.000 A 
ATOM     18  C   UNL     1     114.372 126.053 136.393  0.00  0.00    +0.000 A 
ATOM     19  C   UNL     1     114.671 124.830 137.070  0.00  0.00    +0.000 A 
ATOM     20  C   UNL     1     114.779 125.337 136.428  0.00  0.00    +0.000 A 
ENDBRANCH   7  15
BRANCH   8  21
ATOM     21  O   UNL     1     112.139 125.410 137.520  0.00  0.00    +0.000 OA
ATOM     22  C   UNL     1     111.369 125.113 137.514  0.00  0.00    +0.000 C 
ENDBRANCH   8  21
TORSDOF 2
ENDMDL
MODEL 8
REMARK VINA RESULT:      -7.7     12.311     12.902
REMARK  Name = 44258700
REMARK  2 active torsions:
REMARK  status: ('A' for Active; 'I' for Inactive)
REMARK    1  A    between atoms: O_2  and  C_10
REMARK    2  A    between atoms: C_9  and  C_12
REMARK                            x       y       z     vdW  Elec       q    Type
REMARK                         _______ _______ _______ _____ _____    ______ ____
ROOT
ATOM      1  O   UNL     1     112.166 125.346 136.309  0.00  0.00    +0.000 OA
ATOM      2  O   UNL     1     112.833 123.887 136.791  0.00  0.00    +0.000 OA
ATOM      3  O   UNL     1     113.456 127.449 136.508  0.00  0.00    +0.000 OA
ATOM      4  O   UNL     1     114.401 123.846 137.420  0.00  0.00    +0.000 OA
ATOM      5  C   UNL     1     113.361 126.034 136.681  0.00  0.00    +0.000 A 
ATOM      6  C   UNL     1     112.931 125.333 136.615  0.00  0.00    +0.000 A 
ATOM      7  C   UNL     1     111.830 126.061 136.069  0.00  0.00    +0.000 A 
ATOM      8  C   UNL     1     112.260 126.762 136.135  0.00  0.00    +0.000 A 
ATOM      9  C   UNL     1     113.026 126.748 136.442  0.00  0.00    +0.000 A 
ATOM     10  C   UNL     1     113.270 124.582 136.861  0.00  0.00    +0.000 A 
ATOM     11  C   UNL     1     114.160 126.033 136.999  0.00  0.00    +0.000 A 
ATOM     12  C   UNL     1     114.067 124.562 137.181  0.00  0.00    +0.000 A 
ATOM     13  C   UNL     1     114.515 125.292 137.250  0.00  0.00    +0.000 A 
ENDROOT
BRANCH   7  15
ATOM     14  O   UNL     1     108.764 126.112 134.846  0.00  0.00    +0.000 OA
ATOM     15  C   UNL     1     111.064 126.074 135.763  0.00  0.00    +0.000 A 
ATOM     16  C   UNL     1     110.939 125.950 134.956  0.00  0.00    +0.000 A 
ATOM     17  C   UNL     1     110.422 126.210 136.264  0.00  0.00    +0.000 A 
ATOM     18  C   UNL     1     110.172 125.963 134.651  0.00  0.00    +0.000 A 
ATOM     19  C   UNL     1     109.656 126.223 135.958  0.00  0.00    +0.000 A 
ATOM     20  C   UNL     1     109.531 126.099 135.152  0.00  0.00    +0.000 A 
ENDBRANCH   7  15
BRANCH   8  21
ATOM     21  O   UNL     1     111.924 127.476 135.895  0.00  0.00    +0.000 OA
ATOM     22  C   UNL     1     112.366 128.171 135.930  0.00  0.00    +0.000 C 
ENDBRANCH   8  21
TORSDOF 2
ENDMDL
MODEL 9
REMARK VINA RESULT:      -7.7      1.003      2.482
REMARK  Name = 44258700
REMARK  2 active torsions:
REMARK  status: ('A' for Active; 'I' for Inactive)
REMARK    1  A    between atoms: O_2  and  C_10
REMARK    2  A    between atoms: C_9  and  C_12
REMARK                            x       y       z     vdW  Elec       q    Type
REMARK                         _______ _______ _______ _____ _____    ______ ____
ROOT
ATOM      1  O   UNL     1     106.745 125.286 146.775  0.00  0.00    +0.000 OA
ATOM      2  O   UNL     1     108.275 125.218 147.453  0.00  0.00    +0.000 OA
ATOM      3  O   UNL     1     104.764 124.540 148.058  0.00  0.00    +0.000 OA
ATOM      4  O   UNL     1     108.474 124.636 149.026  0.00  0.00    +0.000 OA
ATOM      5  C   UNL     1     106.174 124.752 147.971  0.00  0.00    +0.000 A 
ATOM      6  C   UNL     1     106.834 125.001 147.544  0.00  0.00    +0.000 A 
ATOM      7  C   UNL     1     105.994 125.323 146.434  0.00  0.00    +0.000 A 
ATOM      8  C   UNL     1     105.334 125.074 146.862  0.00  0.00    +0.000 A 
ATOM      9  C   UNL     1     105.424 124.789 147.631  0.00  0.00    +0.000 A 
ATOM     10  C   UNL     1     107.622 124.967 147.888  0.00  0.00    +0.000 A 
ATOM     11  C   UNL     1     106.255 124.453 148.773  0.00  0.00    +0.000 A 
ATOM     12  C   UNL     1     107.722 124.671 148.688  0.00  0.00    +0.000 A 
ATOM     13  C   UNL     1     107.034 124.412 149.134  0.00  0.00    +0.000 A 
ENDROOT
BRANCH   7  15
ATOM     14  O   UNL     1     105.635 126.467 143.359  0.00  0.00    +0.000 OA
ATOM     15  C   UNL     1     105.904 125.608 145.665  0.00  0.00    +0.000 A 
ATOM     16  C   UNL     1     105.946 125.090 145.025  0.00  0.00    +0.000 A 
ATOM     17  C   UNL     1     105.773 126.413 145.537  0.00  0.00    +0.000 A 
ATOM     18  C   UNL     1     105.856 125.376 144.255  0.00  0.00    +0.000 A 
ATOM     19  C   UNL     1     105.683 126.699 144.768  0.00  0.00    +0.000 A 
ATOM     20  C   UNL     1     105.725 126.180 144.128  0.00  0.00    +0.000 A 
ENDBRANCH   7  15
BRANCH   8  21
ATOM     21  O   UNL     1     104.584 125.111 146.521  0.00  0.00    +0.000 OA
ATOM     22  C   UNL     1     103.935 124.790 146.916  0.00  0.00    +0.000 C 
ENDBRANCH   8  21
TORSDOF 2
ENDMDL
MODEL 10
REMARK VINA RESULT:      -7.7     12.509     13.506
REMARK  Name = 44258700
REMARK  2 active torsions:
REMARK  status: ('A' for Active; 'I' for Inactive)
REMARK    1  A    between atoms: O_2  and  C_10
REMARK    2  A    between atoms: C_9  and  C_12
REMARK                            x       y       z     vdW  Elec       q    Type
REMARK                         _______ _______ _______ _____ _____    ______ ____
ROOT
ATOM      1  O   UNL     1     109.502 128.240 135.542  0.00  0.00    +0.000 OA
ATOM      2  O   UNL     1     107.989 128.803 135.988  0.00  0.00    +0.000 OA
ATOM      3  O   UNL     1     111.253 129.810 134.771  0.00  0.00    +0.000 OA
ATOM      4  O   UNL     1     107.650 130.456 135.913  0.00  0.00    +0.000 OA
ATOM      5  C   UNL     1     109.927 129.572 135.246  0.00  0.00    +0.000 A 
ATOM      6  C   UNL     1     109.344 129.049 135.503  0.00  0.00    +0.000 A 
ATOM      7  C   UNL     1     110.246 127.955 135.323  0.00  0.00    +0.000 A 
ATOM      8  C   UNL     1     110.829 128.478 135.066  0.00  0.00    +0.000 A 
ATOM      9  C   UNL     1     110.669 129.287 135.028  0.00  0.00    +0.000 A 
ATOM     10  C   UNL     1     108.565 129.333 135.733  0.00  0.00    +0.000 A 
ATOM     11  C   UNL     1     109.774 130.417 135.201  0.00  0.00    +0.000 A 
ATOM     12  C   UNL     1     108.394 130.174 135.695  0.00  0.00    +0.000 A 
ATOM     13  C   UNL     1     109.002 130.719 135.427  0.00  0.00    +0.000 A 
ENDROOT
BRANCH   7  15
ATOM     14  O   UNL     1     110.880 124.719 135.481  0.00  0.00    +0.000 OA
ATOM     15  C   UNL     1     110.404 127.146 135.362  0.00  0.00    +0.000 A 
ATOM     16  C   UNL     1     110.245 126.662 134.713  0.00  0.00    +0.000 A 
ATOM     17  C   UNL     1     110.721 126.821 136.052  0.00  0.00    +0.000 A 
ATOM     18  C   UNL     1     110.404 125.853 134.753  0.00  0.00    +0.000 A 
ATOM     19  C   UNL     1     110.880 126.013 136.091  0.00  0.00    +0.000 A 
ATOM     20  C   UNL     1     110.721 125.529 135.442  0.00  0.00    +0.000 A 
ENDBRANCH   7  15
BRANCH   8  21
ATOM     21  O   UNL     1     111.571 128.193 134.849  0.00  0.00    +0.000 OA
ATOM     22  C   UNL     1     112.179 128.721 134.668  0.00  0.00    +0.000 C 
ENDBRANCH   8  21
TORSDOF 2
ENDMDL
