MODEL 1
REMARK VINA RESULT:      -9.9      0.000      0.000
REMARK  Name = 76961592
REMARK  4 active torsions:
REMARK  status: ('A' for Active; 'I' for Inactive)
REMARK    1  A    between atoms: O_2  and  C_16
REMARK    2  A    between atoms: O_2  and  C_23
REMARK    3  A    between atoms: C_17  and  C_25
REMARK    4  A    between atoms: C_19  and  C_24
REMARK                            x       y       z     vdW  Elec       q    Type
REMARK                         _______ _______ _______ _____ _____    ______ ____
ROOT
ATOM      1  O   UNL     1     111.985 126.380 136.114  0.00  0.00    +0.000 OA
ATOM      2  O   UNL     1     111.726 124.213 136.130  0.00  0.00    +0.000 OA
ATOM      3  O   UNL     1     109.437 125.720 134.925  0.00  0.00    +0.000 OA
ATOM      4  C   UNL     1     111.578 125.015 136.006  0.00  0.00    +0.000 C 
ATOM      5  C   UNL     1     112.134 125.578 136.238  0.00  0.00    +0.000 C 
ATOM      6  C   UNL     1     110.873 125.253 135.650  0.00  0.00    +0.000 C 
ATOM      7  C   UNL     1     110.724 126.055 135.525  0.00  0.00    +0.000 A 
ATOM      8  C   UNL     1     111.281 126.619 135.758  0.00  0.00    +0.000 A 
ATOM      9  C   UNL     1     110.405 127.712 135.263  0.00  0.00    +0.000 A 
ATOM     10  C   UNL     1     111.138 127.457 135.634  0.00  0.00    +0.000 A 
ATOM     11  C   UNL     1     109.987 126.291 135.153  0.00  0.00    +0.000 A 
ATOM     12  C   UNL     1     109.826 127.124 135.021  0.00  0.00    +0.000 A 
ENDROOT
BRANCH   5  15
ATOM     13  O   UNL     1     114.932 125.021 136.062  0.00  0.00    +0.000 OA
ATOM     14  O   UNL     1     114.953 124.624 137.663  0.00  0.00    +0.000 OA
ATOM     15  C   UNL     1     112.839 125.339 136.595  0.00  0.00    +0.000 A 
ATOM     16  C   UNL     1     113.533 125.300 136.150  0.00  0.00    +0.000 A 
ATOM     17  C   UNL     1     112.850 125.141 137.395  0.00  0.00    +0.000 A 
ATOM     18  C   UNL     1     114.238 125.061 136.506  0.00  0.00    +0.000 A 
ATOM     19  C   UNL     1     113.555 124.902 137.751  0.00  0.00    +0.000 A 
ATOM     20  C   UNL     1     114.249 124.862 137.307  0.00  0.00    +0.000 A 
ENDBRANCH   5  15
BRANCH   9  21
ATOM     21  O   UNL     1     110.259 128.514 135.140  0.00  0.00    +0.000 OA
BRANCH  21  29
ATOM     22  O   UNL     1     109.952 128.857 136.492  0.00  0.00    +0.000 OA
ATOM     23  O   UNL     1     108.170 130.382 135.702  0.00  0.00    +0.000 OA
ATOM     24  O   UNL     1     109.071 129.531 134.612  0.00  0.00    +0.000 OA
ATOM     25  O   UNL     1     108.457 130.216 137.317  0.00  0.00    +0.000 OA
ATOM     26  C   UNL     1     108.764 129.873 135.965  0.00  0.00    +0.000 C 
ATOM     27  C   UNL     1     109.215 129.448 135.420  0.00  0.00    +0.000 C 
ATOM     28  C   UNL     1     108.908 129.790 136.773  0.00  0.00    +0.000 C 
ATOM     29  C   UNL     1     109.809 128.939 135.684  0.00  0.00    +0.000 C 
ATOM     30  C   UNL     1     109.502 129.282 137.037  0.00  0.00    +0.000 C 
BRANCH  30  33
ATOM     31  O   UNL     1     109.213 128.653 138.287  0.00  0.00    +0.000 OA
ATOM     32  O   UNL     1     110.220 129.664 138.211  0.00  0.00    +0.000 OA
ATOM     33  C   UNL     1     109.645 129.200 137.844  0.00  0.00    +0.000 C 
ENDBRANCH  30  33
ENDBRANCH  21  29
ENDBRANCH   9  21
TORSDOF 4
ENDMDL
MODEL 2
REMARK VINA RESULT:      -9.7      7.130      8.645
REMARK  Name = 76961592
REMARK  4 active torsions:
REMARK  status: ('A' for Active; 'I' for Inactive)
REMARK    1  A    between atoms: O_2  and  C_16
REMARK    2  A    between atoms: O_2  and  C_23
REMARK    3  A    between atoms: C_17  and  C_25
REMARK    4  A    between atoms: C_19  and  C_24
REMARK                            x       y       z     vdW  Elec       q    Type
REMARK                         _______ _______ _______ _____ _____    ______ ____
ROOT
ATOM      1  O   UNL     1     105.077 124.830 140.020  0.00  0.00    +0.000 OA
ATOM      2  O   UNL     1     105.414 122.740 139.490  0.00  0.00    +0.000 OA
ATOM      3  O   UNL     1     107.537 123.927 141.238  0.00  0.00    +0.000 OA
ATOM      4  C   UNL     1     105.523 123.487 139.822  0.00  0.00    +0.000 C 
ATOM      5  C   UNL     1     104.969 124.083 139.687  0.00  0.00    +0.000 C 
ATOM      6  C   UNL     1     106.185 123.638 140.290  0.00  0.00    +0.000 C 
ATOM      7  C   UNL     1     106.294 124.385 140.623  0.00  0.00    +0.000 A 
ATOM      8  C   UNL     1     105.740 124.981 140.488  0.00  0.00    +0.000 A 
ATOM      9  C   UNL     1     106.530 125.927 141.317  0.00  0.00    +0.000 A 
ATOM     10  C   UNL     1     105.841 125.763 140.829  0.00  0.00    +0.000 A 
ATOM     11  C   UNL     1     106.988 124.529 141.108  0.00  0.00    +0.000 A 
ATOM     12  C   UNL     1     107.107 125.305 141.457  0.00  0.00    +0.000 A 
ENDROOT
BRANCH   5  15
ATOM     13  O   UNL     1     102.237 123.277 139.452  0.00  0.00    +0.000 OA
ATOM     14  O   UNL     1     102.318 123.478 137.817  0.00  0.00    +0.000 OA
ATOM     15  C   UNL     1     104.306 123.932 139.219  0.00  0.00    +0.000 A 
ATOM     16  C   UNL     1     103.603 123.680 139.570  0.00  0.00    +0.000 A 
ATOM     17  C   UNL     1     104.347 124.032 138.401  0.00  0.00    +0.000 A 
ATOM     18  C   UNL     1     102.940 123.529 139.102  0.00  0.00    +0.000 A 
ATOM     19  C   UNL     1     103.684 123.881 137.935  0.00  0.00    +0.000 A 
ATOM     20  C   UNL     1     102.981 123.629 138.285  0.00  0.00    +0.000 A 
ENDBRANCH   5  15
BRANCH   9  21
ATOM     21  O   UNL     1     106.636 126.675 141.649  0.00  0.00    +0.000 OA
BRANCH  21  29
ATOM     22  O   UNL     1     106.314 126.340 143.000  0.00  0.00    +0.000 OA
ATOM     23  O   UNL     1     105.093 128.480 143.238  0.00  0.00    +0.000 OA
ATOM     24  O   UNL     1     105.822 128.101 141.807  0.00  0.00    +0.000 OA
ATOM     25  O   UNL     1     105.178 127.433 144.510  0.00  0.00    +0.000 OA
ATOM     26  C   UNL     1     105.500 127.767 143.159  0.00  0.00    +0.000 C 
ATOM     27  C   UNL     1     105.865 127.577 142.443  0.00  0.00    +0.000 C 
ATOM     28  C   UNL     1     105.543 127.243 143.795  0.00  0.00    +0.000 C 
ATOM     29  C   UNL     1     106.272 126.864 142.364  0.00  0.00    +0.000 C 
ATOM     30  C   UNL     1     105.950 126.530 143.715  0.00  0.00    +0.000 C 
BRANCH  30  33
ATOM     31  O   UNL     1     105.389 125.459 144.477  0.00  0.00    +0.000 OA
ATOM     32  O   UNL     1     106.640 126.031 144.862  0.00  0.00    +0.000 OA
ATOM     33  C   UNL     1     105.993 126.007 144.351  0.00  0.00    +0.000 C 
ENDBRANCH  30  33
ENDBRANCH  21  29
ENDBRANCH   9  21
TORSDOF 4
ENDMDL
MODEL 3
REMARK VINA RESULT:      -9.5      2.278      3.159
REMARK  Name = 76961592
REMARK  4 active torsions:
REMARK  status: ('A' for Active; 'I' for Inactive)
REMARK    1  A    between atoms: O_2  and  C_16
REMARK    2  A    between atoms: O_2  and  C_23
REMARK    3  A    between atoms: C_17  and  C_25
REMARK    4  A    between atoms: C_19  and  C_24
REMARK                            x       y       z     vdW  Elec       q    Type
REMARK                         _______ _______ _______ _____ _____    ______ ____
ROOT
ATOM      1  O   UNL     1     111.876 126.789 136.061  0.00  0.00    +0.000 OA
ATOM      2  O   UNL     1     109.999 125.760 135.636  0.00  0.00    +0.000 OA
ATOM      3  O   UNL     1     110.123 128.571 134.612  0.00  0.00    +0.000 OA
ATOM      4  C   UNL     1     110.577 126.348 135.663  0.00  0.00    +0.000 C 
ATOM      5  C   UNL     1     111.298 126.201 136.034  0.00  0.00    +0.000 C 
ATOM      6  C   UNL     1     110.433 127.084 135.318  0.00  0.00    +0.000 C 
ATOM      7  C   UNL     1     111.010 127.672 135.344  0.00  0.00    +0.000 A 
ATOM      8  C   UNL     1     111.732 127.525 135.716  0.00  0.00    +0.000 A 
ATOM      9  C   UNL     1     112.198 128.898 135.392  0.00  0.00    +0.000 A 
ATOM     10  C   UNL     1     112.342 128.129 135.750  0.00  0.00    +0.000 A 
ATOM     11  C   UNL     1     110.848 128.433 134.981  0.00  0.00    +0.000 A 
ATOM     12  C   UNL     1     111.446 129.050 135.005  0.00  0.00    +0.000 A 
ENDROOT
BRANCH   5  15
ATOM     13  O   UNL     1     111.367 124.524 138.347  0.00  0.00    +0.000 OA
ATOM     14  O   UNL     1     111.874 123.260 137.415  0.00  0.00    +0.000 OA
ATOM     15  C   UNL     1     111.442 125.466 136.379  0.00  0.00    +0.000 A 
ATOM     16  C   UNL     1     111.333 125.363 137.191  0.00  0.00    +0.000 A 
ATOM     17  C   UNL     1     111.696 124.834 135.913  0.00  0.00    +0.000 A 
ATOM     18  C   UNL     1     111.476 124.627 137.536  0.00  0.00    +0.000 A 
ATOM     19  C   UNL     1     111.839 124.099 136.259  0.00  0.00    +0.000 A 
ATOM     20  C   UNL     1     111.730 123.995 137.070  0.00  0.00    +0.000 A 
ENDBRANCH   5  15
BRANCH   9  21
ATOM     21  O   UNL     1     112.777 129.484 135.420  0.00  0.00    +0.000 OA
BRANCH  21  29
ATOM     22  O   UNL     1     112.258 130.198 136.544  0.00  0.00    +0.000 OA
ATOM     23  O   UNL     1     114.563 130.600 137.352  0.00  0.00    +0.000 OA
ATOM     24  O   UNL     1     114.313 129.752 135.959  0.00  0.00    +0.000 OA
ATOM     25  O   UNL     1     113.276 131.179 138.206  0.00  0.00    +0.000 OA
ATOM     26  C   UNL     1     113.795 130.466 137.083  0.00  0.00    +0.000 C 
ATOM     27  C   UNL     1     113.670 130.042 136.386  0.00  0.00    +0.000 C 
ATOM     28  C   UNL     1     113.151 130.755 137.510  0.00  0.00    +0.000 C 
ATOM     29  C   UNL     1     112.902 129.908 136.116  0.00  0.00    +0.000 C 
ATOM     30  C   UNL     1     112.383 130.621 137.240  0.00  0.00    +0.000 C 
BRANCH  30  33
ATOM     31  O   UNL     1     111.409 130.459 138.273  0.00  0.00    +0.000 OA
ATOM     32  O   UNL     1     111.427 131.654 137.489  0.00  0.00    +0.000 OA
ATOM     33  C   UNL     1     111.740 130.911 137.667  0.00  0.00    +0.000 C 
ENDBRANCH  30  33
ENDBRANCH  21  29
ENDBRANCH   9  21
TORSDOF 4
ENDMDL
MODEL 4
REMARK VINA RESULT:      -9.4      3.374      5.910
REMARK  Name = 76961592
REMARK  4 active torsions:
REMARK  status: ('A' for Active; 'I' for Inactive)
REMARK    1  A    between atoms: O_2  and  C_16
REMARK    2  A    between atoms: O_2  and  C_23
REMARK    3  A    between atoms: C_17  and  C_25
REMARK    4  A    between atoms: C_19  and  C_24
REMARK                            x       y       z     vdW  Elec       q    Type
REMARK                         _______ _______ _______ _____ _____    ______ ____
ROOT
ATOM      1  O   UNL     1     113.231 128.819 139.463  0.00  0.00    +0.000 OA
ATOM      2  O   UNL     1     113.076 130.820 138.606  0.00  0.00    +0.000 OA
ATOM      3  O   UNL     1     111.554 128.718 137.112  0.00  0.00    +0.000 OA
ATOM      4  C   UNL     1     112.972 130.009 138.716  0.00  0.00    +0.000 C 
ATOM      5  C   UNL     1     113.335 129.630 139.353  0.00  0.00    +0.000 C 
ATOM      6  C   UNL     1     112.505 129.578 138.190  0.00  0.00    +0.000 C 
ATOM      7  C   UNL     1     112.401 128.767 138.300  0.00  0.00    +0.000 A 
ATOM      8  C   UNL     1     112.764 128.387 138.937  0.00  0.00    +0.000 A 
ATOM      9  C   UNL     1     112.178 127.088 138.517  0.00  0.00    +0.000 A 
ATOM     10  C   UNL     1     112.663 127.543 139.062  0.00  0.00    +0.000 A 
ATOM     11  C   UNL     1     111.913 128.329 137.746  0.00  0.00    +0.000 A 
ATOM     12  C   UNL     1     111.801 127.484 137.855  0.00  0.00    +0.000 A 
ENDROOT
BRANCH   5  15
ATOM     13  O   UNL     1     113.621 131.046 141.818  0.00  0.00    +0.000 OA
ATOM     14  O   UNL     1     115.201 131.355 141.457  0.00  0.00    +0.000 OA
ATOM     15  C   UNL     1     113.802 130.061 139.879  0.00  0.00    +0.000 A 
ATOM     16  C   UNL     1     113.477 130.338 140.586  0.00  0.00    +0.000 A 
ATOM     17  C   UNL     1     114.592 130.215 139.698  0.00  0.00    +0.000 A 
ATOM     18  C   UNL     1     113.944 130.769 141.112  0.00  0.00    +0.000 A 
ATOM     19  C   UNL     1     115.057 130.647 140.224  0.00  0.00    +0.000 A 
ATOM     20  C   UNL     1     114.734 130.924 140.931  0.00  0.00    +0.000 A 
ENDBRANCH   5  15
BRANCH   9  21
ATOM     21  O   UNL     1     112.076 126.278 138.630  0.00  0.00    +0.000 OA
BRANCH  21  29
ATOM     22  O   UNL     1     113.242 125.822 137.941  0.00  0.00    +0.000 OA
ATOM     23  O   UNL     1     111.934 123.969 136.952  0.00  0.00    +0.000 OA
ATOM     24  O   UNL     1     111.203 125.042 137.971  0.00  0.00    +0.000 OA
ATOM     25  O   UNL     1     113.535 124.132 136.593  0.00  0.00    +0.000 OA
ATOM     26  C   UNL     1     112.370 124.587 137.282  0.00  0.00    +0.000 C 
ATOM     27  C   UNL     1     112.004 125.124 137.791  0.00  0.00    +0.000 C 
ATOM     28  C   UNL     1     113.171 124.668 137.103  0.00  0.00    +0.000 C 
ATOM     29  C   UNL     1     112.440 125.741 138.121  0.00  0.00    +0.000 C 
ATOM     30  C   UNL     1     113.607 125.286 137.432  0.00  0.00    +0.000 C 
BRANCH  30  33
ATOM     31  O   UNL     1     114.640 125.778 136.576  0.00  0.00    +0.000 OA
ATOM     32  O   UNL     1     114.977 125.037 137.750  0.00  0.00    +0.000 OA
ATOM     33  C   UNL     1     114.407 125.367 137.253  0.00  0.00    +0.000 C 
ENDBRANCH  30  33
ENDBRANCH  21  29
ENDBRANCH   9  21
TORSDOF 4
ENDMDL
MODEL 5
REMARK VINA RESULT:      -9.4      7.747     10.405
REMARK  Name = 76961592
REMARK  4 active torsions:
REMARK  status: ('A' for Active; 'I' for Inactive)
REMARK    1  A    between atoms: O_2  and  C_16
REMARK    2  A    between atoms: O_2  and  C_23
REMARK    3  A    between atoms: C_17  and  C_25
REMARK    4  A    between atoms: C_19  and  C_24
REMARK                            x       y       z     vdW  Elec       q    Type
REMARK                         _______ _______ _______ _____ _____    ______ ____
ROOT
ATOM      1  O   UNL     1     104.950 127.609 142.367  0.00  0.00    +0.000 OA
ATOM      2  O   UNL     1     105.855 129.488 141.720  0.00  0.00    +0.000 OA
ATOM      3  O   UNL     1     107.825 127.389 142.546  0.00  0.00    +0.000 OA
ATOM      4  C   UNL     1     105.777 128.714 141.997  0.00  0.00    +0.000 C 
ATOM      5  C   UNL     1     105.028 128.383 142.090  0.00  0.00    +0.000 C 
ATOM      6  C   UNL     1     106.450 128.272 142.180  0.00  0.00    +0.000 C 
ATOM      7  C   UNL     1     106.372 127.499 142.456  0.00  0.00    +0.000 A 
ATOM      8  C   UNL     1     105.623 127.167 142.550  0.00  0.00    +0.000 A 
ATOM      9  C   UNL     1     106.226 125.897 143.029  0.00  0.00    +0.000 A 
ATOM     10  C   UNL     1     105.529 126.363 142.837  0.00  0.00    +0.000 A 
ATOM     11  C   UNL     1     107.080 127.049 142.643  0.00  0.00    +0.000 A 
ATOM     12  C   UNL     1     107.006 126.243 142.931  0.00  0.00    +0.000 A 
ENDROOT
BRANCH   5  15
ATOM     13  O   UNL     1     102.947 129.080 140.259  0.00  0.00    +0.000 OA
ATOM     14  O   UNL     1     102.339 130.150 141.358  0.00  0.00    +0.000 OA
ATOM     15  C   UNL     1     104.355 128.825 141.908  0.00  0.00    +0.000 A 
ATOM     16  C   UNL     1     103.988 128.731 141.175  0.00  0.00    +0.000 A 
ATOM     17  C   UNL     1     104.051 129.360 142.457  0.00  0.00    +0.000 A 
ATOM     18  C   UNL     1     103.315 129.173 140.992  0.00  0.00    +0.000 A 
ATOM     19  C   UNL     1     103.379 129.801 142.274  0.00  0.00    +0.000 A 
ATOM     20  C   UNL     1     103.011 129.708 141.541  0.00  0.00    +0.000 A 
ENDBRANCH   5  15
BRANCH   9  21
ATOM     21  O   UNL     1     106.146 125.124 143.306  0.00  0.00    +0.000 OA
BRANCH  21  29
ATOM     22  O   UNL     1     106.365 125.394 144.692  0.00  0.00    +0.000 OA
ATOM     23  O   UNL     1     104.607 123.758 145.289  0.00  0.00    +0.000 OA
ATOM     24  O   UNL     1     104.974 124.033 143.704  0.00  0.00    +0.000 OA
ATOM     25  O   UNL     1     105.413 124.573 146.475  0.00  0.00    +0.000 OA
ATOM     26  C   UNL     1     105.193 124.303 145.090  0.00  0.00    +0.000 C 
ATOM     27  C   UNL     1     105.377 124.441 144.297  0.00  0.00    +0.000 C 
ATOM     28  C   UNL     1     105.596 124.711 145.683  0.00  0.00    +0.000 C 
ATOM     29  C   UNL     1     105.963 124.987 144.097  0.00  0.00    +0.000 C 
ATOM     30  C   UNL     1     106.182 125.256 145.483  0.00  0.00    +0.000 C 
BRANCH  30  33
ATOM     31  O   UNL     1     107.292 125.363 146.378  0.00  0.00    +0.000 OA
ATOM     32  O   UNL     1     106.280 126.372 146.370  0.00  0.00    +0.000 OA
ATOM     33  C   UNL     1     106.585 125.664 146.077  0.00  0.00    +0.000 C 
ENDBRANCH  30  33
ENDBRANCH  21  29
ENDBRANCH   9  21
TORSDOF 4
ENDMDL
MODEL 6
REMARK VINA RESULT:      -9.4      6.346      8.256
REMARK  Name = 76961592
REMARK  4 active torsions:
REMARK  status: ('A' for Active; 'I' for Inactive)
REMARK    1  A    between atoms: O_2  and  C_16
REMARK    2  A    between atoms: O_2  and  C_23
REMARK    3  A    between atoms: C_17  and  C_25
REMARK    4  A    between atoms: C_19  and  C_24
REMARK                            x       y       z     vdW  Elec       q    Type
REMARK                         _______ _______ _______ _____ _____    ______ ____
ROOT
ATOM      1  O   UNL     1     104.810 124.745 139.714  0.00  0.00    +0.000 OA
ATOM      2  O   UNL     1     104.064 122.739 140.142  0.00  0.00    +0.000 OA
ATOM      3  O   UNL     1     105.643 123.969 142.370  0.00  0.00    +0.000 OA
ATOM      4  C   UNL     1     104.445 123.465 140.234  0.00  0.00    +0.000 C 
ATOM      5  C   UNL     1     104.429 124.019 139.623  0.00  0.00    +0.000 C 
ATOM      6  C   UNL     1     104.842 123.637 140.936  0.00  0.00    +0.000 C 
ATOM      7  C   UNL     1     105.223 124.363 141.028  0.00  0.00    +0.000 A 
ATOM      8  C   UNL     1     105.207 124.917 140.417  0.00  0.00    +0.000 A 
ATOM      9  C   UNL     1     106.015 125.862 141.230  0.00  0.00    +0.000 A 
ATOM     10  C   UNL     1     105.599 125.677 140.500  0.00  0.00    +0.000 A 
ATOM     11  C   UNL     1     105.632 124.530 141.764  0.00  0.00    +0.000 A 
ATOM     12  C   UNL     1     106.031 125.284 141.866  0.00  0.00    +0.000 A 
ENDROOT
BRANCH   5  15
ATOM     13  O   UNL     1     102.005 123.910 138.113  0.00  0.00    +0.000 OA
ATOM     14  O   UNL     1     102.841 123.332 136.813  0.00  0.00    +0.000 OA
ATOM     15  C   UNL     1     104.032 123.847 138.920  0.00  0.00    +0.000 A 
ATOM     16  C   UNL     1     103.216 123.965 138.868  0.00  0.00    +0.000 A 
ATOM     17  C   UNL     1     104.450 123.558 138.270  0.00  0.00    +0.000 A 
ATOM     18  C   UNL     1     102.820 123.793 138.166  0.00  0.00    +0.000 A 
ATOM     19  C   UNL     1     104.052 123.386 137.569  0.00  0.00    +0.000 A 
ATOM     20  C   UNL     1     103.237 123.504 137.516  0.00  0.00    +0.000 A 
ENDBRANCH   5  15
BRANCH   9  21
ATOM     21  O   UNL     1     106.395 126.588 141.319  0.00  0.00    +0.000 OA
BRANCH  21  29
ATOM     22  O   UNL     1     107.692 126.129 140.935  0.00  0.00    +0.000 OA
ATOM     23  O   UNL     1     108.725 127.684 142.560  0.00  0.00    +0.000 OA
ATOM     24  O   UNL     1     107.083 127.625 142.403  0.00  0.00    +0.000 OA
ATOM     25  O   UNL     1     109.677 126.706 141.634  0.00  0.00    +0.000 OA
ATOM     26  C   UNL     1     108.380 127.165 142.019  0.00  0.00    +0.000 C 
ATOM     27  C   UNL     1     107.559 127.136 141.940  0.00  0.00    +0.000 C 
ATOM     28  C   UNL     1     108.856 126.676 141.555  0.00  0.00    +0.000 C 
ATOM     29  C   UNL     1     107.215 126.618 141.398  0.00  0.00    +0.000 C 
ATOM     30  C   UNL     1     108.512 126.158 141.013  0.00  0.00    +0.000 C 
BRANCH  30  33
ATOM     31  O   UNL     1     109.179 125.889 139.778  0.00  0.00    +0.000 OA
ATOM     32  O   UNL     1     109.276 124.961 140.860  0.00  0.00    +0.000 OA
ATOM     33  C   UNL     1     108.989 125.670 140.550  0.00  0.00    +0.000 C 
ENDBRANCH  30  33
ENDBRANCH  21  29
ENDBRANCH   9  21
TORSDOF 4
ENDMDL
MODEL 7
REMARK VINA RESULT:      -9.4      1.959      3.449
REMARK  Name = 76961592
REMARK  4 active torsions:
REMARK  status: ('A' for Active; 'I' for Inactive)
REMARK    1  A    between atoms: O_2  and  C_16
REMARK    2  A    between atoms: O_2  and  C_23
REMARK    3  A    between atoms: C_17  and  C_25
REMARK    4  A    between atoms: C_19  and  C_24
REMARK                            x       y       z     vdW  Elec       q    Type
REMARK                         _______ _______ _______ _____ _____    ______ ____
ROOT
ATOM      1  O   UNL     1     110.156 128.237 135.946  0.00  0.00    +0.000 OA
ATOM      2  O   UNL     1     108.423 126.927 135.737  0.00  0.00    +0.000 OA
ATOM      3  O   UNL     1     107.757 129.844 135.853  0.00  0.00    +0.000 OA
ATOM      4  C   UNL     1     108.880 127.610 135.811  0.00  0.00    +0.000 C 
ATOM      5  C   UNL     1     109.700 127.554 135.871  0.00  0.00    +0.000 C 
ATOM      6  C   UNL     1     108.515 128.350 135.826  0.00  0.00    +0.000 C 
ATOM      7  C   UNL     1     108.971 129.034 135.900  0.00  0.00    +0.000 A 
ATOM      8  C   UNL     1     109.792 128.977 135.960  0.00  0.00    +0.000 A 
ATOM      9  C   UNL     1     109.903 130.456 136.053  0.00  0.00    +0.000 A 
ATOM     10  C   UNL     1     110.277 129.681 136.038  0.00  0.00    +0.000 A 
ATOM     11  C   UNL     1     108.579 129.798 135.913  0.00  0.00    +0.000 A 
ATOM     12  C   UNL     1     109.048 130.513 135.990  0.00  0.00    +0.000 A 
ENDROOT
BRANCH   5  15
ATOM     13  O   UNL     1     110.842 125.331 137.258  0.00  0.00    +0.000 OA
ATOM     14  O   UNL     1     111.159 124.595 135.815  0.00  0.00    +0.000 OA
ATOM     15  C   UNL     1     110.065 126.814 135.857  0.00  0.00    +0.000 A 
ATOM     16  C   UNL     1     110.271 126.442 136.565  0.00  0.00    +0.000 A 
ATOM     17  C   UNL     1     110.224 126.446 135.136  0.00  0.00    +0.000 A 
ATOM     18  C   UNL     1     110.636 125.703 136.551  0.00  0.00    +0.000 A 
ATOM     19  C   UNL     1     110.588 125.706 135.123  0.00  0.00    +0.000 A 
ATOM     20  C   UNL     1     110.795 125.335 135.829  0.00  0.00    +0.000 A 
ENDBRANCH   5  15
BRANCH   9  21
ATOM     21  O   UNL     1     110.362 131.137 136.127  0.00  0.00    +0.000 OA
BRANCH  21  29
ATOM     22  O   UNL     1     110.425 131.173 137.554  0.00  0.00    +0.000 OA
ATOM     23  O   UNL     1     110.180 133.636 137.503  0.00  0.00    +0.000 OA
ATOM     24  O   UNL     1     110.199 132.779 136.093  0.00  0.00    +0.000 OA
ATOM     25  O   UNL     1     110.325 132.851 138.946  0.00  0.00    +0.000 OA
ATOM     26  C   UNL     1     110.262 132.815 137.520  0.00  0.00    +0.000 C 
ATOM     27  C   UNL     1     110.271 132.386 136.815  0.00  0.00    +0.000 C 
ATOM     28  C   UNL     1     110.334 132.422 138.242  0.00  0.00    +0.000 C 
ATOM     29  C   UNL     1     110.352 131.565 136.832  0.00  0.00    +0.000 C 
ATOM     30  C   UNL     1     110.415 131.601 138.259  0.00  0.00    +0.000 C 
BRANCH  30  33
ATOM     31  O   UNL     1     109.812 130.970 139.391  0.00  0.00    +0.000 OA
ATOM     32  O   UNL     1     111.235 131.055 139.293  0.00  0.00    +0.000 OA
ATOM     33  C   UNL     1     110.487 131.209 138.981  0.00  0.00    +0.000 C 
ENDBRANCH  30  33
ENDBRANCH  21  29
ENDBRANCH   9  21
TORSDOF 4
ENDMDL
MODEL 8
REMARK VINA RESULT:      -9.3      8.516     10.452
REMARK  Name = 76961592
REMARK  4 active torsions:
REMARK  status: ('A' for Active; 'I' for Inactive)
REMARK    1  A    between atoms: O_2  and  C_16
REMARK    2  A    between atoms: O_2  and  C_23
REMARK    3  A    between atoms: C_17  and  C_25
REMARK    4  A    between atoms: C_19  and  C_24
REMARK                            x       y       z     vdW  Elec       q    Type
REMARK                         _______ _______ _______ _____ _____    ______ ____
ROOT
ATOM      1  O   UNL     1     106.498 125.656 145.969  0.00  0.00    +0.000 OA
ATOM      2  O   UNL     1     106.829 127.200 147.475  0.00  0.00    +0.000 OA
ATOM      3  O   UNL     1     105.695 128.215 144.896  0.00  0.00    +0.000 OA
ATOM      4  C   UNL     1     106.617 126.835 146.766  0.00  0.00    +0.000 C 
ATOM      5  C   UNL     1     106.710 126.020 146.678  0.00  0.00    +0.000 C 
ATOM      6  C   UNL     1     106.312 127.285 146.146  0.00  0.00    +0.000 C 
ATOM      7  C   UNL     1     106.101 126.921 145.436  0.00  0.00    +0.000 A 
ATOM      8  C   UNL     1     106.194 126.106 145.348  0.00  0.00    +0.000 A 
ATOM      9  C   UNL     1     105.659 126.178 143.964  0.00  0.00    +0.000 A 
ATOM     10  C   UNL     1     105.977 125.715 144.615  0.00  0.00    +0.000 A 
ATOM     11  C   UNL     1     105.785 127.401 144.798  0.00  0.00    +0.000 A 
ATOM     12  C   UNL     1     105.562 127.027 144.057  0.00  0.00    +0.000 A 
ENDROOT
BRANCH   5  15
ATOM     13  O   UNL     1     106.296 124.339 148.951  0.00  0.00    +0.000 OA
ATOM     14  O   UNL     1     107.928 124.219 149.160  0.00  0.00    +0.000 OA
ATOM     15  C   UNL     1     107.015 125.570 147.298  0.00  0.00    +0.000 A 
ATOM     16  C   UNL     1     106.502 125.180 147.815  0.00  0.00    +0.000 A 
ATOM     17  C   UNL     1     107.831 125.510 147.403  0.00  0.00    +0.000 A 
ATOM     18  C   UNL     1     106.807 124.729 148.435  0.00  0.00    +0.000 A 
ATOM     19  C   UNL     1     108.135 125.060 148.023  0.00  0.00    +0.000 A 
ATOM     20  C   UNL     1     107.623 124.670 148.539  0.00  0.00    +0.000 A 
ENDBRANCH   5  15
BRANCH   9  21
ATOM     21  O   UNL     1     105.448 125.811 143.256  0.00  0.00    +0.000 OA
BRANCH  21  29
ATOM     22  O   UNL     1     106.601 126.223 142.519  0.00  0.00    +0.000 OA
ATOM     23  O   UNL     1     106.587 124.072 141.295  0.00  0.00    +0.000 OA
ATOM     24  O   UNL     1     105.439 124.377 142.440  0.00  0.00    +0.000 OA
ATOM     25  O   UNL     1     107.744 125.200 140.967  0.00  0.00    +0.000 OA
ATOM     26  C   UNL     1     106.592 124.789 141.703  0.00  0.00    +0.000 C 
ATOM     27  C   UNL     1     106.017 124.942 142.276  0.00  0.00    +0.000 C 
ATOM     28  C   UNL     1     107.170 125.353 141.539  0.00  0.00    +0.000 C 
ATOM     29  C   UNL     1     106.022 125.659 142.684  0.00  0.00    +0.000 C 
ATOM     30  C   UNL     1     107.175 126.070 141.947  0.00  0.00    +0.000 C 
BRANCH  30  33
ATOM     31  O   UNL     1     108.473 126.618 142.186  0.00  0.00    +0.000 OA
ATOM     32  O   UNL     1     107.613 127.216 141.215  0.00  0.00    +0.000 OA
ATOM     33  C   UNL     1     107.753 126.634 141.783  0.00  0.00    +0.000 C 
ENDBRANCH  30  33
ENDBRANCH  21  29
ENDBRANCH   9  21
TORSDOF 4
ENDMDL
MODEL 9
REMARK VINA RESULT:      -9.2      1.610      2.441
REMARK  Name = 76961592
REMARK  4 active torsions:
REMARK  status: ('A' for Active; 'I' for Inactive)
REMARK    1  A    between atoms: O_2  and  C_16
REMARK    2  A    between atoms: O_2  and  C_23
REMARK    3  A    between atoms: C_17  and  C_25
REMARK    4  A    between atoms: C_19  and  C_24
REMARK                            x       y       z     vdW  Elec       q    Type
REMARK                         _______ _______ _______ _____ _____    ______ ____
ROOT
ATOM      1  O   UNL     1     111.998 126.862 136.165  0.00  0.00    +0.000 OA
ATOM      2  O   UNL     1     113.866 126.106 137.005  0.00  0.00    +0.000 OA
ATOM      3  O   UNL     1     114.021 128.916 135.980  0.00  0.00    +0.000 OA
ATOM      4  C   UNL     1     113.319 126.612 136.650  0.00  0.00    +0.000 C 
ATOM      5  C   UNL     1     112.545 126.356 136.520  0.00  0.00    +0.000 C 
ATOM      6  C   UNL     1     113.545 127.373 136.427  0.00  0.00    +0.000 C 
ATOM      7  C   UNL     1     112.997 127.879 136.073  0.00  0.00    +0.000 A 
ATOM      8  C   UNL     1     112.224 127.623 135.942  0.00  0.00    +0.000 A 
ATOM      9  C   UNL     1     111.875 128.935 135.339  0.00  0.00    +0.000 A 
ATOM     10  C   UNL     1     111.645 128.140 135.574  0.00  0.00    +0.000 A 
ATOM     11  C   UNL     1     113.245 128.669 135.845  0.00  0.00    +0.000 A 
ATOM     12  C   UNL     1     112.680 129.201 135.476  0.00  0.00    +0.000 A 
ENDROOT
BRANCH   5  15
ATOM     13  O   UNL     1     111.253 124.601 138.368  0.00  0.00    +0.000 OA
ATOM     14  O   UNL     1     111.641 123.311 137.414  0.00  0.00    +0.000 OA
ATOM     15  C   UNL     1     112.319 125.595 136.743  0.00  0.00    +0.000 A 
ATOM     16  C   UNL     1     111.899 125.479 137.444  0.00  0.00    +0.000 A 
ATOM     17  C   UNL     1     112.513 124.950 136.266  0.00  0.00    +0.000 A 
ATOM     18  C   UNL     1     111.673 124.717 137.668  0.00  0.00    +0.000 A 
ATOM     19  C   UNL     1     112.287 124.190 136.490  0.00  0.00    +0.000 A 
ATOM     20  C   UNL     1     111.867 124.073 137.191  0.00  0.00    +0.000 A 
ENDBRANCH   5  15
BRANCH   9  21
ATOM     21  O   UNL     1     111.325 129.439 134.985  0.00  0.00    +0.000 OA
BRANCH  21  29
ATOM     22  O   UNL     1     111.054 130.289 136.101  0.00  0.00    +0.000 OA
ATOM     23  O   UNL     1     108.641 130.239 135.552  0.00  0.00    +0.000 OA
ATOM     24  O   UNL     1     109.717 129.405 134.619  0.00  0.00    +0.000 OA
ATOM     25  O   UNL     1     109.174 131.106 136.850  0.00  0.00    +0.000 OA
ATOM     26  C   UNL     1     109.445 130.256 135.735  0.00  0.00    +0.000 C 
ATOM     27  C   UNL     1     109.984 129.839 135.268  0.00  0.00    +0.000 C 
ATOM     28  C   UNL     1     109.712 130.689 136.384  0.00  0.00    +0.000 C 
ATOM     29  C   UNL     1     110.788 129.855 135.451  0.00  0.00    +0.000 C 
ATOM     30  C   UNL     1     110.517 130.706 136.567  0.00  0.00    +0.000 C 
BRANCH  30  33
ATOM     31  O   UNL     1     110.793 130.796 137.966  0.00  0.00    +0.000 OA
ATOM     32  O   UNL     1     111.039 131.917 137.115  0.00  0.00    +0.000 OA
ATOM     33  C   UNL     1     110.783 131.139 137.216  0.00  0.00    +0.000 C 
ENDBRANCH  30  33
ENDBRANCH  21  29
ENDBRANCH   9  21
TORSDOF 4
ENDMDL
MODEL 10
REMARK VINA RESULT:      -9.2      1.534      2.579
REMARK  Name = 76961592
REMARK  4 active torsions:
REMARK  status: ('A' for Active; 'I' for Inactive)
REMARK    1  A    between atoms: O_2  and  C_16
REMARK    2  A    between atoms: O_2  and  C_23
REMARK    3  A    between atoms: C_17  and  C_25
REMARK    4  A    between atoms: C_19  and  C_24
REMARK                            x       y       z     vdW  Elec       q    Type
REMARK                         _______ _______ _______ _____ _____    ______ ____
ROOT
ATOM      1  O   UNL     1     112.351 127.380 137.240  0.00  0.00    +0.000 OA
ATOM      2  O   UNL     1     114.179 127.295 136.051  0.00  0.00    +0.000 OA
ATOM      3  O   UNL     1     112.870 129.987 136.110  0.00  0.00    +0.000 OA
ATOM      4  C   UNL     1     113.499 127.587 136.415  0.00  0.00    +0.000 C 
ATOM      5  C   UNL     1     113.031 127.087 136.876  0.00  0.00    +0.000 C 
ATOM      6  C   UNL     1     113.287 128.378 136.318  0.00  0.00    +0.000 C 
ATOM      7  C   UNL     1     112.606 128.670 136.682  0.00  0.00    +0.000 A 
ATOM      8  C   UNL     1     112.138 128.171 137.143  0.00  0.00    +0.000 A 
ATOM      9  C   UNL     1     111.201 129.287 137.429  0.00  0.00    +0.000 A 
ATOM     10  C   UNL     1     111.427 128.463 137.527  0.00  0.00    +0.000 A 
ATOM     11  C   UNL     1     112.396 129.496 136.573  0.00  0.00    +0.000 A 
ATOM     12  C   UNL     1     111.689 129.806 136.949  0.00  0.00    +0.000 A 
ENDROOT
BRANCH   5  15
ATOM     13  O   UNL     1     112.702 124.334 136.184  0.00  0.00    +0.000 OA
ATOM     14  O   UNL     1     113.880 123.922 137.263  0.00  0.00    +0.000 OA
ATOM     15  C   UNL     1     113.243 126.296 136.973  0.00  0.00    +0.000 A 
ATOM     16  C   UNL     1     112.866 125.711 136.530  0.00  0.00    +0.000 A 
ATOM     17  C   UNL     1     113.833 126.090 137.512  0.00  0.00    +0.000 A 
ATOM     18  C   UNL     1     113.078 124.920 136.627  0.00  0.00    +0.000 A 
ATOM     19  C   UNL     1     114.044 125.299 137.609  0.00  0.00    +0.000 A 
ATOM     20  C   UNL     1     113.668 124.714 137.166  0.00  0.00    +0.000 A 
ENDBRANCH   5  15
BRANCH   9  21
ATOM     21  O   UNL     1     110.520 129.576 137.794  0.00  0.00    +0.000 OA
BRANCH  21  29
ATOM     22  O   UNL     1     109.615 129.229 136.744  0.00  0.00    +0.000 OA
ATOM     23  O   UNL     1     108.311 131.285 137.187  0.00  0.00    +0.000 OA
ATOM     24  O   UNL     1     109.650 130.947 138.090  0.00  0.00    +0.000 OA
ATOM     25  O   UNL     1     107.841 130.252 135.990  0.00  0.00    +0.000 OA
ATOM     26  C   UNL     1     108.746 130.600 137.039  0.00  0.00    +0.000 C 
ATOM     27  C   UNL     1     109.416 130.430 137.491  0.00  0.00    +0.000 C 
ATOM     28  C   UNL     1     108.511 130.083 136.441  0.00  0.00    +0.000 C 
ATOM     29  C   UNL     1     109.851 129.745 137.343  0.00  0.00    +0.000 C 
ATOM     30  C   UNL     1     108.946 129.397 136.293  0.00  0.00    +0.000 C 
BRANCH  30  33
ATOM     31  O   UNL     1     108.167 128.282 135.856  0.00  0.00    +0.000 OA
ATOM     32  O   UNL     1     109.020 128.964 134.934  0.00  0.00    +0.000 OA
ATOM     33  C   UNL     1     108.711 128.881 135.695  0.00  0.00    +0.000 C 
ENDBRANCH  30  33
ENDBRANCH  21  29
ENDBRANCH   9  21
TORSDOF 4
ENDMDL
