MODEL 1
REMARK VINA RESULT:      -9.4      0.000      0.000
REMARK  Name = 74977917
REMARK  7 active torsions:
REMARK  status: ('A' for Active; 'I' for Inactive)
REMARK    1  A    between atoms: S_1  and  O_3
REMARK    2  A    between atoms: O_3  and  C_18
REMARK    3  A    between atoms: O_4  and  C_20
REMARK    4  A    between atoms: O_4  and  C_22
REMARK    5  A    between atoms: O_15  and  C_36
REMARK    6  A    between atoms: C_19  and  C_21
REMARK    7  A    between atoms: C_29  and  C_31
REMARK                            x       y       z     vdW  Elec       q    Type
REMARK                         _______ _______ _______ _____ _____    ______ ____
ROOT
ATOM      1  O   UNL     1     104.784 124.639 147.014  0.00  0.00    +0.000 OA
ATOM      2  O   UNL     1     107.554 125.262 146.527  0.00  0.00    +0.000 OA
ATOM      3  O   UNL     1     106.616 125.044 149.218  0.00  0.00    +0.000 OA
ATOM      4  O   UNL     1     105.236 124.733 149.505  0.00  0.00    +0.000 OA
ATOM      5  C   UNL     1     106.183 124.953 146.783  0.00  0.00    +0.000 A 
ATOM      6  C   UNL     1     105.569 124.814 147.317  0.00  0.00    +0.000 A 
ATOM      7  C   UNL     1     106.940 125.123 147.061  0.00  0.00    +0.000 A 
ATOM      8  C   UNL     1     105.713 124.844 148.128  0.00  0.00    +0.000 A 
ATOM      9  C   UNL     1     107.085 125.153 147.872  0.00  0.00    +0.000 A 
ATOM     10  C   UNL     1     106.472 125.014 148.406  0.00  0.00    +0.000 A 
ATOM     11  C   UNL     1     105.083 124.701 148.695  0.00  0.00    +0.000 A 
ATOM     12  C   UNL     1     104.140 124.493 147.565  0.00  0.00    +0.000 A 
ATOM     13  C   UNL     1     104.291 124.524 148.411  0.00  0.00    +0.000 A 
ENDROOT
BRANCH  12  14
ATOM     14  C   UNL     1     103.383 124.323 147.284  0.00  0.00    +0.000 A 
ATOM     15  C   UNL     1     103.217 123.580 146.968  0.00  0.00    +0.000 A 
ATOM     16  C   UNL     1     102.792 124.898 147.319  0.00  0.00    +0.000 A 
ATOM     17  C   UNL     1     102.460 123.410 146.688  0.00  0.00    +0.000 A 
ATOM     18  C   UNL     1     102.036 124.730 147.039  0.00  0.00    +0.000 A 
ATOM     19  C   UNL     1     101.869 123.985 146.723  0.00  0.00    +0.000 A 
BRANCH  19  20
ATOM     20  O   UNL     1     101.112 123.817 146.443  0.00  0.00    +0.000 OA
ATOM     21  C   UNL     1     101.017 123.375 145.753  0.00  0.00    +0.000 C 
ENDBRANCH  19  20
ENDBRANCH  12  14
BRANCH   5  22
ATOM     22  O   UNL     1     106.038 124.923 145.971  0.00  0.00    +0.000 OA
BRANCH  22  30
ATOM     23  O   UNL     1     105.789 126.330 145.928  0.00  0.00    +0.000 OA
ATOM     24  O   UNL     1     106.065 126.304 143.469  0.00  0.00    +0.000 OA
ATOM     25  O   UNL     1     105.724 127.718 144.246  0.00  0.00    +0.000 OA
ATOM     26  C   UNL     1     105.973 126.312 144.289  0.00  0.00    +0.000 C 
ATOM     27  C   UNL     1     105.803 127.020 144.677  0.00  0.00    +0.000 C 
ATOM     28  C   UNL     1     106.052 125.613 144.720  0.00  0.00    +0.000 C 
ATOM     29  C   UNL     1     105.711 127.028 145.498  0.00  0.00    +0.000 C 
ATOM     30  C   UNL     1     105.960 125.622 145.540  0.00  0.00    +0.000 C 
BRANCH  29  32
ATOM     31  O   UNL     1     104.850 127.805 146.333  0.00  0.00    +0.000 OA
ATOM     32  C   UNL     1     105.540 127.735 145.886  0.00  0.00    +0.000 C 
ENDBRANCH  29  32
BRANCH  28  33
ATOM     33  O   UNL     1     106.222 124.906 144.332  0.00  0.00    +0.000 OA
BRANCH  33  34
ATOM     34  S   UNL     1     105.793 124.690 143.661  0.00  0.00    +0.000 S 
ATOM     35  O   UNL     1     105.363 124.473 142.991  0.00  0.00    +0.000 OA
ATOM     36  O   UNL     1     105.124 124.568 144.129  0.00  0.00    +0.000 OA
ATOM     37  O   UNL     1     106.461 124.811 143.194  0.00  0.00    +0.000 OA
ENDBRANCH  33  34
ENDBRANCH  28  33
ENDBRANCH  22  30
ENDBRANCH   5  22
TORSDOF 7
ENDMDL
MODEL 2
REMARK VINA RESULT:      -9.2     10.997     12.516
REMARK  Name = 74977917
REMARK  7 active torsions:
REMARK  status: ('A' for Active; 'I' for Inactive)
REMARK    1  A    between atoms: S_1  and  O_3
REMARK    2  A    between atoms: O_3  and  C_18
REMARK    3  A    between atoms: O_4  and  C_20
REMARK    4  A    between atoms: O_4  and  C_22
REMARK    5  A    between atoms: O_15  and  C_36
REMARK    6  A    between atoms: C_19  and  C_21
REMARK    7  A    between atoms: C_29  and  C_31
REMARK                            x       y       z     vdW  Elec       q    Type
REMARK                         _______ _______ _______ _____ _____    ______ ____
ROOT
ATOM      1  O   UNL     1     110.581 127.420 135.998  0.00  0.00    +0.000 OA
ATOM      2  O   UNL     1     110.495 130.247 135.449  0.00  0.00    +0.000 OA
ATOM      3  O   UNL     1     108.049 128.799 135.744  0.00  0.00    +0.000 OA
ATOM      4  O   UNL     1     108.048 127.382 136.019  0.00  0.00    +0.000 OA
ATOM      5  C   UNL     1     110.523 128.844 135.722  0.00  0.00    +0.000 A 
ATOM      6  C   UNL     1     110.124 128.135 135.862  0.00  0.00    +0.000 A 
ATOM      7  C   UNL     1     110.096 129.538 135.589  0.00  0.00    +0.000 A 
ATOM      8  C   UNL     1     109.301 128.120 135.869  0.00  0.00    +0.000 A 
ATOM      9  C   UNL     1     109.272 129.523 135.597  0.00  0.00    +0.000 A 
ATOM     10  C   UNL     1     108.874 128.814 135.736  0.00  0.00    +0.000 A 
ATOM     11  C   UNL     1     108.873 127.389 136.013  0.00  0.00    +0.000 A 
ATOM     12  C   UNL     1     110.172 126.678 136.144  0.00  0.00    +0.000 A 
ATOM     13  C   UNL     1     109.312 126.662 136.152  0.00  0.00    +0.000 A 
ENDROOT
BRANCH  12  14
ATOM     14  C   UNL     1     110.601 125.986 136.277  0.00  0.00    +0.000 A 
ATOM     15  C   UNL     1     110.803 125.767 137.046  0.00  0.00    +0.000 A 
ATOM     16  C   UNL     1     110.827 125.513 135.640  0.00  0.00    +0.000 A 
ATOM     17  C   UNL     1     111.232 125.074 137.178  0.00  0.00    +0.000 A 
ATOM     18  C   UNL     1     111.255 124.821 135.771  0.00  0.00    +0.000 A 
ATOM     19  C   UNL     1     111.458 124.601 136.541  0.00  0.00    +0.000 A 
BRANCH  19  20
ATOM     20  O   UNL     1     111.887 123.909 136.672  0.00  0.00    +0.000 OA
ATOM     21  C   UNL     1     112.712 123.931 136.676  0.00  0.00    +0.000 C 
ENDBRANCH  19  20
ENDBRANCH  12  14
BRANCH   5  22
ATOM     22  O   UNL     1     111.348 128.860 135.714  0.00  0.00    +0.000 OA
BRANCH  22  30
ATOM     23  O   UNL     1     111.394 129.215 137.097  0.00  0.00    +0.000 OA
ATOM     24  O   UNL     1     113.732 129.980 136.823  0.00  0.00    +0.000 OA
ATOM     25  O   UNL     1     112.999 130.080 138.297  0.00  0.00    +0.000 OA
ATOM     26  C   UNL     1     112.953 129.725 136.914  0.00  0.00    +0.000 C 
ATOM     27  C   UNL     1     112.587 129.775 137.651  0.00  0.00    +0.000 C 
ATOM     28  C   UNL     1     112.541 129.420 136.268  0.00  0.00    +0.000 C 
ATOM     29  C   UNL     1     111.807 129.520 137.743  0.00  0.00    +0.000 C 
ATOM     30  C   UNL     1     111.760 129.165 136.360  0.00  0.00    +0.000 C 
BRANCH  29  32
ATOM     31  O   UNL     1     111.197 128.885 138.868  0.00  0.00    +0.000 OA
ATOM     32  C   UNL     1     111.440 129.571 138.480  0.00  0.00    +0.000 C 
ENDBRANCH  29  32
BRANCH  28  33
ATOM     33  O   UNL     1     112.907 129.369 135.531  0.00  0.00    +0.000 OA
BRANCH  33  34
ATOM     34  S   UNL     1     113.659 129.037 135.466  0.00  0.00    +0.000 S 
ATOM     35  O   UNL     1     114.411 128.705 135.402  0.00  0.00    +0.000 OA
ATOM     36  O   UNL     1     113.352 128.300 135.673  0.00  0.00    +0.000 OA
ATOM     37  O   UNL     1     113.967 129.774 135.260  0.00  0.00    +0.000 OA
ENDBRANCH  33  34
ENDBRANCH  28  33
ENDBRANCH  22  30
ENDBRANCH   5  22
TORSDOF 7
ENDMDL
MODEL 3
REMARK VINA RESULT:      -9.2      9.516     12.529
REMARK  Name = 74977917
REMARK  7 active torsions:
REMARK  status: ('A' for Active; 'I' for Inactive)
REMARK    1  A    between atoms: S_1  and  O_3
REMARK    2  A    between atoms: O_3  and  C_18
REMARK    3  A    between atoms: O_4  and  C_20
REMARK    4  A    between atoms: O_4  and  C_22
REMARK    5  A    between atoms: O_15  and  C_36
REMARK    6  A    between atoms: C_19  and  C_21
REMARK    7  A    between atoms: C_29  and  C_31
REMARK                            x       y       z     vdW  Elec       q    Type
REMARK                         _______ _______ _______ _____ _____    ______ ____
ROOT
ATOM      1  O   UNL     1     112.637 126.750 136.419  0.00  0.00    +0.000 OA
ATOM      2  O   UNL     1     111.065 124.338 136.310  0.00  0.00    +0.000 OA
ATOM      3  O   UNL     1     113.891 124.155 136.690  0.00  0.00    +0.000 OA
ATOM      4  O   UNL     1     114.715 125.339 136.750  0.00  0.00    +0.000 OA
ATOM      5  C   UNL     1     111.857 125.526 136.366  0.00  0.00    +0.000 A 
ATOM      6  C   UNL     1     112.592 125.892 136.448  0.00  0.00    +0.000 A 
ATOM      7  C   UNL     1     111.801 124.704 136.392  0.00  0.00    +0.000 A 
ATOM      8  C   UNL     1     113.270 125.436 136.556  0.00  0.00    +0.000 A 
ATOM      9  C   UNL     1     112.478 124.247 136.500  0.00  0.00    +0.000 A 
ATOM     10  C   UNL     1     113.213 124.612 136.582  0.00  0.00    +0.000 A 
ATOM     11  C   UNL     1     114.042 125.804 136.643  0.00  0.00    +0.000 A 
ATOM     12  C   UNL     1     113.400 127.137 136.504  0.00  0.00    +0.000 A 
ATOM     13  C   UNL     1     114.107 126.661 136.616  0.00  0.00    +0.000 A 
ENDROOT
BRANCH  12  14
ATOM     14  C   UNL     1     113.454 127.960 136.478  0.00  0.00    +0.000 A 
ATOM     15  C   UNL     1     113.628 128.339 135.766  0.00  0.00    +0.000 A 
ATOM     16  C   UNL     1     113.334 128.403 137.163  0.00  0.00    +0.000 A 
ATOM     17  C   UNL     1     113.682 129.162 135.740  0.00  0.00    +0.000 A 
ATOM     18  C   UNL     1     113.388 129.225 137.137  0.00  0.00    +0.000 A 
ATOM     19  C   UNL     1     113.562 129.605 136.425  0.00  0.00    +0.000 A 
BRANCH  19  20
ATOM     20  O   UNL     1     113.615 130.428 136.400  0.00  0.00    +0.000 OA
ATOM     21  C   UNL     1     114.354 130.793 136.434  0.00  0.00    +0.000 C 
ENDBRANCH  19  20
ENDBRANCH  12  14
BRANCH   5  22
ATOM     22  O   UNL     1     111.178 125.984 136.258  0.00  0.00    +0.000 OA
BRANCH  22  30
ATOM     23  O   UNL     1     110.912 125.965 137.662  0.00  0.00    +0.000 OA
ATOM     24  O   UNL     1     108.620 126.796 137.239  0.00  0.00    +0.000 OA
ATOM     25  O   UNL     1     109.118 126.500 138.783  0.00  0.00    +0.000 OA
ATOM     26  C   UNL     1     109.384 126.519 137.380  0.00  0.00    +0.000 C 
ATOM     27  C   UNL     1     109.633 126.371 138.152  0.00  0.00    +0.000 C 
ATOM     28  C   UNL     1     109.899 126.390 136.748  0.00  0.00    +0.000 C 
ATOM     29  C   UNL     1     110.398 126.094 138.293  0.00  0.00    +0.000 C 
ATOM     30  C   UNL     1     110.664 126.113 136.889  0.00  0.00    +0.000 C 
BRANCH  29  32
ATOM     31  O   UNL     1     111.268 126.381 139.390  0.00  0.00    +0.000 OA
ATOM     32  C   UNL     1     110.646 125.946 139.065  0.00  0.00    +0.000 C 
ENDBRANCH  29  32
BRANCH  28  33
ATOM     33  O   UNL     1     109.650 126.538 135.976  0.00  0.00    +0.000 OA
BRANCH  33  34
ATOM     34  S   UNL     1     109.244 127.234 135.800  0.00  0.00    +0.000 S 
ATOM     35  O   UNL     1     108.838 127.931 135.624  0.00  0.00    +0.000 OA
ATOM     36  O   UNL     1     109.936 127.668 135.918  0.00  0.00    +0.000 OA
ATOM     37  O   UNL     1     108.552 126.801 135.682  0.00  0.00    +0.000 OA
ENDBRANCH  33  34
ENDBRANCH  28  33
ENDBRANCH  22  30
ENDBRANCH   5  22
TORSDOF 7
ENDMDL
MODEL 4
REMARK VINA RESULT:      -8.9     11.012     12.400
REMARK  Name = 74977917
REMARK  7 active torsions:
REMARK  status: ('A' for Active; 'I' for Inactive)
REMARK    1  A    between atoms: S_1  and  O_3
REMARK    2  A    between atoms: O_3  and  C_18
REMARK    3  A    between atoms: O_4  and  C_20
REMARK    4  A    between atoms: O_4  and  C_22
REMARK    5  A    between atoms: O_15  and  C_36
REMARK    6  A    between atoms: C_19  and  C_21
REMARK    7  A    between atoms: C_29  and  C_31
REMARK                            x       y       z     vdW  Elec       q    Type
REMARK                         _______ _______ _______ _____ _____    ______ ____
ROOT
ATOM      1  O   UNL     1     112.031 125.782 136.319  0.00  0.00    +0.000 OA
ATOM      2  O   UNL     1     114.865 125.743 136.837  0.00  0.00    +0.000 OA
ATOM      3  O   UNL     1     113.356 123.331 137.102  0.00  0.00    +0.000 OA
ATOM      4  O   UNL     1     111.935 123.308 136.851  0.00  0.00    +0.000 OA
ATOM      5  C   UNL     1     113.459 125.749 136.583  0.00  0.00    +0.000 A 
ATOM      6  C   UNL     1     112.738 125.348 136.542  0.00  0.00    +0.000 A 
ATOM      7  C   UNL     1     114.144 125.343 136.797  0.00  0.00    +0.000 A 
ATOM      8  C   UNL     1     112.704 124.543 136.715  0.00  0.00    +0.000 A 
ATOM      9  C   UNL     1     114.110 124.538 136.969  0.00  0.00    +0.000 A 
ATOM     10  C   UNL     1     113.390 124.137 136.929  0.00  0.00    +0.000 A 
ATOM     11  C   UNL     1     111.960 124.114 136.677  0.00  0.00    +0.000 A 
ATOM     12  C   UNL     1     111.278 125.371 136.274  0.00  0.00    +0.000 A 
ATOM     13  C   UNL     1     111.242 124.531 136.455  0.00  0.00    +0.000 A 
ENDROOT
BRANCH  12  14
ATOM     14  C   UNL     1     110.593 125.779 136.061  0.00  0.00    +0.000 A 
ATOM     15  C   UNL     1     110.149 126.170 136.636  0.00  0.00    +0.000 A 
ATOM     16  C   UNL     1     110.353 125.796 135.272  0.00  0.00    +0.000 A 
ATOM     17  C   UNL     1     109.465 126.578 136.422  0.00  0.00    +0.000 A 
ATOM     18  C   UNL     1     109.669 126.203 135.058  0.00  0.00    +0.000 A 
ATOM     19  C   UNL     1     109.225 126.595 135.633  0.00  0.00    +0.000 A 
BRANCH  19  20
ATOM     20  O   UNL     1     108.541 127.002 135.418  0.00  0.00    +0.000 OA
ATOM     21  C   UNL     1     108.434 127.784 135.661  0.00  0.00    +0.000 C 
ENDBRANCH  19  20
ENDBRANCH  12  14
BRANCH   5  22
ATOM     22  O   UNL     1     113.493 126.555 136.410  0.00  0.00    +0.000 OA
BRANCH  22  30
ATOM     23  O   UNL     1     113.439 126.876 137.801  0.00  0.00    +0.000 OA
ATOM     24  O   UNL     1     112.995 129.245 137.236  0.00  0.00    +0.000 OA
ATOM     25  O   UNL     1     113.088 128.777 138.815  0.00  0.00    +0.000 OA
ATOM     26  C   UNL     1     113.143 128.455 137.425  0.00  0.00    +0.000 C 
ATOM     27  C   UNL     1     113.189 128.222 138.214  0.00  0.00    +0.000 C 
ATOM     28  C   UNL     1     113.244 127.900 136.823  0.00  0.00    +0.000 C 
ATOM     29  C   UNL     1     113.337 127.431 138.402  0.00  0.00    +0.000 C 
ATOM     30  C   UNL     1     113.392 127.110 137.011  0.00  0.00    +0.000 C 
BRANCH  29  32
ATOM     31  O   UNL     1     112.797 126.717 139.516  0.00  0.00    +0.000 OA
ATOM     32  C   UNL     1     113.384 127.198 139.192  0.00  0.00    +0.000 C 
ENDBRANCH  29  32
BRANCH  28  33
ATOM     33  O   UNL     1     113.197 128.134 136.033  0.00  0.00    +0.000 OA
BRANCH  33  34
ATOM     34  S   UNL     1     113.573 128.824 135.785  0.00  0.00    +0.000 S 
ATOM     35  O   UNL     1     113.950 129.515 135.536  0.00  0.00    +0.000 OA
ATOM     36  O   UNL     1     114.306 128.455 135.868  0.00  0.00    +0.000 OA
ATOM     37  O   UNL     1     112.840 129.194 135.701  0.00  0.00    +0.000 OA
ENDBRANCH  33  34
ENDBRANCH  28  33
ENDBRANCH  22  30
ENDBRANCH   5  22
TORSDOF 7
ENDMDL
MODEL 5
REMARK VINA RESULT:      -8.9      9.565     11.502
REMARK  Name = 74977917
REMARK  7 active torsions:
REMARK  status: ('A' for Active; 'I' for Inactive)
REMARK    1  A    between atoms: S_1  and  O_3
REMARK    2  A    between atoms: O_3  and  C_18
REMARK    3  A    between atoms: O_4  and  C_20
REMARK    4  A    between atoms: O_4  and  C_22
REMARK    5  A    between atoms: O_15  and  C_36
REMARK    6  A    between atoms: C_19  and  C_21
REMARK    7  A    between atoms: C_29  and  C_31
REMARK                            x       y       z     vdW  Elec       q    Type
REMARK                         _______ _______ _______ _____ _____    ______ ____
ROOT
ATOM      1  O   UNL     1     112.748 126.074 138.477  0.00  0.00    +0.000 OA
ATOM      2  O   UNL     1     111.170 124.425 136.719  0.00  0.00    +0.000 OA
ATOM      3  O   UNL     1     114.020 124.224 136.649  0.00  0.00    +0.000 OA
ATOM      4  O   UNL     1     114.847 125.032 137.513  0.00  0.00    +0.000 OA
ATOM      5  C   UNL     1     111.965 125.237 137.585  0.00  0.00    +0.000 A 
ATOM      6  C   UNL     1     112.706 125.474 137.863  0.00  0.00    +0.000 A 
ATOM      7  C   UNL     1     111.911 124.662 136.996  0.00  0.00    +0.000 A 
ATOM      8  C   UNL     1     113.390 125.137 137.551  0.00  0.00    +0.000 A 
ATOM      9  C   UNL     1     112.595 124.325 136.684  0.00  0.00    +0.000 A 
ATOM     10  C   UNL     1     113.335 124.562 136.961  0.00  0.00    +0.000 A 
ATOM     11  C   UNL     1     114.167 125.375 137.831  0.00  0.00    +0.000 A 
ATOM     12  C   UNL     1     113.517 126.325 138.770  0.00  0.00    +0.000 A 
ATOM     13  C   UNL     1     114.231 125.974 138.445  0.00  0.00    +0.000 A 
ENDROOT
BRANCH  12  14
ATOM     14  C   UNL     1     113.569 126.900 139.360  0.00  0.00    +0.000 A 
ATOM     15  C   UNL     1     113.680 126.676 140.146  0.00  0.00    +0.000 A 
ATOM     16  C   UNL     1     113.509 127.699 139.163  0.00  0.00    +0.000 A 
ATOM     17  C   UNL     1     113.732 127.251 140.735  0.00  0.00    +0.000 A 
ATOM     18  C   UNL     1     113.561 128.274 139.751  0.00  0.00    +0.000 A 
ATOM     19  C   UNL     1     113.673 128.050 140.538  0.00  0.00    +0.000 A 
BRANCH  19  20
ATOM     20  O   UNL     1     113.724 128.626 141.126  0.00  0.00    +0.000 OA
ATOM     21  C   UNL     1     113.059 129.070 141.327  0.00  0.00    +0.000 C 
ENDBRANCH  19  20
ENDBRANCH  12  14
BRANCH   5  22
ATOM     22  O   UNL     1     111.280 125.574 137.898  0.00  0.00    +0.000 OA
BRANCH  22  30
ATOM     23  O   UNL     1     111.240 126.532 136.837  0.00  0.00    +0.000 OA
ATOM     24  O   UNL     1     108.917 127.120 137.456  0.00  0.00    +0.000 OA
ATOM     25  O   UNL     1     109.651 127.880 136.190  0.00  0.00    +0.000 OA
ATOM     26  C   UNL     1     109.691 126.924 137.250  0.00  0.00    +0.000 C 
ATOM     27  C   UNL     1     110.058 127.304 136.617  0.00  0.00    +0.000 C 
ATOM     28  C   UNL     1     110.098 126.347 137.677  0.00  0.00    +0.000 C 
ATOM     29  C   UNL     1     110.833 127.108 136.411  0.00  0.00    +0.000 C 
ATOM     30  C   UNL     1     110.873 126.151 137.471  0.00  0.00    +0.000 C 
BRANCH  29  32
ATOM     31  O   UNL     1     111.859 127.967 135.909  0.00  0.00    +0.000 OA
ATOM     32  C   UNL     1     111.200 127.488 135.778  0.00  0.00    +0.000 C 
ENDBRANCH  29  32
BRANCH  28  33
ATOM     33  O   UNL     1     109.731 125.967 138.310  0.00  0.00    +0.000 OA
BRANCH  33  34
ATOM     34  S   UNL     1     109.356 126.410 138.896  0.00  0.00    +0.000 S 
ATOM     35  O   UNL     1     108.980 126.853 139.482  0.00  0.00    +0.000 OA
ATOM     36  O   UNL     1     108.624 126.129 138.639  0.00  0.00    +0.000 OA
ATOM     37  O   UNL     1     110.087 126.691 139.153  0.00  0.00    +0.000 OA
ENDBRANCH  33  34
ENDBRANCH  28  33
ENDBRANCH  22  30
ENDBRANCH   5  22
TORSDOF 7
ENDMDL
MODEL 6
REMARK VINA RESULT:      -8.8     10.600     13.588
REMARK  Name = 74977917
REMARK  7 active torsions:
REMARK  status: ('A' for Active; 'I' for Inactive)
REMARK    1  A    between atoms: S_1  and  O_3
REMARK    2  A    between atoms: O_3  and  C_18
REMARK    3  A    between atoms: O_4  and  C_20
REMARK    4  A    between atoms: O_4  and  C_22
REMARK    5  A    between atoms: O_15  and  C_36
REMARK    6  A    between atoms: C_19  and  C_21
REMARK    7  A    between atoms: C_29  and  C_31
REMARK                            x       y       z     vdW  Elec       q    Type
REMARK                         _______ _______ _______ _____ _____    ______ ____
ROOT
ATOM      1  O   UNL     1     112.392 128.066 135.520  0.00  0.00    +0.000 OA
ATOM      2  O   UNL     1     110.751 125.716 135.821  0.00  0.00    +0.000 OA
ATOM      3  O   UNL     1     109.592 128.115 134.786  0.00  0.00    +0.000 OA
ATOM      4  O   UNL     1     110.379 129.313 134.620  0.00  0.00    +0.000 OA
ATOM      5  C   UNL     1     111.553 126.889 135.666  0.00  0.00    +0.000 A 
ATOM      6  C   UNL     1     111.628 127.680 135.442  0.00  0.00    +0.000 A 
ATOM      7  C   UNL     1     110.825 126.508 135.597  0.00  0.00    +0.000 A 
ATOM      8  C   UNL     1     110.974 128.088 135.149  0.00  0.00    +0.000 A 
ATOM      9  C   UNL     1     110.172 126.916 135.304  0.00  0.00    +0.000 A 
ATOM     10  C   UNL     1     110.246 127.706 135.080  0.00  0.00    +0.000 A 
ATOM     11  C   UNL     1     111.038 128.912 134.912  0.00  0.00    +0.000 A 
ATOM     12  C   UNL     1     112.475 128.890 135.288  0.00  0.00    +0.000 A 
ATOM     13  C   UNL     1     111.794 129.316 134.982  0.00  0.00    +0.000 A 
ENDROOT
BRANCH  12  14
ATOM     14  C   UNL     1     113.205 129.269 135.359  0.00  0.00    +0.000 A 
ATOM     15  C   UNL     1     113.371 129.721 136.028  0.00  0.00    +0.000 A 
ATOM     16  C   UNL     1     113.767 129.196 134.760  0.00  0.00    +0.000 A 
ATOM     17  C   UNL     1     114.100 130.101 136.099  0.00  0.00    +0.000 A 
ATOM     18  C   UNL     1     114.496 129.575 134.829  0.00  0.00    +0.000 A 
ATOM     19  C   UNL     1     114.663 130.028 135.500  0.00  0.00    +0.000 A 
BRANCH  19  20
ATOM     20  O   UNL     1     115.392 130.407 135.569  0.00  0.00    +0.000 OA
ATOM     21  C   UNL     1     115.531 131.109 135.160  0.00  0.00    +0.000 C 
ENDBRANCH  19  20
ENDBRANCH  12  14
BRANCH   5  22
ATOM     22  O   UNL     1     112.207 126.480 135.960  0.00  0.00    +0.000 OA
BRANCH  22  30
ATOM     23  O   UNL     1     111.847 126.803 137.304  0.00  0.00    +0.000 OA
ATOM     24  O   UNL     1     113.368 125.036 138.136  0.00  0.00    +0.000 OA
ATOM     25  O   UNL     1     112.502 125.948 139.202  0.00  0.00    +0.000 OA
ATOM     26  C   UNL     1     112.861 125.625 137.859  0.00  0.00    +0.000 C 
ATOM     27  C   UNL     1     112.428 126.081 138.392  0.00  0.00    +0.000 C 
ATOM     28  C   UNL     1     112.788 125.758 137.048  0.00  0.00    +0.000 C 
ATOM     29  C   UNL     1     111.921 126.671 138.115  0.00  0.00    +0.000 C 
ATOM     30  C   UNL     1     112.281 126.348 136.770  0.00  0.00    +0.000 C 
BRANCH  29  32
ATOM     31  O   UNL     1     111.633 127.936 138.713  0.00  0.00    +0.000 OA
ATOM     32  C   UNL     1     111.488 127.126 138.648  0.00  0.00    +0.000 C 
ENDBRANCH  29  32
BRANCH  28  33
ATOM     33  O   UNL     1     113.221 125.302 136.514  0.00  0.00    +0.000 OA
BRANCH  33  34
ATOM     34  S   UNL     1     114.025 125.168 136.644  0.00  0.00    +0.000 S 
ATOM     35  O   UNL     1     114.828 125.034 136.774  0.00  0.00    +0.000 OA
ATOM     36  O   UNL     1     114.183 125.963 136.489  0.00  0.00    +0.000 OA
ATOM     37  O   UNL     1     113.867 124.373 136.798  0.00  0.00    +0.000 OA
ENDBRANCH  33  34
ENDBRANCH  28  33
ENDBRANCH  22  30
ENDBRANCH   5  22
TORSDOF 7
ENDMDL
MODEL 7
REMARK VINA RESULT:      -8.7      9.921     12.738
REMARK  Name = 74977917
REMARK  7 active torsions:
REMARK  status: ('A' for Active; 'I' for Inactive)
REMARK    1  A    between atoms: S_1  and  O_3
REMARK    2  A    between atoms: O_3  and  C_18
REMARK    3  A    between atoms: O_4  and  C_20
REMARK    4  A    between atoms: O_4  and  C_22
REMARK    5  A    between atoms: O_15  and  C_36
REMARK    6  A    between atoms: C_19  and  C_21
REMARK    7  A    between atoms: C_29  and  C_31
REMARK                            x       y       z     vdW  Elec       q    Type
REMARK                         _______ _______ _______ _____ _____    ______ ____
ROOT
ATOM      1  O   UNL     1     112.687 127.910 137.434  0.00  0.00    +0.000 OA
ATOM      2  O   UNL     1     111.927 125.821 139.266  0.00  0.00    +0.000 OA
ATOM      3  O   UNL     1     110.634 128.365 139.423  0.00  0.00    +0.000 OA
ATOM      4  O   UNL     1     110.985 129.438 138.524  0.00  0.00    +0.000 OA
ATOM      5  C   UNL     1     112.294 126.866 138.364  0.00  0.00    +0.000 A 
ATOM      6  C   UNL     1     112.201 127.639 138.089  0.00  0.00    +0.000 A 
ATOM      7  C   UNL     1     111.833 126.594 138.992  0.00  0.00    +0.000 A 
ATOM      8  C   UNL     1     111.648 128.138 138.442  0.00  0.00    +0.000 A 
ATOM      9  C   UNL     1     111.281 127.093 139.344  0.00  0.00    +0.000 A 
ATOM     10  C   UNL     1     111.187 127.865 139.070  0.00  0.00    +0.000 A 
ATOM     11  C   UNL     1     111.541 128.945 138.165  0.00  0.00    +0.000 A 
ATOM     12  C   UNL     1     112.595 128.714 137.143  0.00  0.00    +0.000 A 
ATOM     13  C   UNL     1     112.018 129.235 137.511  0.00  0.00    +0.000 A 
ENDROOT
BRANCH  12  14
ATOM     14  C   UNL     1     113.056 128.984 136.515  0.00  0.00    +0.000 A 
ATOM     15  C   UNL     1     113.766 129.377 136.664  0.00  0.00    +0.000 A 
ATOM     16  C   UNL     1     112.808 128.862 135.738  0.00  0.00    +0.000 A 
ATOM     17  C   UNL     1     114.228 129.647 136.036  0.00  0.00    +0.000 A 
ATOM     18  C   UNL     1     113.269 129.131 135.110  0.00  0.00    +0.000 A 
ATOM     19  C   UNL     1     113.980 129.525 135.259  0.00  0.00    +0.000 A 
BRANCH  19  20
ATOM     20  O   UNL     1     114.440 129.794 134.630  0.00  0.00    +0.000 OA
ATOM     21  C   UNL     1     115.168 130.154 134.778  0.00  0.00    +0.000 C 
ENDBRANCH  19  20
ENDBRANCH  12  14
BRANCH   5  22
ATOM     22  O   UNL     1     112.847 126.366 138.011  0.00  0.00    +0.000 OA
BRANCH  22  30
ATOM     23  O   UNL     1     111.847 125.805 137.158  0.00  0.00    +0.000 OA
ATOM     24  O   UNL     1     113.343 123.897 136.660  0.00  0.00    +0.000 OA
ATOM     25  O   UNL     1     111.845 123.971 135.975  0.00  0.00    +0.000 OA
ATOM     26  C   UNL     1     112.845 124.533 136.826  0.00  0.00    +0.000 C 
ATOM     27  C   UNL     1     112.096 124.570 136.483  0.00  0.00    +0.000 C 
ATOM     28  C   UNL     1     113.096 125.132 137.336  0.00  0.00    +0.000 C 
ATOM     29  C   UNL     1     111.597 125.206 136.650  0.00  0.00    +0.000 C 
ATOM     30  C   UNL     1     112.597 125.768 137.502  0.00  0.00    +0.000 C 
BRANCH  29  32
ATOM     31  O   UNL     1     110.665 125.850 135.778  0.00  0.00    +0.000 OA
ATOM     32  C   UNL     1     110.848 125.243 136.307  0.00  0.00    +0.000 C 
ENDBRANCH  29  32
BRANCH  28  33
ATOM     33  O   UNL     1     113.845 125.095 137.679  0.00  0.00    +0.000 OA
BRANCH  33  34
ATOM     34  S   UNL     1     114.508 124.961 137.207  0.00  0.00    +0.000 S 
ATOM     35  O   UNL     1     115.172 124.828 136.735  0.00  0.00    +0.000 OA
ATOM     36  O   UNL     1     114.618 124.228 137.568  0.00  0.00    +0.000 OA
ATOM     37  O   UNL     1     114.399 125.695 136.845  0.00  0.00    +0.000 OA
ENDBRANCH  33  34
ENDBRANCH  28  33
ENDBRANCH  22  30
ENDBRANCH   5  22
TORSDOF 7
ENDMDL
MODEL 8
REMARK VINA RESULT:      -8.7     10.558     12.391
REMARK  Name = 74977917
REMARK  7 active torsions:
REMARK  status: ('A' for Active; 'I' for Inactive)
REMARK    1  A    between atoms: S_1  and  O_3
REMARK    2  A    between atoms: O_3  and  C_18
REMARK    3  A    between atoms: O_4  and  C_20
REMARK    4  A    between atoms: O_4  and  C_22
REMARK    5  A    between atoms: O_15  and  C_36
REMARK    6  A    between atoms: C_19  and  C_21
REMARK    7  A    between atoms: C_29  and  C_31
REMARK                            x       y       z     vdW  Elec       q    Type
REMARK                         _______ _______ _______ _____ _____    ______ ____
ROOT
ATOM      1  O   UNL     1     112.234 127.944 136.900  0.00  0.00    +0.000 OA
ATOM      2  O   UNL     1     111.845 130.796 137.019  0.00  0.00    +0.000 OA
ATOM      3  O   UNL     1     114.155 129.748 135.702  0.00  0.00    +0.000 OA
ATOM      4  O   UNL     1     114.387 128.326 135.621  0.00  0.00    +0.000 OA
ATOM      5  C   UNL     1     112.050 129.383 136.952  0.00  0.00    +0.000 A 
ATOM      6  C   UNL     1     112.504 128.737 136.711  0.00  0.00    +0.000 A 
ATOM      7  C   UNL     1     112.299 130.150 136.777  0.00  0.00    +0.000 A 
ATOM      8  C   UNL     1     113.205 128.859 136.294  0.00  0.00    +0.000 A 
ATOM      9  C   UNL     1     113.000 130.271 136.361  0.00  0.00    +0.000 A 
ATOM     10  C   UNL     1     113.453 129.626 136.119  0.00  0.00    +0.000 A 
ATOM     11  C   UNL     1     113.686 128.195 136.037  0.00  0.00    +0.000 A 
ATOM     12  C   UNL     1     112.702 127.267 136.651  0.00  0.00    +0.000 A 
ATOM     13  C   UNL     1     113.433 127.393 136.216  0.00  0.00    +0.000 A 
ENDROOT
BRANCH  12  14
ATOM     14  C   UNL     1     112.451 126.501 136.827  0.00  0.00    +0.000 A 
ATOM     15  C   UNL     1     112.652 126.158 137.550  0.00  0.00    +0.000 A 
ATOM     16  C   UNL     1     112.000 126.078 136.281  0.00  0.00    +0.000 A 
ATOM     17  C   UNL     1     112.401 125.392 137.727  0.00  0.00    +0.000 A 
ATOM     18  C   UNL     1     111.750 125.313 136.457  0.00  0.00    +0.000 A 
ATOM     19  C   UNL     1     111.950 124.969 137.180  0.00  0.00    +0.000 A 
BRANCH  19  20
ATOM     20  O   UNL     1     111.699 124.203 137.355  0.00  0.00    +0.000 OA
ATOM     21  C   UNL     1     112.084 123.557 137.017  0.00  0.00    +0.000 C 
ENDBRANCH  19  20
ENDBRANCH  12  14
BRANCH   5  22
ATOM     22  O   UNL     1     111.349 129.262 137.369  0.00  0.00    +0.000 OA
BRANCH  22  30
ATOM     23  O   UNL     1     110.576 129.255 136.167  0.00  0.00    +0.000 OA
ATOM     24  O   UNL     1     108.535 129.753 137.475  0.00  0.00    +0.000 OA
ATOM     25  O   UNL     1     108.444 129.580 135.838  0.00  0.00    +0.000 OA
ATOM     26  C   UNL     1     109.215 129.587 137.039  0.00  0.00    +0.000 C 
ATOM     27  C   UNL     1     109.169 129.501 136.220  0.00  0.00    +0.000 C 
ATOM     28  C   UNL     1     109.942 129.508 137.423  0.00  0.00    +0.000 C 
ATOM     29  C   UNL     1     109.851 129.334 135.784  0.00  0.00    +0.000 C 
ATOM     30  C   UNL     1     110.623 129.341 136.986  0.00  0.00    +0.000 C 
BRANCH  29  32
ATOM     31  O   UNL     1     109.976 128.520 134.616  0.00  0.00    +0.000 OA
ATOM     32  C   UNL     1     109.804 129.248 134.965  0.00  0.00    +0.000 C 
ENDBRANCH  29  32
BRANCH  28  33
ATOM     33  O   UNL     1     109.988 129.594 138.241  0.00  0.00    +0.000 OA
BRANCH  33  34
ATOM     34  S   UNL     1     109.479 129.166 138.730  0.00  0.00    +0.000 S 
ATOM     35  O   UNL     1     108.970 128.739 139.219  0.00  0.00    +0.000 OA
ATOM     36  O   UNL     1     109.856 128.466 138.511  0.00  0.00    +0.000 OA
ATOM     37  O   UNL     1     109.102 129.867 138.950  0.00  0.00    +0.000 OA
ENDBRANCH  33  34
ENDBRANCH  28  33
ENDBRANCH  22  30
ENDBRANCH   5  22
TORSDOF 7
ENDMDL
MODEL 9
REMARK VINA RESULT:      -8.6      9.504     12.130
REMARK  Name = 74977917
REMARK  7 active torsions:
REMARK  status: ('A' for Active; 'I' for Inactive)
REMARK    1  A    between atoms: S_1  and  O_3
REMARK    2  A    between atoms: O_3  and  C_18
REMARK    3  A    between atoms: O_4  and  C_20
REMARK    4  A    between atoms: O_4  and  C_22
REMARK    5  A    between atoms: O_15  and  C_36
REMARK    6  A    between atoms: C_19  and  C_21
REMARK    7  A    between atoms: C_29  and  C_31
REMARK                            x       y       z     vdW  Elec       q    Type
REMARK                         _______ _______ _______ _____ _____    ______ ____
ROOT
ATOM      1  O   UNL     1     111.847 127.790 137.606  0.00  0.00    +0.000 OA
ATOM      2  O   UNL     1     109.488 126.392 138.490  0.00  0.00    +0.000 OA
ATOM      3  O   UNL     1     111.950 126.020 139.894  0.00  0.00    +0.000 OA
ATOM      4  O   UNL     1     113.154 126.702 139.483  0.00  0.00    +0.000 OA
ATOM      5  C   UNL     1     110.666 127.079 138.062  0.00  0.00    +0.000 A 
ATOM      6  C   UNL     1     111.469 127.247 138.154  0.00  0.00    +0.000 A 
ATOM      7  C   UNL     1     110.292 126.559 138.582  0.00  0.00    +0.000 A 
ATOM      8  C   UNL     1     111.897 126.894 138.763  0.00  0.00    +0.000 A 
ATOM      9  C   UNL     1     110.719 126.206 139.191  0.00  0.00    +0.000 A 
ATOM     10  C   UNL     1     111.522 126.373 139.283  0.00  0.00    +0.000 A 
ATOM     11  C   UNL     1     112.734 127.059 138.870  0.00  0.00    +0.000 A 
ATOM     12  C   UNL     1     112.684 127.969 137.695  0.00  0.00    +0.000 A 
ATOM     13  C   UNL     1     113.130 127.600 138.332  0.00  0.00    +0.000 A 
ENDROOT
BRANCH  12  14
ATOM     14  C   UNL     1     113.056 128.489 137.175  0.00  0.00    +0.000 A 
ATOM     15  C   UNL     1     113.053 129.300 137.329  0.00  0.00    +0.000 A 
ATOM     16  C   UNL     1     113.431 128.199 136.500  0.00  0.00    +0.000 A 
ATOM     17  C   UNL     1     113.425 129.820 136.809  0.00  0.00    +0.000 A 
ATOM     18  C   UNL     1     113.803 128.719 135.979  0.00  0.00    +0.000 A 
ATOM     19  C   UNL     1     113.800 129.530 136.133  0.00  0.00    +0.000 A 
BRANCH  19  20
ATOM     20  O   UNL     1     114.172 130.050 135.612  0.00  0.00    +0.000 OA
ATOM     21  C   UNL     1     114.949 130.289 135.754  0.00  0.00    +0.000 C 
ENDBRANCH  19  20
ENDBRANCH  12  14
BRANCH   5  22
ATOM     22  O   UNL     1     110.238 127.433 137.452  0.00  0.00    +0.000 OA
BRANCH  22  30
ATOM     23  O   UNL     1     110.487 126.326 136.582  0.00  0.00    +0.000 OA
ATOM     24  O   UNL     1     108.617 127.047 135.129  0.00  0.00    +0.000 OA
ATOM     25  O   UNL     1     109.489 125.701 134.745  0.00  0.00    +0.000 OA
ATOM     26  C   UNL     1     109.241 126.807 135.614  0.00  0.00    +0.000 C 
ATOM     27  C   UNL     1     109.676 126.134 135.421  0.00  0.00    +0.000 C 
ATOM     28  C   UNL     1     109.427 127.240 136.291  0.00  0.00    +0.000 C 
ATOM     29  C   UNL     1     110.300 125.893 135.906  0.00  0.00    +0.000 C 
ATOM     30  C   UNL     1     110.051 127.000 136.775  0.00  0.00    +0.000 C 
BRANCH  29  32
ATOM     31  O   UNL     1     111.551 125.274 135.599  0.00  0.00    +0.000 OA
ATOM     32  C   UNL     1     110.735 125.220 135.714  0.00  0.00    +0.000 C 
ENDBRANCH  29  32
BRANCH  28  33
ATOM     33  O   UNL     1     108.992 127.913 136.483  0.00  0.00    +0.000 OA
BRANCH  33  34
ATOM     34  S   UNL     1     108.868 128.500 135.917  0.00  0.00    +0.000 S 
ATOM     35  O   UNL     1     108.744 129.087 135.350  0.00  0.00    +0.000 OA
ATOM     36  O   UNL     1     109.669 128.696 135.945  0.00  0.00    +0.000 OA
ATOM     37  O   UNL     1     108.067 128.304 135.888  0.00  0.00    +0.000 OA
ENDBRANCH  33  34
ENDBRANCH  28  33
ENDBRANCH  22  30
ENDBRANCH   5  22
TORSDOF 7
ENDMDL
MODEL 10
REMARK VINA RESULT:      -8.6      8.740     11.535
REMARK  Name = 74977917
REMARK  7 active torsions:
REMARK  status: ('A' for Active; 'I' for Inactive)
REMARK    1  A    between atoms: S_1  and  O_3
REMARK    2  A    between atoms: O_3  and  C_18
REMARK    3  A    between atoms: O_4  and  C_20
REMARK    4  A    between atoms: O_4  and  C_22
REMARK    5  A    between atoms: O_15  and  C_36
REMARK    6  A    between atoms: C_19  and  C_21
REMARK    7  A    between atoms: C_29  and  C_31
REMARK                            x       y       z     vdW  Elec       q    Type
REMARK                         _______ _______ _______ _____ _____    ______ ____
ROOT
ATOM      1  O   UNL     1     112.613 127.105 137.596  0.00  0.00    +0.000 OA
ATOM      2  O   UNL     1     112.714 129.463 139.249  0.00  0.00    +0.000 OA
ATOM      3  O   UNL     1     113.688 129.587 136.565  0.00  0.00    +0.000 OA
ATOM      4  O   UNL     1     113.655 128.429 135.704  0.00  0.00    +0.000 OA
ATOM      5  C   UNL     1     112.670 128.301 138.418  0.00  0.00    +0.000 A 
ATOM      6  C   UNL     1     112.817 127.934 137.693  0.00  0.00    +0.000 A 
ATOM      7  C   UNL     1     112.862 129.096 138.524  0.00  0.00    +0.000 A 
ATOM      8  C   UNL     1     113.157 128.363 137.076  0.00  0.00    +0.000 A 
ATOM      9  C   UNL     1     113.201 129.524 137.907  0.00  0.00    +0.000 A 
ATOM     10  C   UNL     1     113.349 129.158 137.183  0.00  0.00    +0.000 A 
ATOM     11  C   UNL     1     113.316 127.993 136.317  0.00  0.00    +0.000 A 
ATOM     12  C   UNL     1     112.764 126.718 136.843  0.00  0.00    +0.000 A 
ATOM     13  C   UNL     1     113.118 127.165 136.199  0.00  0.00    +0.000 A 
ENDROOT
BRANCH  12  14
ATOM     14  C   UNL     1     112.571 125.922 136.739  0.00  0.00    +0.000 A 
ATOM     15  C   UNL     1     111.825 125.712 136.456  0.00  0.00    +0.000 A 
ATOM     16  C   UNL     1     113.124 125.337 136.919  0.00  0.00    +0.000 A 
ATOM     17  C   UNL     1     111.632 124.917 136.352  0.00  0.00    +0.000 A 
ATOM     18  C   UNL     1     112.932 124.542 136.816  0.00  0.00    +0.000 A 
ATOM     19  C   UNL     1     112.185 124.332 136.532  0.00  0.00    +0.000 A 
BRANCH  19  20
ATOM     20  O   UNL     1     111.993 123.536 136.428  0.00  0.00    +0.000 OA
ATOM     21  C   UNL     1     111.919 123.042 137.085  0.00  0.00    +0.000 C 
ENDBRANCH  19  20
ENDBRANCH  12  14
BRANCH   5  22
ATOM     22  O   UNL     1     112.330 127.872 139.036  0.00  0.00    +0.000 OA
BRANCH  22  30
ATOM     23  O   UNL     1     111.020 128.300 138.658  0.00  0.00    +0.000 OA
ATOM     24  O   UNL     1     110.155 127.605 140.870  0.00  0.00    +0.000 OA
ATOM     25  O   UNL     1     109.134 128.264 139.755  0.00  0.00    +0.000 OA
ATOM     26  C   UNL     1     110.443 127.837 140.133  0.00  0.00    +0.000 C 
ATOM     27  C   UNL     1     109.933 128.166 139.576  0.00  0.00    +0.000 C 
ATOM     28  C   UNL     1     111.243 127.738 139.954  0.00  0.00    +0.000 C 
ATOM     29  C   UNL     1     110.222 128.398 138.837  0.00  0.00    +0.000 C 
ATOM     30  C   UNL     1     111.532 127.970 139.215  0.00  0.00    +0.000 C 
BRANCH  29  32
ATOM     31  O   UNL     1     109.505 128.300 137.605  0.00  0.00    +0.000 OA
ATOM     32  C   UNL     1     109.711 128.727 138.280  0.00  0.00    +0.000 C 
ENDBRANCH  29  32
BRANCH  28  33
ATOM     33  O   UNL     1     111.753 127.409 140.511  0.00  0.00    +0.000 OA
BRANCH  33  34
ATOM     34  S   UNL     1     111.539 126.720 140.910  0.00  0.00    +0.000 S 
ATOM     35  O   UNL     1     111.324 126.030 141.309  0.00  0.00    +0.000 OA
ATOM     36  O   UNL     1     111.624 126.289 140.212  0.00  0.00    +0.000 OA
ATOM     37  O   UNL     1     111.453 127.151 141.608  0.00  0.00    +0.000 OA
ENDBRANCH  33  34
ENDBRANCH  28  33
ENDBRANCH  22  30
ENDBRANCH   5  22
TORSDOF 7
ENDMDL
