MODEL 1
REMARK VINA RESULT:     -10.1      0.000      0.000
REMARK  Name = 5748394
REMARK  11 active torsions:
REMARK  status: ('A' for Active; 'I' for Inactive)
REMARK    1  A    between atoms: O_1  and  C_20
REMARK    2  A    between atoms: O_1  and  C_23
REMARK    3  A    between atoms: O_4  and  C_24
REMARK    4  A    between atoms: O_4  and  C_37
REMARK    5  A    between atoms: O_11  and  C_36
REMARK    6  A    between atoms: O_11  and  C_42
REMARK    7  A    between atoms: O_19  and  C_55
REMARK    8  A    between atoms: C_35  and  C_38
REMARK    9  A    between atoms: C_39  and  C_47
REMARK   10  A    between atoms: C_44  and  C_48
REMARK   11  A    between atoms: C_48  and  C_49
REMARK                            x       y       z     vdW  Elec       q    Type
REMARK                         _______ _______ _______ _____ _____    ______ ____
ROOT
ATOM      1  O   UNL     1     111.337 128.666 138.666  0.00  0.00    +0.000 OA
ATOM      2  O   UNL     1     110.848 127.279 140.657  0.00  0.00    +0.000 OA
ATOM      3  O   UNL     1     111.736 126.243 140.190  0.00  0.00    +0.000 OA
ATOM      4  C   UNL     1     110.650 128.478 139.905  0.00  0.00    +0.000 A 
ATOM      5  C   UNL     1     110.813 128.940 139.241  0.00  0.00    +0.000 A 
ATOM      6  C   UNL     1     111.011 127.742 139.994  0.00  0.00    +0.000 A 
ATOM      7  C   UNL     1     111.535 127.467 139.419  0.00  0.00    +0.000 A 
ATOM      8  C   UNL     1     112.621 126.889 138.236  0.00  0.00    +0.000 A 
ATOM      9  C   UNL     1     111.698 127.929 138.755  0.00  0.00    +0.000 A 
ATOM     10  C   UNL     1     112.242 127.655 138.149  0.00  0.00    +0.000 A 
ATOM     11  C   UNL     1     111.904 126.699 139.523  0.00  0.00    +0.000 A 
ATOM     12  C   UNL     1     112.452 126.406 138.927  0.00  0.00    +0.000 A 
ENDROOT
BRANCH   5  13
ATOM     13  C   UNL     1     110.452 129.676 139.152  0.00  0.00    +0.000 A 
ATOM     14  C   UNL     1     109.705 129.730 138.807  0.00  0.00    +0.000 A 
ATOM     15  C   UNL     1     110.838 130.359 139.408  0.00  0.00    +0.000 A 
ATOM     16  C   UNL     1     109.343 130.467 138.717  0.00  0.00    +0.000 A 
ATOM     17  C   UNL     1     110.477 131.095 139.319  0.00  0.00    +0.000 A 
ATOM     18  C   UNL     1     109.730 131.149 138.974  0.00  0.00    +0.000 A 
BRANCH  18  19
ATOM     19  O   UNL     1     109.369 131.886 138.885  0.00  0.00    +0.000 OA
ATOM     20  C   UNL     1     109.417 132.284 138.163  0.00  0.00    +0.000 C 
ENDBRANCH  18  19
ENDBRANCH   5  13
BRANCH   4  21
ATOM     21  O   UNL     1     110.126 128.752 140.480  0.00  0.00    +0.000 OA
BRANCH  21  28
ATOM     22  O   UNL     1     111.129 129.046 141.454  0.00  0.00    +0.000 OA
ATOM     23  O   UNL     1     109.553 128.434 143.261  0.00  0.00    +0.000 OA
ATOM     24  O   UNL     1     111.081 128.932 143.633  0.00  0.00    +0.000 OA
ATOM     25  C   UNL     1     109.839 128.593 141.870  0.00  0.00    +0.000 C 
ATOM     26  C   UNL     1     110.078 128.638 142.659  0.00  0.00    +0.000 C 
ATOM     27  C   UNL     1     110.842 128.887 142.845  0.00  0.00    +0.000 C 
ATOM     28  C   UNL     1     110.364 128.797 141.268  0.00  0.00    +0.000 C 
ATOM     29  C   UNL     1     111.367 129.091 142.243  0.00  0.00    +0.000 C 
ATOM     30  C   UNL     1     112.132 129.340 142.429  0.00  0.00    +0.000 C 
BRANCH  25  31
ATOM     31  O   UNL     1     109.075 128.344 141.684  0.00  0.00    +0.000 OA
BRANCH  31  36
ATOM     32  O   UNL     1     108.575 129.647 141.991  0.00  0.00    +0.000 OA
ATOM     33  O   UNL     1     107.550 127.852 141.292  0.00  0.00    +0.000 OA
ATOM     34  O   UNL     1     106.288 128.910 141.402  0.00  0.00    +0.000 OA
ATOM     35  O   UNL     1     106.552 130.459 141.905  0.00  0.00    +0.000 OA
ATOM     36  C   UNL     1     108.444 128.873 141.739  0.00  0.00    +0.000 C 
ATOM     37  C   UNL     1     107.681 128.627 141.543  0.00  0.00    +0.000 C 
ATOM     38  C   UNL     1     107.050 129.156 141.598  0.00  0.00    +0.000 C 
ATOM     39  C   UNL     1     107.183 129.930 141.850  0.00  0.00    +0.000 C 
ATOM     40  C   UNL     1     107.945 130.176 142.046  0.00  0.00    +0.000 C 
ATOM     41  C   UNL     1     108.077 130.951 142.297  0.00  0.00    +0.000 C 
ENDBRANCH  31  36
ENDBRANCH  25  31
ENDBRANCH  21  28
ENDBRANCH   4  21
BRANCH   8  42
ATOM     42  O   UNL     1     113.145 126.617 137.659  0.00  0.00    +0.000 OA
BRANCH  42  51
ATOM     43  O   UNL     1     112.405 125.545 137.069  0.00  0.00    +0.000 OA
ATOM     44  O   UNL     1     114.379 124.067 137.280  0.00  0.00    +0.000 OA
ATOM     45  O   UNL     1     112.981 123.488 136.620  0.00  0.00    +0.000 OA
ATOM     46  O   UNL     1     114.460 125.631 137.799  0.00  0.00    +0.000 OA
ATOM     47  C   UNL     1     113.721 124.559 137.210  0.00  0.00    +0.000 C 
ATOM     48  C   UNL     1     113.022 124.270 136.880  0.00  0.00    +0.000 C 
ATOM     49  C   UNL     1     113.761 125.341 137.469  0.00  0.00    +0.000 C 
ATOM     50  C   UNL     1     112.364 124.763 136.809  0.00  0.00    +0.000 C 
ATOM     51  C   UNL     1     113.103 125.834 137.399  0.00  0.00    +0.000 C 
BRANCH  50  53
ATOM     52  O   UNL     1     111.194 124.967 136.014  0.00  0.00    +0.000 OA
ATOM     53  C   UNL     1     111.665 124.474 136.479  0.00  0.00    +0.000 C 
ENDBRANCH  50  53
ENDBRANCH  42  51
ENDBRANCH   8  42
BRANCH  10  54
ATOM     54  C   UNL     1     112.399 128.123 137.489  0.00  0.00    +0.000 C 
BRANCH  54  55
ATOM     55  C   UNL     1     113.055 128.624 137.485  0.00  0.00    +0.000 C 
ATOM     56  C   UNL     1     113.199 129.109 136.833  0.00  0.00    +0.000 C 
ATOM     57  C   UNL     1     113.855 129.610 136.830  0.00  0.00    +0.000 C 
ATOM     58  C   UNL     1     112.689 129.095 136.187  0.00  0.00    +0.000 C 
ENDBRANCH  54  55
ENDBRANCH  10  54
TORSDOF 11
ENDMDL
MODEL 2
REMARK VINA RESULT:     -10.0      2.463      6.143
REMARK  Name = 5748394
REMARK  11 active torsions:
REMARK  status: ('A' for Active; 'I' for Inactive)
REMARK    1  A    between atoms: O_1  and  C_20
REMARK    2  A    between atoms: O_1  and  C_23
REMARK    3  A    between atoms: O_4  and  C_24
REMARK    4  A    between atoms: O_4  and  C_37
REMARK    5  A    between atoms: O_11  and  C_36
REMARK    6  A    between atoms: O_11  and  C_42
REMARK    7  A    between atoms: O_19  and  C_55
REMARK    8  A    between atoms: C_35  and  C_38
REMARK    9  A    between atoms: C_39  and  C_47
REMARK   10  A    between atoms: C_44  and  C_48
REMARK   11  A    between atoms: C_48  and  C_49
REMARK                            x       y       z     vdW  Elec       q    Type
REMARK                         _______ _______ _______ _____ _____    ______ ____
ROOT
ATOM      1  O   UNL     1     112.545 129.624 139.389  0.00  0.00    +0.000 OA
ATOM      2  O   UNL     1     110.149 130.196 139.150  0.00  0.00    +0.000 OA
ATOM      3  O   UNL     1     110.139 130.825 140.449  0.00  0.00    +0.000 OA
ATOM      4  C   UNL     1     111.338 129.602 138.625  0.00  0.00    +0.000 A 
ATOM      5  C   UNL     1     112.136 129.411 138.705  0.00  0.00    +0.000 A 
ATOM      6  C   UNL     1     110.947 130.005 139.229  0.00  0.00    +0.000 A 
ATOM      7  C   UNL     1     111.356 130.218 139.914  0.00  0.00    +0.000 A 
ATOM      8  C   UNL     1     112.190 130.664 141.335  0.00  0.00    +0.000 A 
ATOM      9  C   UNL     1     112.155 130.028 139.994  0.00  0.00    +0.000 A 
ATOM     10  C   UNL     1     112.591 130.244 140.702  0.00  0.00    +0.000 A 
ATOM     11  C   UNL     1     110.938 130.638 140.536  0.00  0.00    +0.000 A 
ATOM     12  C   UNL     1     111.358 130.863 141.252  0.00  0.00    +0.000 A 
ENDROOT
BRANCH   5  13
ATOM     13  C   UNL     1     112.527 129.008 138.101  0.00  0.00    +0.000 A 
ATOM     14  C   UNL     1     112.507 128.184 138.075  0.00  0.00    +0.000 A 
ATOM     15  C   UNL     1     112.937 129.428 137.521  0.00  0.00    +0.000 A 
ATOM     16  C   UNL     1     112.898 127.780 137.470  0.00  0.00    +0.000 A 
ATOM     17  C   UNL     1     113.327 129.025 136.917  0.00  0.00    +0.000 A 
ATOM     18  C   UNL     1     113.307 128.201 136.892  0.00  0.00    +0.000 A 
BRANCH  18  19
ATOM     19  O   UNL     1     113.698 127.797 136.287  0.00  0.00    +0.000 OA
ATOM     20  C   UNL     1     113.542 126.997 136.158  0.00  0.00    +0.000 C 
ENDBRANCH  18  19
ENDBRANCH   5  13
BRANCH   4  21
ATOM     21  O   UNL     1     110.929 129.389 137.941  0.00  0.00    +0.000 OA
BRANCH  21  28
ATOM     22  O   UNL     1     110.857 130.717 137.418  0.00  0.00    +0.000 OA
ATOM     23  O   UNL     1     108.686 130.181 136.356  0.00  0.00    +0.000 OA
ATOM     24  O   UNL     1     109.338 131.687 136.187  0.00  0.00    +0.000 OA
ATOM     25  C   UNL     1     109.807 129.784 137.148  0.00  0.00    +0.000 C 
ATOM     26  C   UNL     1     109.410 130.360 136.710  0.00  0.00    +0.000 C 
ATOM     27  C   UNL     1     109.735 131.112 136.625  0.00  0.00    +0.000 C 
ATOM     28  C   UNL     1     110.531 129.963 137.502  0.00  0.00    +0.000 C 
ATOM     29  C   UNL     1     110.459 131.291 136.979  0.00  0.00    +0.000 C 
ATOM     30  C   UNL     1     110.785 132.045 136.894  0.00  0.00    +0.000 C 
BRANCH  25  31
ATOM     31  O   UNL     1     109.482 129.032 137.233  0.00  0.00    +0.000 OA
BRANCH  31  36
ATOM     32  O   UNL     1     109.936 128.686 135.923  0.00  0.00    +0.000 OA
ATOM     33  O   UNL     1     108.912 127.497 137.440  0.00  0.00    +0.000 OA
ATOM     34  O   UNL     1     109.081 126.385 136.233  0.00  0.00    +0.000 OA
ATOM     35  O   UNL     1     109.820 126.808 134.819  0.00  0.00    +0.000 OA
ATOM     36  C   UNL     1     109.567 128.476 136.630  0.00  0.00    +0.000 C 
ATOM     37  C   UNL     1     109.282 127.708 136.733  0.00  0.00    +0.000 C 
ATOM     38  C   UNL     1     109.366 127.152 136.129  0.00  0.00    +0.000 C 
ATOM     39  C   UNL     1     109.735 127.364 135.423  0.00  0.00    +0.000 C 
ATOM     40  C   UNL     1     110.020 128.130 135.319  0.00  0.00    +0.000 C 
ATOM     41  C   UNL     1     110.390 128.342 134.612  0.00  0.00    +0.000 C 
ENDBRANCH  31  36
ENDBRANCH  25  31
ENDBRANCH  21  28
ENDBRANCH   4  21
BRANCH   8  42
ATOM     42  O   UNL     1     112.601 130.876 142.018  0.00  0.00    +0.000 OA
BRANCH  42  51
ATOM     43  O   UNL     1     111.944 130.077 143.005  0.00  0.00    +0.000 OA
ATOM     44  O   UNL     1     111.744 132.059 144.474  0.00  0.00    +0.000 OA
ATOM     45  O   UNL     1     111.153 130.600 144.971  0.00  0.00    +0.000 OA
ATOM     46  O   UNL     1     112.467 132.196 142.998  0.00  0.00    +0.000 OA
ATOM     47  C   UNL     1     111.810 131.398 143.985  0.00  0.00    +0.000 C 
ATOM     48  C   UNL     1     111.515 130.669 144.233  0.00  0.00    +0.000 C 
ATOM     49  C   UNL     1     112.172 131.467 143.246  0.00  0.00    +0.000 C 
ATOM     50  C   UNL     1     111.582 130.008 143.743  0.00  0.00    +0.000 C 
ATOM     51  C   UNL     1     112.239 130.806 142.757  0.00  0.00    +0.000 C 
BRANCH  50  53
ATOM     52  O   UNL     1     111.685 128.583 143.793  0.00  0.00    +0.000 OA
ATOM     53  C   UNL     1     111.287 129.279 143.992  0.00  0.00    +0.000 C 
ENDBRANCH  50  53
ENDBRANCH  42  51
ENDBRANCH   8  42
BRANCH  10  54
ATOM     54  C   UNL     1     113.390 130.049 140.773  0.00  0.00    +0.000 C 
BRANCH  54  55
ATOM     55  C   UNL     1     113.968 130.618 140.621  0.00  0.00    +0.000 C 
ATOM     56  C   UNL     1     114.765 130.405 140.621  0.00  0.00    +0.000 C 
ATOM     57  C   UNL     1     115.343 130.974 140.470  0.00  0.00    +0.000 C 
ATOM     58  C   UNL     1     114.984 129.625 140.773  0.00  0.00    +0.000 C 
ENDBRANCH  54  55
ENDBRANCH  10  54
TORSDOF 11
ENDMDL
MODEL 3
REMARK VINA RESULT:     -10.0      2.095      6.144
REMARK  Name = 5748394
REMARK  11 active torsions:
REMARK  status: ('A' for Active; 'I' for Inactive)
REMARK    1  A    between atoms: O_1  and  C_20
REMARK    2  A    between atoms: O_1  and  C_23
REMARK    3  A    between atoms: O_4  and  C_24
REMARK    4  A    between atoms: O_4  and  C_37
REMARK    5  A    between atoms: O_11  and  C_36
REMARK    6  A    between atoms: O_11  and  C_42
REMARK    7  A    between atoms: O_19  and  C_55
REMARK    8  A    between atoms: C_35  and  C_38
REMARK    9  A    between atoms: C_39  and  C_47
REMARK   10  A    between atoms: C_44  and  C_48
REMARK   11  A    between atoms: C_48  and  C_49
REMARK                            x       y       z     vdW  Elec       q    Type
REMARK                         _______ _______ _______ _____ _____    ______ ____
ROOT
ATOM      1  O   UNL     1     112.533 128.713 139.714  0.00  0.00    +0.000 OA
ATOM      2  O   UNL     1     110.088 128.732 139.327  0.00  0.00    +0.000 OA
ATOM      3  O   UNL     1     109.912 129.776 140.307  0.00  0.00    +0.000 OA
ATOM      4  C   UNL     1     111.384 128.206 139.033  0.00  0.00    +0.000 A 
ATOM      5  C   UNL     1     112.199 128.199 139.162  0.00  0.00    +0.000 A 
ATOM      6  C   UNL     1     110.903 128.726 139.456  0.00  0.00    +0.000 A 
ATOM      7  C   UNL     1     111.237 129.240 140.008  0.00  0.00    +0.000 A 
ATOM      8  C   UNL     1     111.916 130.308 141.153  0.00  0.00    +0.000 A 
ATOM      9  C   UNL     1     112.052 129.234 140.138  0.00  0.00    +0.000 A 
ATOM     10  C   UNL     1     112.412 129.764 140.710  0.00  0.00    +0.000 A 
ATOM     11  C   UNL     1     110.726 129.777 140.442  0.00  0.00    +0.000 A 
ATOM     12  C   UNL     1     111.067 130.315 141.019  0.00  0.00    +0.000 A 
ENDROOT
BRANCH   5  13
ATOM     13  C   UNL     1     112.680 127.680 138.740  0.00  0.00    +0.000 A 
ATOM     14  C   UNL     1     112.916 126.967 139.081  0.00  0.00    +0.000 A 
ATOM     15  C   UNL     1     112.925 127.872 137.975  0.00  0.00    +0.000 A 
ATOM     16  C   UNL     1     113.397 126.446 138.658  0.00  0.00    +0.000 A 
ATOM     17  C   UNL     1     113.405 127.352 137.553  0.00  0.00    +0.000 A 
ATOM     18  C   UNL     1     113.642 126.639 137.894  0.00  0.00    +0.000 A 
BRANCH  18  19
ATOM     19  O   UNL     1     114.123 126.119 137.471  0.00  0.00    +0.000 OA
ATOM     20  C   UNL     1     114.186 125.331 137.709  0.00  0.00    +0.000 C 
ENDBRANCH  18  19
ENDBRANCH   5  13
BRANCH   4  21
ATOM     21  O   UNL     1     111.050 127.692 138.481  0.00  0.00    +0.000 OA
BRANCH  21  28
ATOM     22  O   UNL     1     110.480 126.805 139.446  0.00  0.00    +0.000 OA
ATOM     23  O   UNL     1     108.581 126.365 137.921  0.00  0.00    +0.000 OA
ATOM     24  O   UNL     1     108.644 125.625 139.394  0.00  0.00    +0.000 OA
ATOM     25  C   UNL     1     109.815 127.029 138.200  0.00  0.00    +0.000 C 
ATOM     26  C   UNL     1     109.214 126.512 138.429  0.00  0.00    +0.000 C 
ATOM     27  C   UNL     1     109.246 126.142 139.165  0.00  0.00    +0.000 C 
ATOM     28  C   UNL     1     110.448 127.175 138.709  0.00  0.00    +0.000 C 
ATOM     29  C   UNL     1     109.879 126.289 139.673  0.00  0.00    +0.000 C 
ATOM     30  C   UNL     1     109.910 125.918 140.411  0.00  0.00    +0.000 C 
BRANCH  25  31
ATOM     31  O   UNL     1     109.784 127.399 137.464  0.00  0.00    +0.000 OA
BRANCH  31  36
ATOM     32  O   UNL     1     110.309 126.225 136.841  0.00  0.00    +0.000 OA
ATOM     33  O   UNL     1     109.484 128.053 135.979  0.00  0.00    +0.000 OA
ATOM     34  O   UNL     1     109.859 127.206 134.614  0.00  0.00    +0.000 OA
ATOM     35  O   UNL     1     110.535 125.705 134.733  0.00  0.00    +0.000 OA
ATOM     36  C   UNL     1     109.972 126.975 136.781  0.00  0.00    +0.000 C 
ATOM     37  C   UNL     1     109.822 127.302 136.038  0.00  0.00    +0.000 C 
ATOM     38  C   UNL     1     110.009 126.879 135.356  0.00  0.00    +0.000 C 
ATOM     39  C   UNL     1     110.347 126.128 135.416  0.00  0.00    +0.000 C 
ATOM     40  C   UNL     1     110.497 125.802 136.158  0.00  0.00    +0.000 C 
ATOM     41  C   UNL     1     110.835 125.051 136.218  0.00  0.00    +0.000 C 
ENDBRANCH  31  36
ENDBRANCH  25  31
ENDBRANCH  21  28
ENDBRANCH   4  21
BRANCH   8  42
ATOM     42  O   UNL     1     112.253 130.821 141.705  0.00  0.00    +0.000 OA
BRANCH  42  51
ATOM     43  O   UNL     1     111.827 130.215 142.928  0.00  0.00    +0.000 OA
ATOM     44  O   UNL     1     111.150 132.433 143.791  0.00  0.00    +0.000 OA
ATOM     45  O   UNL     1     110.950 131.088 144.725  0.00  0.00    +0.000 OA
ATOM     46  O   UNL     1     111.802 132.299 142.281  0.00  0.00    +0.000 OA
ATOM     47  C   UNL     1     111.376 131.694 143.503  0.00  0.00    +0.000 C 
ATOM     48  C   UNL     1     111.276 131.021 143.970  0.00  0.00    +0.000 C 
ATOM     49  C   UNL     1     111.702 131.627 142.748  0.00  0.00    +0.000 C 
ATOM     50  C   UNL     1     111.502 130.282 143.683  0.00  0.00    +0.000 C 
ATOM     51  C   UNL     1     111.927 130.887 142.460  0.00  0.00    +0.000 C 
BRANCH  50  53
ATOM     52  O   UNL     1     111.942 128.987 144.099  0.00  0.00    +0.000 OA
ATOM     53  C   UNL     1     111.402 129.609 144.150  0.00  0.00    +0.000 C 
ENDBRANCH  50  53
ENDBRANCH  42  51
ENDBRANCH   8  42
BRANCH  10  54
ATOM     54  C   UNL     1     113.228 129.751 140.832  0.00  0.00    +0.000 C 
BRANCH  54  55
ATOM     55  C   UNL     1     113.710 130.305 140.456  0.00  0.00    +0.000 C 
ATOM     56  C   UNL     1     114.531 130.238 140.507  0.00  0.00    +0.000 C 
ATOM     57  C   UNL     1     115.013 130.792 140.131  0.00  0.00    +0.000 C 
ATOM     58  C   UNL     1     114.869 129.618 140.932  0.00  0.00    +0.000 C 
ENDBRANCH  54  55
ENDBRANCH  10  54
TORSDOF 11
ENDMDL
MODEL 4
REMARK VINA RESULT:      -9.9      1.681      3.203
REMARK  Name = 5748394
REMARK  11 active torsions:
REMARK  status: ('A' for Active; 'I' for Inactive)
REMARK    1  A    between atoms: O_1  and  C_20
REMARK    2  A    between atoms: O_1  and  C_23
REMARK    3  A    between atoms: O_4  and  C_24
REMARK    4  A    between atoms: O_4  and  C_37
REMARK    5  A    between atoms: O_11  and  C_36
REMARK    6  A    between atoms: O_11  and  C_42
REMARK    7  A    between atoms: O_19  and  C_55
REMARK    8  A    between atoms: C_35  and  C_38
REMARK    9  A    between atoms: C_39  and  C_47
REMARK   10  A    between atoms: C_44  and  C_48
REMARK   11  A    between atoms: C_48  and  C_49
REMARK                            x       y       z     vdW  Elec       q    Type
REMARK                         _______ _______ _______ _____ _____    ______ ____
ROOT
ATOM      1  O   UNL     1     112.686 128.764 138.509  0.00  0.00    +0.000 OA
ATOM      2  O   UNL     1     110.488 128.452 139.603  0.00  0.00    +0.000 OA
ATOM      3  O   UNL     1     110.018 127.656 138.495  0.00  0.00    +0.000 OA
ATOM      4  C   UNL     1     111.807 129.001 139.611  0.00  0.00    +0.000 A 
ATOM      5  C   UNL     1     112.540 129.105 139.246  0.00  0.00    +0.000 A 
ATOM      6  C   UNL     1     111.221 128.556 139.238  0.00  0.00    +0.000 A 
ATOM      7  C   UNL     1     111.367 128.216 138.501  0.00  0.00    +0.000 A 
ATOM      8  C   UNL     1     111.657 127.506 136.976  0.00  0.00    +0.000 A 
ATOM      9  C   UNL     1     112.099 128.319 138.136  0.00  0.00    +0.000 A 
ATOM     10  C   UNL     1     112.264 127.970 137.369  0.00  0.00    +0.000 A 
ATOM     11  C   UNL     1     110.748 127.755 138.124  0.00  0.00    +0.000 A 
ATOM     12  C   UNL     1     110.893 127.397 137.356  0.00  0.00    +0.000 A 
ENDROOT
BRANCH   5  13
ATOM     13  C   UNL     1     113.127 129.549 139.618  0.00  0.00    +0.000 A 
ATOM     14  C   UNL     1     113.603 129.202 140.195  0.00  0.00    +0.000 A 
ATOM     15  C   UNL     1     113.237 130.341 139.414  0.00  0.00    +0.000 A 
ATOM     16  C   UNL     1     114.191 129.647 140.568  0.00  0.00    +0.000 A 
ATOM     17  C   UNL     1     113.823 130.786 139.787  0.00  0.00    +0.000 A 
ATOM     18  C   UNL     1     114.300 130.438 140.363  0.00  0.00    +0.000 A 
BRANCH  18  19
ATOM     19  O   UNL     1     114.888 130.883 140.736  0.00  0.00    +0.000 OA
ATOM     20  C   UNL     1     115.683 130.702 140.612  0.00  0.00    +0.000 C 
ENDBRANCH  18  19
ENDBRANCH   5  13
BRANCH   4  21
ATOM     21  O   UNL     1     111.661 129.341 140.348  0.00  0.00    +0.000 OA
BRANCH  21  28
ATOM     22  O   UNL     1     110.827 130.395 139.861  0.00  0.00    +0.000 OA
ATOM     23  O   UNL     1     109.464 130.268 141.923  0.00  0.00    +0.000 OA
ATOM     24  O   UNL     1     109.084 131.364 140.749  0.00  0.00    +0.000 OA
ATOM     25  C   UNL     1     110.563 129.805 141.136  0.00  0.00    +0.000 C 
ATOM     26  C   UNL     1     109.919 130.311 141.236  0.00  0.00    +0.000 C 
ATOM     27  C   UNL     1     109.729 130.858 140.650  0.00  0.00    +0.000 C 
ATOM     28  C   UNL     1     111.017 129.847 140.449  0.00  0.00    +0.000 C 
ATOM     29  C   UNL     1     110.183 130.900 139.962  0.00  0.00    +0.000 C 
ATOM     30  C   UNL     1     109.993 131.448 139.374  0.00  0.00    +0.000 C 
BRANCH  25  31
ATOM     31  O   UNL     1     110.753 129.257 141.722  0.00  0.00    +0.000 OA
BRANCH  31  36
ATOM     32  O   UNL     1     111.426 130.271 142.471  0.00  0.00    +0.000 OA
ATOM     33  O   UNL     1     110.860 128.234 143.013  0.00  0.00    +0.000 OA
ATOM     34  O   UNL     1     111.586 128.737 144.406  0.00  0.00    +0.000 OA
ATOM     35  O   UNL     1     112.206 130.263 144.509  0.00  0.00    +0.000 OA
ATOM     36  C   UNL     1     111.116 129.509 142.419  0.00  0.00    +0.000 C 
ATOM     37  C   UNL     1     111.170 128.997 143.065  0.00  0.00    +0.000 C 
ATOM     38  C   UNL     1     111.533 129.248 143.762  0.00  0.00    +0.000 C 
ATOM     39  C   UNL     1     111.842 130.012 143.813  0.00  0.00    +0.000 C 
ATOM     40  C   UNL     1     111.789 130.523 143.168  0.00  0.00    +0.000 C 
ATOM     41  C   UNL     1     112.098 131.286 143.219  0.00  0.00    +0.000 C 
ENDBRANCH  31  36
ENDBRANCH  25  31
ENDBRANCH  21  28
ENDBRANCH   4  21
BRANCH   8  42
ATOM     42  O   UNL     1     111.806 127.166 136.239  0.00  0.00    +0.000 OA
BRANCH  42  51
ATOM     43  O   UNL     1     112.025 125.798 136.591  0.00  0.00    +0.000 OA
ATOM     44  O   UNL     1     110.475 125.090 134.796  0.00  0.00    +0.000 OA
ATOM     45  O   UNL     1     111.210 123.958 135.745  0.00  0.00    +0.000 OA
ATOM     46  O   UNL     1     110.774 126.694 135.043  0.00  0.00    +0.000 OA
ATOM     47  C   UNL     1     110.992 125.326 135.394  0.00  0.00    +0.000 C 
ATOM     48  C   UNL     1     111.359 124.760 135.869  0.00  0.00    +0.000 C 
ATOM     49  C   UNL     1     111.141 126.128 135.518  0.00  0.00    +0.000 C 
ATOM     50  C   UNL     1     111.875 124.996 136.468  0.00  0.00    +0.000 C 
ATOM     51  C   UNL     1     111.657 126.364 136.116  0.00  0.00    +0.000 C 
BRANCH  50  53
ATOM     52  O   UNL     1     113.007 124.563 137.226  0.00  0.00    +0.000 OA
ATOM     53  C   UNL     1     112.243 124.430 136.942  0.00  0.00    +0.000 C 
ENDBRANCH  50  53
ENDBRANCH  42  51
ENDBRANCH   8  42
BRANCH  10  54
ATOM     54  C   UNL     1     113.000 128.079 137.012  0.00  0.00    +0.000 C 
BRANCH  54  55
ATOM     55  C   UNL     1     113.109 128.694 136.473  0.00  0.00    +0.000 C 
ATOM     56  C   UNL     1     113.835 128.782 136.090  0.00  0.00    +0.000 C 
ATOM     57  C   UNL     1     113.944 129.396 135.550  0.00  0.00    +0.000 C 
ATOM     58  C   UNL     1     114.450 128.257 136.246  0.00  0.00    +0.000 C 
ENDBRANCH  54  55
ENDBRANCH  10  54
TORSDOF 11
ENDMDL
MODEL 5
REMARK VINA RESULT:      -9.9      2.752      7.308
REMARK  Name = 5748394
REMARK  11 active torsions:
REMARK  status: ('A' for Active; 'I' for Inactive)
REMARK    1  A    between atoms: O_1  and  C_20
REMARK    2  A    between atoms: O_1  and  C_23
REMARK    3  A    between atoms: O_4  and  C_24
REMARK    4  A    between atoms: O_4  and  C_37
REMARK    5  A    between atoms: O_11  and  C_36
REMARK    6  A    between atoms: O_11  and  C_42
REMARK    7  A    between atoms: O_19  and  C_55
REMARK    8  A    between atoms: C_35  and  C_38
REMARK    9  A    between atoms: C_39  and  C_47
REMARK   10  A    between atoms: C_44  and  C_48
REMARK   11  A    between atoms: C_48  and  C_49
REMARK                            x       y       z     vdW  Elec       q    Type
REMARK                         _______ _______ _______ _____ _____    ______ ____
ROOT
ATOM      1  O   UNL     1     111.306 129.504 143.081  0.00  0.00    +0.000 OA
ATOM      2  O   UNL     1     111.617 131.344 141.454  0.00  0.00    +0.000 OA
ATOM      3  O   UNL     1     111.702 132.312 142.520  0.00  0.00    +0.000 OA
ATOM      4  C   UNL     1     111.421 129.955 141.730  0.00  0.00    +0.000 A 
ATOM      5  C   UNL     1     111.317 129.342 142.272  0.00  0.00    +0.000 A 
ATOM      6  C   UNL     1     111.513 130.730 141.996  0.00  0.00    +0.000 A 
ATOM      7  C   UNL     1     111.502 130.893 142.804  0.00  0.00    +0.000 A 
ATOM      8  C   UNL     1     111.480 131.242 144.475  0.00  0.00    +0.000 A 
ATOM      9  C   UNL     1     111.398 130.280 143.347  0.00  0.00    +0.000 A 
ATOM     10  C   UNL     1     111.384 130.436 144.192  0.00  0.00    +0.000 A 
ATOM     11  C   UNL     1     111.599 131.705 143.069  0.00  0.00    +0.000 A 
ATOM     12  C   UNL     1     111.588 131.881 143.911  0.00  0.00    +0.000 A 
ENDROOT
BRANCH   5  13
ATOM     13  C   UNL     1     111.225 128.567 142.006  0.00  0.00    +0.000 A 
ATOM     14  C   UNL     1     110.477 128.288 141.800  0.00  0.00    +0.000 A 
ATOM     15  C   UNL     1     111.881 128.070 141.946  0.00  0.00    +0.000 A 
ATOM     16  C   UNL     1     110.384 127.512 141.534  0.00  0.00    +0.000 A 
ATOM     17  C   UNL     1     111.789 127.295 141.680  0.00  0.00    +0.000 A 
ATOM     18  C   UNL     1     111.041 127.016 141.474  0.00  0.00    +0.000 A 
BRANCH  18  19
ATOM     19  O   UNL     1     110.948 126.240 141.208  0.00  0.00    +0.000 OA
ATOM     20  C   UNL     1     110.286 126.034 140.762  0.00  0.00    +0.000 C 
ENDBRANCH  18  19
ENDBRANCH   5  13
BRANCH   4  21
ATOM     21  O   UNL     1     111.432 129.793 140.921  0.00  0.00    +0.000 OA
BRANCH  21  28
ATOM     22  O   UNL     1     112.843 129.962 140.769  0.00  0.00    +0.000 OA
ATOM     23  O   UNL     1     112.492 130.829 138.478  0.00  0.00    +0.000 OA
ATOM     24  O   UNL     1     114.020 130.709 139.090  0.00  0.00    +0.000 OA
ATOM     25  C   UNL     1     111.962 130.311 139.699  0.00  0.00    +0.000 C 
ATOM     26  C   UNL     1     112.609 130.540 139.242  0.00  0.00    +0.000 C 
ATOM     27  C   UNL     1     113.373 130.480 139.547  0.00  0.00    +0.000 C 
ATOM     28  C   UNL     1     112.079 130.022 140.463  0.00  0.00    +0.000 C 
ATOM     29  C   UNL     1     113.490 130.191 140.311  0.00  0.00    +0.000 C 
ATOM     30  C   UNL     1     114.254 130.131 140.617  0.00  0.00    +0.000 C 
BRANCH  25  31
ATOM     31  O   UNL     1     111.198 130.371 139.394  0.00  0.00    +0.000 OA
BRANCH  31  36
ATOM     32  O   UNL     1     111.398 129.164 138.655  0.00  0.00    +0.000 OA
ATOM     33  O   UNL     1     109.646 130.451 138.841  0.00  0.00    +0.000 OA
ATOM     34  O   UNL     1     109.070 129.285 137.826  0.00  0.00    +0.000 OA
ATOM     35  O   UNL     1     110.047 128.037 137.364  0.00  0.00    +0.000 OA
ATOM     36  C   UNL     1     110.910 129.787 138.886  0.00  0.00    +0.000 C 
ATOM     37  C   UNL     1     110.134 129.828 138.610  0.00  0.00    +0.000 C 
ATOM     38  C   UNL     1     109.846 129.244 138.102  0.00  0.00    +0.000 C 
ATOM     39  C   UNL     1     110.334 128.621 137.872  0.00  0.00    +0.000 C 
ATOM     40  C   UNL     1     111.110 128.580 138.148  0.00  0.00    +0.000 C 
ATOM     41  C   UNL     1     111.599 127.957 137.917  0.00  0.00    +0.000 C 
ENDBRANCH  31  36
ENDBRANCH  25  31
ENDBRANCH  21  28
ENDBRANCH   4  21
BRANCH   8  42
ATOM     42  O   UNL     1     111.468 131.402 145.285  0.00  0.00    +0.000 OA
BRANCH  42  51
ATOM     43  O   UNL     1     110.177 132.002 145.412  0.00  0.00    +0.000 OA
ATOM     44  O   UNL     1     111.152 133.800 146.806  0.00  0.00    +0.000 OA
ATOM     45  O   UNL     1     109.537 133.802 146.469  0.00  0.00    +0.000 OA
ATOM     46  O   UNL     1     112.117 132.600 146.214  0.00  0.00    +0.000 OA
ATOM     47  C   UNL     1     110.827 133.201 146.341  0.00  0.00    +0.000 C 
ATOM     48  C   UNL     1     110.020 133.202 146.173  0.00  0.00    +0.000 C 
ATOM     49  C   UNL     1     111.310 132.601 146.045  0.00  0.00    +0.000 C 
ATOM     50  C   UNL     1     109.694 132.602 145.708  0.00  0.00    +0.000 C 
ATOM     51  C   UNL     1     110.985 132.002 145.581  0.00  0.00    +0.000 C 
BRANCH  50  53
ATOM     52  O   UNL     1     108.469 131.891 145.518  0.00  0.00    +0.000 OA
ATOM     53  C   UNL     1     108.887 132.603 145.540  0.00  0.00    +0.000 C 
ENDBRANCH  50  53
ENDBRANCH  42  51
ENDBRANCH   8  42
BRANCH  10  54
ATOM     54  C   UNL     1     111.280 129.817 144.727  0.00  0.00    +0.000 C 
BRANCH  54  55
ATOM     55  C   UNL     1     111.933 129.492 145.113  0.00  0.00    +0.000 C 
ATOM     56  C   UNL     1     111.834 128.845 145.616  0.00  0.00    +0.000 C 
ATOM     57  C   UNL     1     112.487 128.521 146.003  0.00  0.00    +0.000 C 
ATOM     58  C   UNL     1     111.084 128.524 145.733  0.00  0.00    +0.000 C 
ENDBRANCH  54  55
ENDBRANCH  10  54
TORSDOF 11
ENDMDL
MODEL 6
REMARK VINA RESULT:      -9.8      1.438      2.269
REMARK  Name = 5748394
REMARK  11 active torsions:
REMARK  status: ('A' for Active; 'I' for Inactive)
REMARK    1  A    between atoms: O_1  and  C_20
REMARK    2  A    between atoms: O_1  and  C_23
REMARK    3  A    between atoms: O_4  and  C_24
REMARK    4  A    between atoms: O_4  and  C_37
REMARK    5  A    between atoms: O_11  and  C_36
REMARK    6  A    between atoms: O_11  and  C_42
REMARK    7  A    between atoms: O_19  and  C_55
REMARK    8  A    between atoms: C_35  and  C_38
REMARK    9  A    between atoms: C_39  and  C_47
REMARK   10  A    between atoms: C_44  and  C_48
REMARK   11  A    between atoms: C_48  and  C_49
REMARK                            x       y       z     vdW  Elec       q    Type
REMARK                         _______ _______ _______ _____ _____    ______ ____
ROOT
ATOM      1  O   UNL     1     111.856 128.882 138.202  0.00  0.00    +0.000 OA
ATOM      2  O   UNL     1     112.452 127.829 140.361  0.00  0.00    +0.000 OA
ATOM      3  O   UNL     1     113.177 126.782 139.684  0.00  0.00    +0.000 OA
ATOM      4  C   UNL     1     111.798 128.868 139.630  0.00  0.00    +0.000 A 
ATOM      5  C   UNL     1     111.599 129.219 138.910  0.00  0.00    +0.000 A 
ATOM      6  C   UNL     1     112.253 128.181 139.642  0.00  0.00    +0.000 A 
ATOM      7  C   UNL     1     112.509 127.843 138.934  0.00  0.00    +0.000 A 
ATOM      8  C   UNL     1     113.046 127.135 137.476  0.00  0.00    +0.000 A 
ATOM      9  C   UNL     1     112.311 128.193 138.214  0.00  0.00    +0.000 A 
ATOM     10  C   UNL     1     112.571 127.852 137.470  0.00  0.00    +0.000 A 
ATOM     11  C   UNL     1     112.983 127.126 138.960  0.00  0.00    +0.000 A 
ATOM     12  C   UNL     1     113.253 126.769 138.226  0.00  0.00    +0.000 A 
ENDROOT
BRANCH   5  13
ATOM     13  C   UNL     1     111.145 129.907 138.898  0.00  0.00    +0.000 A 
ATOM     14  C   UNL     1     110.329 129.860 138.787  0.00  0.00    +0.000 A 
ATOM     15  C   UNL     1     111.505 130.643 138.996  0.00  0.00    +0.000 A 
ATOM     16  C   UNL     1     109.873 130.548 138.774  0.00  0.00    +0.000 A 
ATOM     17  C   UNL     1     111.051 131.330 138.984  0.00  0.00    +0.000 A 
ATOM     18  C   UNL     1     110.235 131.283 138.873  0.00  0.00    +0.000 A 
BRANCH  18  19
ATOM     19  O   UNL     1     109.779 131.971 138.861  0.00  0.00    +0.000 OA
ATOM     20  C   UNL     1     109.736 132.425 138.173  0.00  0.00    +0.000 C 
ENDBRANCH  18  19
ENDBRANCH   5  13
BRANCH   4  21
ATOM     21  O   UNL     1     111.542 129.206 140.337  0.00  0.00    +0.000 OA
BRANCH  21  28
ATOM     22  O   UNL     1     110.511 128.250 140.597  0.00  0.00    +0.000 OA
ATOM     23  O   UNL     1     110.956 128.431 143.025  0.00  0.00    +0.000 OA
ATOM     24  O   UNL     1     109.777 127.416 142.476  0.00  0.00    +0.000 OA
ATOM     25  C   UNL     1     111.250 128.819 141.682  0.00  0.00    +0.000 C 
ATOM     26  C   UNL     1     110.808 128.371 142.216  0.00  0.00    +0.000 C 
ATOM     27  C   UNL     1     110.219 127.863 141.941  0.00  0.00    +0.000 C 
ATOM     28  C   UNL     1     111.101 128.758 140.872  0.00  0.00    +0.000 C 
ATOM     29  C   UNL     1     110.071 127.803 141.132  0.00  0.00    +0.000 C 
ATOM     30  C   UNL     1     109.481 127.295 140.857  0.00  0.00    +0.000 C 
BRANCH  25  31
ATOM     31  O   UNL     1     111.839 129.326 141.956  0.00  0.00    +0.000 OA
BRANCH  31  36
ATOM     32  O   UNL     1     110.847 130.285 142.328  0.00  0.00    +0.000 OA
ATOM     33  O   UNL     1     113.026 130.409 142.328  0.00  0.00    +0.000 OA
ATOM     34  O   UNL     1     112.628 131.910 142.887  0.00  0.00    +0.000 OA
ATOM     35  O   UNL     1     111.042 132.327 143.073  0.00  0.00    +0.000 OA
ATOM     36  C   UNL     1     111.639 130.076 142.235  0.00  0.00    +0.000 C 
ATOM     37  C   UNL     1     112.234 130.619 142.422  0.00  0.00    +0.000 C 
ATOM     38  C   UNL     1     112.034 131.369 142.701  0.00  0.00    +0.000 C 
ATOM     39  C   UNL     1     111.241 131.577 142.793  0.00  0.00    +0.000 C 
ATOM     40  C   UNL     1     110.648 131.036 142.607  0.00  0.00    +0.000 C 
ATOM     41  C   UNL     1     109.855 131.244 142.700  0.00  0.00    +0.000 C 
ENDBRANCH  31  36
ENDBRANCH  25  31
ENDBRANCH  21  28
ENDBRANCH   4  21
BRANCH   8  42
ATOM     42  O   UNL     1     113.300 126.800 136.767  0.00  0.00    +0.000 OA
BRANCH  42  51
ATOM     43  O   UNL     1     112.502 125.616 136.704  0.00  0.00    +0.000 OA
ATOM     44  O   UNL     1     114.521 124.283 136.180  0.00  0.00    +0.000 OA
ATOM     45  O   UNL     1     113.050 123.543 136.292  0.00  0.00    +0.000 OA
ATOM     46  O   UNL     1     114.646 125.911 136.417  0.00  0.00    +0.000 OA
ATOM     47  C   UNL     1     113.848 124.727 136.355  0.00  0.00    +0.000 C 
ATOM     48  C   UNL     1     113.112 124.357 136.411  0.00  0.00    +0.000 C 
ATOM     49  C   UNL     1     113.910 125.541 136.473  0.00  0.00    +0.000 C 
ATOM     50  C   UNL     1     112.439 124.802 136.586  0.00  0.00    +0.000 C 
ATOM     51  C   UNL     1     113.237 125.985 136.648  0.00  0.00    +0.000 C 
BRANCH  50  53
ATOM     52  O   UNL     1     111.033 124.800 136.332  0.00  0.00    +0.000 OA
ATOM     53  C   UNL     1     111.704 124.432 136.642  0.00  0.00    +0.000 C 
ENDBRANCH  50  53
ENDBRANCH  42  51
ENDBRANCH   8  42
BRANCH  10  54
ATOM     54  C   UNL     1     112.368 128.209 136.755  0.00  0.00    +0.000 C 
BRANCH  54  55
ATOM     55  C   UNL     1     112.900 128.719 136.383  0.00  0.00    +0.000 C 
ATOM     56  C   UNL     1     112.686 129.096 135.680  0.00  0.00    +0.000 C 
ATOM     57  C   UNL     1     113.218 129.605 135.308  0.00  0.00    +0.000 C 
ATOM     58  C   UNL     1     111.943 128.963 135.350  0.00  0.00    +0.000 C 
ENDBRANCH  54  55
ENDBRANCH  10  54
TORSDOF 11
ENDMDL
MODEL 7
REMARK VINA RESULT:      -9.8      1.760      6.772
REMARK  Name = 5748394
REMARK  11 active torsions:
REMARK  status: ('A' for Active; 'I' for Inactive)
REMARK    1  A    between atoms: O_1  and  C_20
REMARK    2  A    between atoms: O_1  and  C_23
REMARK    3  A    between atoms: O_4  and  C_24
REMARK    4  A    between atoms: O_4  and  C_37
REMARK    5  A    between atoms: O_11  and  C_36
REMARK    6  A    between atoms: O_11  and  C_42
REMARK    7  A    between atoms: O_19  and  C_55
REMARK    8  A    between atoms: C_35  and  C_38
REMARK    9  A    between atoms: C_39  and  C_47
REMARK   10  A    between atoms: C_44  and  C_48
REMARK   11  A    between atoms: C_48  and  C_49
REMARK                            x       y       z     vdW  Elec       q    Type
REMARK                         _______ _______ _______ _____ _____    ______ ____
ROOT
ATOM      1  O   UNL     1     111.590 129.555 137.209  0.00  0.00    +0.000 OA
ATOM      2  O   UNL     1     110.989 127.285 137.992  0.00  0.00    +0.000 OA
ATOM      3  O   UNL     1     109.924 127.816 138.808  0.00  0.00    +0.000 OA
ATOM      4  C   UNL     1     111.813 128.144 137.201  0.00  0.00    +0.000 A 
ATOM      5  C   UNL     1     112.014 128.900 136.940  0.00  0.00    +0.000 A 
ATOM      6  C   UNL     1     111.190 128.041 137.731  0.00  0.00    +0.000 A 
ATOM      7  C   UNL     1     110.766 128.696 138.000  0.00  0.00    +0.000 A 
ATOM      8  C   UNL     1     109.881 130.043 138.564  0.00  0.00    +0.000 A 
ATOM      9  C   UNL     1     110.965 129.453 137.740  0.00  0.00    +0.000 A 
ATOM     10  C   UNL     1     110.532 130.143 138.012  0.00  0.00    +0.000 A 
ATOM     11  C   UNL     1     110.118 128.576 138.552  0.00  0.00    +0.000 A 
ATOM     12  C   UNL     1     109.672 129.254 138.837  0.00  0.00    +0.000 A 
ENDROOT
BRANCH   5  13
ATOM     13  C   UNL     1     112.637 129.003 136.411  0.00  0.00    +0.000 A 
ATOM     14  C   UNL     1     112.485 129.064 135.602  0.00  0.00    +0.000 A 
ATOM     15  C   UNL     1     113.413 129.044 136.688  0.00  0.00    +0.000 A 
ATOM     16  C   UNL     1     113.109 129.166 135.071  0.00  0.00    +0.000 A 
ATOM     17  C   UNL     1     114.036 129.146 136.159  0.00  0.00    +0.000 A 
ATOM     18  C   UNL     1     113.884 129.207 135.350  0.00  0.00    +0.000 A 
BRANCH  18  19
ATOM     19  O   UNL     1     114.509 129.310 134.820  0.00  0.00    +0.000 OA
ATOM     20  C   UNL     1     114.990 129.978 134.874  0.00  0.00    +0.000 C 
ENDBRANCH  18  19
ENDBRANCH   5  13
BRANCH   4  21
ATOM     21  O   UNL     1     112.237 127.489 136.932  0.00  0.00    +0.000 OA
BRANCH  21  28
ATOM     22  O   UNL     1     111.294 127.021 135.966  0.00  0.00    +0.000 OA
ATOM     23  O   UNL     1     111.757 124.686 136.645  0.00  0.00    +0.000 OA
ATOM     24  O   UNL     1     110.660 124.996 135.452  0.00  0.00    +0.000 OA
ATOM     25  C   UNL     1     111.997 126.088 136.789  0.00  0.00    +0.000 C 
ATOM     26  C   UNL     1     111.603 125.465 136.419  0.00  0.00    +0.000 C 
ATOM     27  C   UNL     1     111.055 125.619 135.823  0.00  0.00    +0.000 C 
ATOM     28  C   UNL     1     111.843 126.866 136.563  0.00  0.00    +0.000 C 
ATOM     29  C   UNL     1     110.901 126.397 135.596  0.00  0.00    +0.000 C 
ATOM     30  C   UNL     1     110.352 126.553 134.999  0.00  0.00    +0.000 C 
BRANCH  25  31
ATOM     31  O   UNL     1     112.545 125.933 137.386  0.00  0.00    +0.000 OA
BRANCH  31  36
ATOM     32  O   UNL     1     113.566 125.728 136.406  0.00  0.00    +0.000 OA
ATOM     33  O   UNL     1     113.572 125.405 138.565  0.00  0.00    +0.000 OA
ATOM     34  O   UNL     1     115.105 124.937 138.174  0.00  0.00    +0.000 OA
ATOM     35  O   UNL     1     115.611 124.995 136.605  0.00  0.00    +0.000 OA
ATOM     36  C   UNL     1     113.312 125.699 137.190  0.00  0.00    +0.000 C 
ATOM     37  C   UNL     1     113.826 125.434 137.780  0.00  0.00    +0.000 C 
ATOM     38  C   UNL     1     114.592 125.200 137.585  0.00  0.00    +0.000 C 
ATOM     39  C   UNL     1     114.845 125.230 136.800  0.00  0.00    +0.000 C 
ATOM     40  C   UNL     1     114.332 125.493 136.211  0.00  0.00    +0.000 C 
ATOM     41  C   UNL     1     114.585 125.523 135.426  0.00  0.00    +0.000 C 
ENDBRANCH  31  36
ENDBRANCH  25  31
ENDBRANCH  21  28
ENDBRANCH   4  21
BRANCH   8  42
ATOM     42  O   UNL     1     109.459 130.699 138.832  0.00  0.00    +0.000 OA
BRANCH  42  51
ATOM     43  O   UNL     1     109.895 130.793 140.190  0.00  0.00    +0.000 OA
ATOM     44  O   UNL     1     107.542 130.994 140.932  0.00  0.00    +0.000 OA
ATOM     45  O   UNL     1     108.762 131.022 142.042  0.00  0.00    +0.000 OA
ATOM     46  O   UNL     1     107.891 130.833 139.327  0.00  0.00    +0.000 OA
ATOM     47  C   UNL     1     108.327 130.927 140.684  0.00  0.00    +0.000 C 
ATOM     48  C   UNL     1     108.937 130.941 141.240  0.00  0.00    +0.000 C 
ATOM     49  C   UNL     1     108.501 130.847 139.882  0.00  0.00    +0.000 C 
ATOM     50  C   UNL     1     109.721 130.874 140.993  0.00  0.00    +0.000 C 
ATOM     51  C   UNL     1     109.285 130.780 139.635  0.00  0.00    +0.000 C 
BRANCH  50  53
ATOM     52  O   UNL     1     110.920 131.465 141.500  0.00  0.00    +0.000 OA
ATOM     53  C   UNL     1     110.331 130.887 141.548  0.00  0.00    +0.000 C 
ENDBRANCH  50  53
ENDBRANCH  42  51
ENDBRANCH   8  42
BRANCH  10  54
ATOM     54  C   UNL     1     110.739 130.895 137.746  0.00  0.00    +0.000 C 
BRANCH  54  55
ATOM     55  C   UNL     1     110.312 131.248 137.134  0.00  0.00    +0.000 C 
ATOM     56  C   UNL     1     110.533 131.993 136.854  0.00  0.00    +0.000 C 
ATOM     57  C   UNL     1     110.106 132.345 136.242  0.00  0.00    +0.000 C 
ATOM     58  C   UNL     1     111.177 132.384 137.186  0.00  0.00    +0.000 C 
ENDBRANCH  54  55
ENDBRANCH  10  54
TORSDOF 11
ENDMDL
MODEL 8
REMARK VINA RESULT:      -9.8      1.334      6.696
REMARK  Name = 5748394
REMARK  11 active torsions:
REMARK  status: ('A' for Active; 'I' for Inactive)
REMARK    1  A    between atoms: O_1  and  C_20
REMARK    2  A    between atoms: O_1  and  C_23
REMARK    3  A    between atoms: O_4  and  C_24
REMARK    4  A    between atoms: O_4  and  C_37
REMARK    5  A    between atoms: O_11  and  C_36
REMARK    6  A    between atoms: O_11  and  C_42
REMARK    7  A    between atoms: O_19  and  C_55
REMARK    8  A    between atoms: C_35  and  C_38
REMARK    9  A    between atoms: C_39  and  C_47
REMARK   10  A    between atoms: C_44  and  C_48
REMARK   11  A    between atoms: C_48  and  C_49
REMARK                            x       y       z     vdW  Elec       q    Type
REMARK                         _______ _______ _______ _____ _____    ______ ____
ROOT
ATOM      1  O   UNL     1     111.279 128.548 140.297  0.00  0.00    +0.000 OA
ATOM      2  O   UNL     1     110.184 128.278 138.094  0.00  0.00    +0.000 OA
ATOM      3  O   UNL     1     109.054 129.064 138.527  0.00  0.00    +0.000 OA
ATOM      4  C   UNL     1     111.284 128.022 138.968  0.00  0.00    +0.000 A 
ATOM      5  C   UNL     1     111.650 128.112 139.703  0.00  0.00    +0.000 A 
ATOM      6  C   UNL     1     110.549 128.368 138.828  0.00  0.00    +0.000 A 
ATOM      7  C   UNL     1     110.179 128.804 139.423  0.00  0.00    +0.000 A 
ATOM      8  C   UNL     1     109.402 129.708 140.644  0.00  0.00    +0.000 A 
ATOM      9  C   UNL     1     110.543 128.894 140.157  0.00  0.00    +0.000 A 
ATOM     10  C   UNL     1     110.168 129.345 140.784  0.00  0.00    +0.000 A 
ATOM     11  C   UNL     1     109.412 129.159 139.264  0.00  0.00    +0.000 A 
ATOM     12  C   UNL     1     109.020 129.615 139.879  0.00  0.00    +0.000 A 
ENDROOT
BRANCH   5  13
ATOM     13  C   UNL     1     112.385 127.766 139.843  0.00  0.00    +0.000 A 
ATOM     14  C   UNL     1     113.074 128.211 139.750  0.00  0.00    +0.000 A 
ATOM     15  C   UNL     1     112.433 126.976 140.076  0.00  0.00    +0.000 A 
ATOM     16  C   UNL     1     113.811 127.865 139.890  0.00  0.00    +0.000 A 
ATOM     17  C   UNL     1     113.168 126.630 140.216  0.00  0.00    +0.000 A 
ATOM     18  C   UNL     1     113.857 127.075 140.123  0.00  0.00    +0.000 A 
BRANCH  18  19
ATOM     19  O   UNL     1     114.594 126.729 140.263  0.00  0.00    +0.000 OA
ATOM     20  C   UNL     1     115.001 126.897 140.960  0.00  0.00    +0.000 C 
ENDBRANCH  18  19
ENDBRANCH   5  13
BRANCH   4  21
ATOM     21  O   UNL     1     111.655 127.586 138.374  0.00  0.00    +0.000 OA
BRANCH  21  28
ATOM     22  O   UNL     1     112.064 128.713 137.597  0.00  0.00    +0.000 OA
ATOM     23  O   UNL     1     111.724 127.406 135.523  0.00  0.00    +0.000 OA
ATOM     24  O   UNL     1     112.246 128.969 135.437  0.00  0.00    +0.000 OA
ATOM     25  C   UNL     1     111.689 127.496 136.948  0.00  0.00    +0.000 C 
ATOM     26  C   UNL     1     111.837 127.842 136.214  0.00  0.00    +0.000 C 
ATOM     27  C   UNL     1     112.098 128.623 136.171  0.00  0.00    +0.000 C 
ATOM     28  C   UNL     1     111.803 127.931 137.640  0.00  0.00    +0.000 C 
ATOM     29  C   UNL     1     112.211 129.059 136.862  0.00  0.00    +0.000 C 
ATOM     30  C   UNL     1     112.473 129.841 136.820  0.00  0.00    +0.000 C 
BRANCH  25  31
ATOM     31  O   UNL     1     111.429 126.715 136.991  0.00  0.00    +0.000 OA
BRANCH  31  36
ATOM     32  O   UNL     1     112.772 126.252 136.835  0.00  0.00    +0.000 OA
ATOM     33  O   UNL     1     110.882 125.161 136.894  0.00  0.00    +0.000 OA
ATOM     34  O   UNL     1     111.952 123.922 136.689  0.00  0.00    +0.000 OA
ATOM     35  O   UNL     1     113.569 124.236 136.582  0.00  0.00    +0.000 OA
ATOM     36  C   UNL     1     111.964 126.095 136.889  0.00  0.00    +0.000 C 
ATOM     37  C   UNL     1     111.691 125.318 136.840  0.00  0.00    +0.000 C 
ATOM     38  C   UNL     1     112.226 124.698 136.738  0.00  0.00    +0.000 C 
ATOM     39  C   UNL     1     113.034 124.856 136.684  0.00  0.00    +0.000 C 
ATOM     40  C   UNL     1     113.307 125.632 136.733  0.00  0.00    +0.000 C 
ATOM     41  C   UNL     1     114.115 125.790 136.680  0.00  0.00    +0.000 C 
ENDBRANCH  31  36
ENDBRANCH  25  31
ENDBRANCH  21  28
ENDBRANCH   4  21
BRANCH   8  42
ATOM     42  O   UNL     1     109.033 130.143 141.240  0.00  0.00    +0.000 OA
BRANCH  42  51
ATOM     43  O   UNL     1     107.966 129.272 141.623  0.00  0.00    +0.000 OA
ATOM     44  O   UNL     1     106.373 131.160 141.476  0.00  0.00    +0.000 OA
ATOM     45  O   UNL     1     105.837 129.660 141.907  0.00  0.00    +0.000 OA
ATOM     46  O   UNL     1     107.970 131.401 141.143  0.00  0.00    +0.000 OA
ATOM     47  C   UNL     1     106.904 130.531 141.525  0.00  0.00    +0.000 C 
ATOM     48  C   UNL     1     106.636 129.781 141.741  0.00  0.00    +0.000 C 
ATOM     49  C   UNL     1     107.703 130.651 141.359  0.00  0.00    +0.000 C 
ATOM     50  C   UNL     1     107.167 129.151 141.790  0.00  0.00    +0.000 C 
ATOM     51  C   UNL     1     108.234 130.022 141.407  0.00  0.00    +0.000 C 
BRANCH  50  53
ATOM     52  O   UNL     1     107.363 127.922 142.493  0.00  0.00    +0.000 OA
ATOM     53  C   UNL     1     106.900 128.401 142.005  0.00  0.00    +0.000 C 
ENDBRANCH  50  53
ENDBRANCH  42  51
ENDBRANCH   8  42
BRANCH  10  54
ATOM     54  C   UNL     1     110.540 129.430 141.515  0.00  0.00    +0.000 C 
BRANCH  54  55
ATOM     55  C   UNL     1     111.004 130.095 141.667  0.00  0.00    +0.000 C 
ATOM     56  C   UNL     1     111.399 130.167 142.388  0.00  0.00    +0.000 C 
ATOM     57  C   UNL     1     111.862 130.832 142.540  0.00  0.00    +0.000 C 
ATOM     58  C   UNL     1     111.330 129.574 142.957  0.00  0.00    +0.000 C 
ENDBRANCH  54  55
ENDBRANCH  10  54
TORSDOF 11
ENDMDL
MODEL 9
REMARK VINA RESULT:      -9.7      3.004      6.252
REMARK  Name = 5748394
REMARK  11 active torsions:
REMARK  status: ('A' for Active; 'I' for Inactive)
REMARK    1  A    between atoms: O_1  and  C_20
REMARK    2  A    between atoms: O_1  and  C_23
REMARK    3  A    between atoms: O_4  and  C_24
REMARK    4  A    between atoms: O_4  and  C_37
REMARK    5  A    between atoms: O_11  and  C_36
REMARK    6  A    between atoms: O_11  and  C_42
REMARK    7  A    between atoms: O_19  and  C_55
REMARK    8  A    between atoms: C_35  and  C_38
REMARK    9  A    between atoms: C_39  and  C_47
REMARK   10  A    between atoms: C_44  and  C_48
REMARK   11  A    between atoms: C_48  and  C_49
REMARK                            x       y       z     vdW  Elec       q    Type
REMARK                         _______ _______ _______ _____ _____    ______ ____
ROOT
ATOM      1  O   UNL     1     108.199 127.078 141.249  0.00  0.00    +0.000 OA
ATOM      2  O   UNL     1     109.783 125.331 140.499  0.00  0.00    +0.000 OA
ATOM      3  O   UNL     1     108.797 124.301 140.719  0.00  0.00    +0.000 OA
ATOM      4  C   UNL     1     109.489 126.704 140.761  0.00  0.00    +0.000 A 
ATOM      5  C   UNL     1     108.961 127.287 141.011  0.00  0.00    +0.000 A 
ATOM      6  C   UNL     1     109.256 125.913 140.749  0.00  0.00    +0.000 A 
ATOM      7  C   UNL     1     108.494 125.705 140.987  0.00  0.00    +0.000 A 
ATOM      8  C   UNL     1     106.921 125.260 141.478  0.00  0.00    +0.000 A 
ATOM      9  C   UNL     1     107.965 126.286 141.238  0.00  0.00    +0.000 A 
ATOM     10  C   UNL     1     107.169 126.082 141.489  0.00  0.00    +0.000 A 
ATOM     11  C   UNL     1     108.263 124.877 140.970  0.00  0.00    +0.000 A 
ATOM     12  C   UNL     1     107.470 124.652 141.218  0.00  0.00    +0.000 A 
ENDROOT
BRANCH   5  13
ATOM     13  C   UNL     1     109.194 128.078 141.023  0.00  0.00    +0.000 A 
ATOM     14  C   UNL     1     108.992 128.576 140.398  0.00  0.00    +0.000 A 
ATOM     15  C   UNL     1     109.629 128.371 141.660  0.00  0.00    +0.000 A 
ATOM     16  C   UNL     1     109.226 129.368 140.409  0.00  0.00    +0.000 A 
ATOM     17  C   UNL     1     109.863 129.161 141.672  0.00  0.00    +0.000 A 
ATOM     18  C   UNL     1     109.661 129.660 141.047  0.00  0.00    +0.000 A 
BRANCH  18  19
ATOM     19  O   UNL     1     109.894 130.452 141.058  0.00  0.00    +0.000 OA
ATOM     20  C   UNL     1     109.924 130.883 140.355  0.00  0.00    +0.000 C 
ENDBRANCH  18  19
ENDBRANCH   5  13
BRANCH   4  21
ATOM     21  O   UNL     1     110.250 126.913 140.522  0.00  0.00    +0.000 OA
BRANCH  21  28
ATOM     22  O   UNL     1     110.006 126.728 139.127  0.00  0.00    +0.000 OA
ATOM     23  O   UNL     1     112.357 126.022 138.809  0.00  0.00    +0.000 OA
ATOM     24  O   UNL     1     111.329 126.072 137.519  0.00  0.00    +0.000 OA
ATOM     25  C   UNL     1     111.304 126.467 139.666  0.00  0.00    +0.000 C 
ATOM     26  C   UNL     1     111.573 126.257 138.915  0.00  0.00    +0.000 C 
ATOM     27  C   UNL     1     111.060 126.282 138.270  0.00  0.00    +0.000 C 
ATOM     28  C   UNL     1     110.521 126.703 139.772  0.00  0.00    +0.000 C 
ATOM     29  C   UNL     1     110.276 126.517 138.376  0.00  0.00    +0.000 C 
ATOM     30  C   UNL     1     109.762 126.542 137.731  0.00  0.00    +0.000 C 
BRANCH  25  31
ATOM     31  O   UNL     1     111.818 126.442 140.310  0.00  0.00    +0.000 OA
BRANCH  31  36
ATOM     32  O   UNL     1     112.378 127.705 139.943  0.00  0.00    +0.000 OA
ATOM     33  O   UNL     1     113.072 126.190 141.353  0.00  0.00    +0.000 OA
ATOM     34  O   UNL     1     114.258 127.326 141.506  0.00  0.00    +0.000 OA
ATOM     35  O   UNL     1     114.190 128.715 140.617  0.00  0.00    +0.000 OA
ATOM     36  C   UNL     1     112.411 127.010 140.387  0.00  0.00    +0.000 C 
ATOM     37  C   UNL     1     113.038 126.884 140.909  0.00  0.00    +0.000 C 
ATOM     38  C   UNL     1     113.632 127.453 140.986  0.00  0.00    +0.000 C 
ATOM     39  C   UNL     1     113.597 128.147 140.541  0.00  0.00    +0.000 C 
ATOM     40  C   UNL     1     112.971 128.273 140.020  0.00  0.00    +0.000 C 
ATOM     41  C   UNL     1     112.937 128.967 139.575  0.00  0.00    +0.000 C 
ENDBRANCH  31  36
ENDBRANCH  25  31
ENDBRANCH  21  28
ENDBRANCH   4  21
BRANCH   8  42
ATOM     42  O   UNL     1     106.158 125.054 141.717  0.00  0.00    +0.000 OA
BRANCH  42  51
ATOM     43  O   UNL     1     105.603 124.721 140.443  0.00  0.00    +0.000 OA
ATOM     44  O   UNL     1     104.503 122.740 141.440  0.00  0.00    +0.000 OA
ATOM     45  O   UNL     1     104.314 123.068 139.834  0.00  0.00    +0.000 OA
ATOM     46  O   UNL     1     105.425 123.733 142.381  0.00  0.00    +0.000 OA
ATOM     47  C   UNL     1     104.870 123.401 141.107  0.00  0.00    +0.000 C 
ATOM     48  C   UNL     1     104.775 123.564 140.304  0.00  0.00    +0.000 C 
ATOM     49  C   UNL     1     105.331 123.897 141.578  0.00  0.00    +0.000 C 
ATOM     50  C   UNL     1     105.142 124.225 139.972  0.00  0.00    +0.000 C 
ATOM     51  C   UNL     1     105.697 124.557 141.246  0.00  0.00    +0.000 C 
BRANCH  50  53
ATOM     52  O   UNL     1     104.904 125.163 138.920  0.00  0.00    +0.000 OA
ATOM     53  C   UNL     1     105.047 124.389 139.169  0.00  0.00    +0.000 C 
ENDBRANCH  50  53
ENDBRANCH  42  51
ENDBRANCH   8  42
BRANCH  10  54
ATOM     54  C   UNL     1     106.648 126.671 141.737  0.00  0.00    +0.000 C 
BRANCH  54  55
ATOM     55  C   UNL     1     106.573 126.842 142.541  0.00  0.00    +0.000 C 
ATOM     56  C   UNL     1     106.060 127.439 142.788  0.00  0.00    +0.000 C 
ATOM     57  C   UNL     1     105.985 127.611 143.592  0.00  0.00    +0.000 C 
ATOM     58  C   UNL     1     105.622 127.864 142.234  0.00  0.00    +0.000 C 
ENDBRANCH  54  55
ENDBRANCH  10  54
TORSDOF 11
ENDMDL
MODEL 10
REMARK VINA RESULT:      -9.7      2.813      5.068
REMARK  Name = 5748394
REMARK  11 active torsions:
REMARK  status: ('A' for Active; 'I' for Inactive)
REMARK    1  A    between atoms: O_1  and  C_20
REMARK    2  A    between atoms: O_1  and  C_23
REMARK    3  A    between atoms: O_4  and  C_24
REMARK    4  A    between atoms: O_4  and  C_37
REMARK    5  A    between atoms: O_11  and  C_36
REMARK    6  A    between atoms: O_11  and  C_42
REMARK    7  A    between atoms: O_19  and  C_55
REMARK    8  A    between atoms: C_35  and  C_38
REMARK    9  A    between atoms: C_39  and  C_47
REMARK   10  A    between atoms: C_44  and  C_48
REMARK   11  A    between atoms: C_48  and  C_49
REMARK                            x       y       z     vdW  Elec       q    Type
REMARK                         _______ _______ _______ _____ _____    ______ ____
ROOT
ATOM      1  O   UNL     1     111.549 130.468 139.039  0.00  0.00    +0.000 OA
ATOM      2  O   UNL     1     109.710 131.437 140.381  0.00  0.00    +0.000 OA
ATOM      3  O   UNL     1     109.151 132.071 139.212  0.00  0.00    +0.000 OA
ATOM      4  C   UNL     1     110.896 130.645 140.297  0.00  0.00    +0.000 A 
ATOM      5  C   UNL     1     111.509 130.321 139.849  0.00  0.00    +0.000 A 
ATOM      6  C   UNL     1     110.323 131.114 139.934  0.00  0.00    +0.000 A 
ATOM      7  C   UNL     1     110.363 131.261 139.123  0.00  0.00    +0.000 A 
ATOM      8  C   UNL     1     110.436 131.572 137.446  0.00  0.00    +0.000 A 
ATOM      9  C   UNL     1     110.976 130.938 138.675  0.00  0.00    +0.000 A 
ATOM     10  C   UNL     1     111.030 131.084 137.830  0.00  0.00    +0.000 A 
ATOM     11  C   UNL     1     109.761 131.752 138.757  0.00  0.00    +0.000 A 
ATOM     12  C   UNL     1     109.797 131.909 137.912  0.00  0.00    +0.000 A 
ENDROOT
BRANCH   5  13
ATOM     13  C   UNL     1     112.082 129.852 140.212  0.00  0.00    +0.000 A 
ATOM     14  C   UNL     1     112.017 129.030 140.187  0.00  0.00    +0.000 A 
ATOM     15  C   UNL     1     112.719 130.204 140.600  0.00  0.00    +0.000 A 
ATOM     16  C   UNL     1     112.590 128.560 140.550  0.00  0.00    +0.000 A 
ATOM     17  C   UNL     1     113.292 129.734 140.963  0.00  0.00    +0.000 A 
ATOM     18  C   UNL     1     113.227 128.912 140.938  0.00  0.00    +0.000 A 
BRANCH  18  19
ATOM     19  O   UNL     1     113.800 128.442 141.301  0.00  0.00    +0.000 OA
ATOM     20  C   UNL     1     114.273 127.943 140.845  0.00  0.00    +0.000 C 
ENDBRANCH  18  19
ENDBRANCH   5  13
BRANCH   4  21
ATOM     21  O   UNL     1     110.855 130.498 141.107  0.00  0.00    +0.000 OA
BRANCH  21  28
ATOM     22  O   UNL     1     109.779 129.561 141.040  0.00  0.00    +0.000 OA
ATOM     23  O   UNL     1     108.913 130.398 143.201  0.00  0.00    +0.000 OA
ATOM     24  O   UNL     1     108.125 129.182 142.413  0.00  0.00    +0.000 OA
ATOM     25  C   UNL     1     109.884 130.449 142.155  0.00  0.00    +0.000 C 
ATOM     26  C   UNL     1     109.202 130.119 142.481  0.00  0.00    +0.000 C 
ATOM     27  C   UNL     1     108.808 129.511 142.087  0.00  0.00    +0.000 C 
ATOM     28  C   UNL     1     110.173 130.169 141.434  0.00  0.00    +0.000 C 
ATOM     29  C   UNL     1     109.097 129.232 141.366  0.00  0.00    +0.000 C 
ATOM     30  C   UNL     1     108.703 128.623 140.972  0.00  0.00    +0.000 C 
BRANCH  25  31
ATOM     31  O   UNL     1     110.278 131.057 142.549  0.00  0.00    +0.000 OA
BRANCH  31  36
ATOM     32  O   UNL     1     110.920 130.104 143.399  0.00  0.00    +0.000 OA
ATOM     33  O   UNL     1     110.862 132.284 143.484  0.00  0.00    +0.000 OA
ATOM     34  O   UNL     1     111.796 131.944 144.802  0.00  0.00    +0.000 OA
ATOM     35  O   UNL     1     112.146 130.377 145.183  0.00  0.00    +0.000 OA
ATOM     36  C   UNL     1     110.745 130.887 143.207  0.00  0.00    +0.000 C 
ATOM     37  C   UNL     1     111.037 131.501 143.676  0.00  0.00    +0.000 C 
ATOM     38  C   UNL     1     111.504 131.331 144.334  0.00  0.00    +0.000 C 
ATOM     39  C   UNL     1     111.679 130.547 144.525  0.00  0.00    +0.000 C 
ATOM     40  C   UNL     1     111.387 129.934 144.057  0.00  0.00    +0.000 C 
ATOM     41  C   UNL     1     111.561 129.150 144.248  0.00  0.00    +0.000 C 
ENDBRANCH  31  36
ENDBRANCH  25  31
ENDBRANCH  21  28
ENDBRANCH   4  21
BRANCH   8  42
ATOM     42  O   UNL     1     110.479 131.717 136.635  0.00  0.00    +0.000 OA
BRANCH  42  51
ATOM     43  O   UNL     1     109.360 130.955 136.174  0.00  0.00    +0.000 OA
ATOM     44  O   UNL     1     108.656 132.853 134.750  0.00  0.00    +0.000 OA
ATOM     45  O   UNL     1     107.772 131.460 134.764  0.00  0.00    +0.000 OA
ATOM     46  O   UNL     1     110.009 132.981 135.685  0.00  0.00    +0.000 OA
ATOM     47  C   UNL     1     108.891 132.221 135.225  0.00  0.00    +0.000 C 
ATOM     48  C   UNL     1     108.449 131.524 135.232  0.00  0.00    +0.000 C 
ATOM     49  C   UNL     1     109.567 132.285 135.692  0.00  0.00    +0.000 C 
ATOM     50  C   UNL     1     108.683 130.891 135.707  0.00  0.00    +0.000 C 
ATOM     51  C   UNL     1     109.802 131.652 136.167  0.00  0.00    +0.000 C 
BRANCH  50  53
ATOM     52  O   UNL     1     108.622 129.464 135.652  0.00  0.00    +0.000 OA
ATOM     53  C   UNL     1     108.242 130.195 135.714  0.00  0.00    +0.000 C 
ENDBRANCH  50  53
ENDBRANCH  42  51
ENDBRANCH   8  42
BRANCH  10  54
ATOM     54  C   UNL     1     111.646 130.757 137.390  0.00  0.00    +0.000 C 
BRANCH  54  55
ATOM     55  C   UNL     1     112.337 131.190 137.264  0.00  0.00    +0.000 C 
ATOM     56  C   UNL     1     112.966 130.851 136.850  0.00  0.00    +0.000 C 
ATOM     57  C   UNL     1     113.657 131.284 136.724  0.00  0.00    +0.000 C 
ATOM     58  C   UNL     1     112.903 130.081 136.562  0.00  0.00    +0.000 C 
ENDBRANCH  54  55
ENDBRANCH  10  54
TORSDOF 11
ENDMDL
