MODEL 1
REMARK VINA RESULT:      -9.7      0.000      0.000
REMARK  Name = 42607919
REMARK  3 active torsions:
REMARK  status: ('A' for Active; 'I' for Inactive)
REMARK    1  A    between atoms: O_2  and  C_14
REMARK    2  A    between atoms: O_2  and  C_17
REMARK    3  A    between atoms: C_16  and  C_18
REMARK                            x       y       z     vdW  Elec       q    Type
REMARK                         _______ _______ _______ _____ _____    ______ ____
ROOT
ATOM      1  C   UNL     1     109.745 127.393 135.475  0.00  0.00    +0.000 A 
ATOM      2  C   UNL     1     110.868 126.280 135.948  0.00  0.00    +0.000 A 
ATOM      3  C   UNL     1     109.744 127.108 136.250  0.00  0.00    +0.000 A 
ATOM      4  C   UNL     1     110.308 127.120 134.937  0.00  0.00    +0.000 A 
ATOM      5  C   UNL     1     110.305 126.551 136.486  0.00  0.00    +0.000 A 
ATOM      6  C   UNL     1     110.870 126.564 135.173  0.00  0.00    +0.000 A 
ENDROOT
BRANCH   2  11
ATOM      7  O   UNL     1     112.178 125.970 136.428  0.00  0.00    +0.000 OA
ATOM      8  O   UNL     1     111.617 123.560 136.404  0.00  0.00    +0.000 OA
ATOM      9  O   UNL     1     112.933 123.219 136.889  0.00  0.00    +0.000 OA
ATOM     10  O   UNL     1     114.852 125.359 137.407  0.00  0.00    +0.000 OA
ATOM     11  C   UNL     1     111.429 125.723 136.184  0.00  0.00    +0.000 C 
ATOM     12  C   UNL     1     111.242 124.919 136.176  0.00  0.00    +0.000 C 
ATOM     13  C   UNL     1     111.804 124.363 136.412  0.00  0.00    +0.000 C 
ATOM     14  C   UNL     1     112.552 124.611 136.656  0.00  0.00    +0.000 A 
ATOM     15  C   UNL     1     112.739 125.413 136.664  0.00  0.00    +0.000 A 
ATOM     16  C   UNL     1     113.129 124.021 136.900  0.00  0.00    +0.000 A 
ATOM     17  C   UNL     1     113.515 125.684 136.916  0.00  0.00    +0.000 A 
ATOM     18  C   UNL     1     114.104 125.109 137.163  0.00  0.00    +0.000 A 
ATOM     19  C   UNL     1     113.910 124.272 137.155  0.00  0.00    +0.000 A 
ENDBRANCH   2  11
BRANCH   1  20
ATOM     20  O   UNL     1     109.183 127.949 135.239  0.00  0.00    +0.000 OA
BRANCH  20  29
ATOM     21  O   UNL     1     110.004 129.099 135.451  0.00  0.00    +0.000 OA
ATOM     22  O   UNL     1     108.018 130.380 136.189  0.00  0.00    +0.000 OA
ATOM     23  O   UNL     1     109.501 131.103 136.155  0.00  0.00    +0.000 OA
ATOM     24  O   UNL     1     107.860 128.802 135.731  0.00  0.00    +0.000 OA
ATOM     25  C   UNL     1     108.680 129.953 135.943  0.00  0.00    +0.000 C 
ATOM     26  C   UNL     1     109.421 130.314 135.926  0.00  0.00    +0.000 C 
ATOM     27  C   UNL     1     108.601 129.164 135.714  0.00  0.00    +0.000 C 
ATOM     28  C   UNL     1     110.083 129.887 135.680  0.00  0.00    +0.000 C 
ATOM     29  C   UNL     1     109.263 128.738 135.468  0.00  0.00    +0.000 C 
ATOM     30  C   UNL     1     110.824 130.250 135.664  0.00  0.00    +0.000 C 
ENDBRANCH  20  29
ENDBRANCH   1  20
TORSDOF 3
ENDMDL
MODEL 2
REMARK VINA RESULT:      -9.6      4.101      5.220
REMARK  Name = 42607919
REMARK  3 active torsions:
REMARK  status: ('A' for Active; 'I' for Inactive)
REMARK    1  A    between atoms: O_2  and  C_14
REMARK    2  A    between atoms: O_2  and  C_17
REMARK    3  A    between atoms: C_16  and  C_18
REMARK                            x       y       z     vdW  Elec       q    Type
REMARK                         _______ _______ _______ _____ _____    ______ ____
ROOT
ATOM      1  C   UNL     1     113.178 127.881 140.630  0.00  0.00    +0.000 A 
ATOM      2  C   UNL     1     113.332 126.788 139.403  0.00  0.00    +0.000 A 
ATOM      3  C   UNL     1     112.765 127.991 139.924  0.00  0.00    +0.000 A 
ATOM      4  C   UNL     1     113.669 127.223 140.722  0.00  0.00    +0.000 A 
ATOM      5  C   UNL     1     112.842 127.445 139.311  0.00  0.00    +0.000 A 
ATOM      6  C   UNL     1     113.745 126.677 140.108  0.00  0.00    +0.000 A 
ENDROOT
BRANCH   2  11
ATOM      7  O   UNL     1     112.737 125.902 138.453  0.00  0.00    +0.000 OA
ATOM      8  O   UNL     1     114.984 125.284 137.621  0.00  0.00    +0.000 OA
ATOM      9  O   UNL     1     114.410 124.382 136.653  0.00  0.00    +0.000 OA
ATOM     10  O   UNL     1     111.505 124.100 136.524  0.00  0.00    +0.000 OA
ATOM     11  C   UNL     1     113.409 126.242 138.789  0.00  0.00    +0.000 C 
ATOM     12  C   UNL     1     114.159 126.036 138.512  0.00  0.00    +0.000 C 
ATOM     13  C   UNL     1     114.235 125.489 137.898  0.00  0.00    +0.000 C 
ATOM     14  C   UNL     1     113.563 125.150 137.562  0.00  0.00    +0.000 A 
ATOM     15  C   UNL     1     112.814 125.355 137.839  0.00  0.00    +0.000 A 
ATOM     16  C   UNL     1     113.656 124.582 136.923  0.00  0.00    +0.000 A 
ATOM     17  C   UNL     1     112.106 125.008 137.497  0.00  0.00    +0.000 A 
ATOM     18  C   UNL     1     112.179 124.439 136.858  0.00  0.00    +0.000 A 
ATOM     19  C   UNL     1     112.960 124.224 136.569  0.00  0.00    +0.000 A 
ENDBRANCH   2  11
BRANCH   1  20
ATOM     20  O   UNL     1     113.101 128.427 141.243  0.00  0.00    +0.000 OA
BRANCH  20  29
ATOM     21  O   UNL     1     114.196 129.237 140.812  0.00  0.00    +0.000 OA
ATOM     22  O   UNL     1     113.089 131.238 141.760  0.00  0.00    +0.000 OA
ATOM     23  O   UNL     1     114.553 131.381 141.013  0.00  0.00    +0.000 OA
ATOM     24  O   UNL     1     112.363 129.760 141.875  0.00  0.00    +0.000 OA
ATOM     25  C   UNL     1     113.458 130.571 141.444  0.00  0.00    +0.000 C 
ATOM     26  C   UNL     1     114.190 130.642 141.071  0.00  0.00    +0.000 C 
ATOM     27  C   UNL     1     113.096 129.832 141.501  0.00  0.00    +0.000 C 
ATOM     28  C   UNL     1     114.559 129.975 140.755  0.00  0.00    +0.000 C 
ATOM     29  C   UNL     1     113.465 129.165 141.185  0.00  0.00    +0.000 C 
ATOM     30  C   UNL     1     115.292 130.048 140.381  0.00  0.00    +0.000 C 
ENDBRANCH  20  29
ENDBRANCH   1  20
TORSDOF 3
ENDMDL
MODEL 3
REMARK VINA RESULT:      -9.6      0.680      5.645
REMARK  Name = 42607919
REMARK  3 active torsions:
REMARK  status: ('A' for Active; 'I' for Inactive)
REMARK    1  A    between atoms: O_2  and  C_14
REMARK    2  A    between atoms: O_2  and  C_17
REMARK    3  A    between atoms: C_16  and  C_18
REMARK                            x       y       z     vdW  Elec       q    Type
REMARK                         _______ _______ _______ _____ _____    ______ ____
ROOT
ATOM      1  C   UNL     1     110.925 125.537 135.852  0.00  0.00    +0.000 A 
ATOM      2  C   UNL     1     110.186 127.012 135.897  0.00  0.00    +0.000 A 
ATOM      3  C   UNL     1     110.557 125.794 136.544  0.00  0.00    +0.000 A 
ATOM      4  C   UNL     1     110.924 126.019 135.182  0.00  0.00    +0.000 A 
ATOM      5  C   UNL     1     110.187 126.531 136.566  0.00  0.00    +0.000 A 
ATOM      6  C   UNL     1     110.554 126.756 135.204  0.00  0.00    +0.000 A 
ENDROOT
BRANCH   2  11
ATOM      7  O   UNL     1     110.263 128.431 136.043  0.00  0.00    +0.000 OA
ATOM      8  O   UNL     1     107.813 128.596 135.739  0.00  0.00    +0.000 OA
ATOM      9  O   UNL     1     107.862 130.031 135.883  0.00  0.00    +0.000 OA
ATOM     10  O   UNL     1     110.441 131.323 136.342  0.00  0.00    +0.000 OA
ATOM     11  C   UNL     1     109.816 127.749 135.919  0.00  0.00    +0.000 C 
ATOM     12  C   UNL     1     108.999 127.804 135.818  0.00  0.00    +0.000 C 
ATOM     13  C   UNL     1     108.629 128.541 135.840  0.00  0.00    +0.000 C 
ATOM     14  C   UNL     1     109.077 129.223 135.964  0.00  0.00    +0.000 A 
ATOM     15  C   UNL     1     109.893 129.168 136.065  0.00  0.00    +0.000 A 
ATOM     16  C   UNL     1     108.680 129.986 135.985  0.00  0.00    +0.000 A 
ATOM     17  C   UNL     1     110.370 129.872 136.194  0.00  0.00    +0.000 A 
ATOM     18  C   UNL     1     109.991 130.642 136.219  0.00  0.00    +0.000 A 
ATOM     19  C   UNL     1     109.140 130.699 136.113  0.00  0.00    +0.000 A 
ENDBRANCH   2  11
BRANCH   1  20
ATOM     20  O   UNL     1     111.295 124.800 135.830  0.00  0.00    +0.000 OA
BRANCH  20  29
ATOM     21  O   UNL     1     112.597 125.291 136.156  0.00  0.00    +0.000 OA
ATOM     22  O   UNL     1     113.086 123.188 137.366  0.00  0.00    +0.000 OA
ATOM     23  O   UNL     1     114.225 124.379 137.289  0.00  0.00    +0.000 OA
ATOM     24  O   UNL     1     111.621 123.398 136.636  0.00  0.00    +0.000 OA
ATOM     25  C   UNL     1     112.923 123.889 136.962  0.00  0.00    +0.000 C 
ATOM     26  C   UNL     1     113.492 124.485 136.924  0.00  0.00    +0.000 C 
ATOM     27  C   UNL     1     112.191 123.994 136.598  0.00  0.00    +0.000 C 
ATOM     28  C   UNL     1     113.329 125.186 136.521  0.00  0.00    +0.000 C 
ATOM     29  C   UNL     1     112.028 124.695 136.194  0.00  0.00    +0.000 C 
ATOM     30  C   UNL     1     113.899 125.781 136.483  0.00  0.00    +0.000 C 
ENDBRANCH  20  29
ENDBRANCH   1  20
TORSDOF 3
ENDMDL
MODEL 4
REMARK VINA RESULT:      -9.3      1.847      2.996
REMARK  Name = 42607919
REMARK  3 active torsions:
REMARK  status: ('A' for Active; 'I' for Inactive)
REMARK    1  A    between atoms: O_2  and  C_14
REMARK    2  A    between atoms: O_2  and  C_17
REMARK    3  A    between atoms: C_16  and  C_18
REMARK                            x       y       z     vdW  Elec       q    Type
REMARK                         _______ _______ _______ _____ _____    ______ ____
ROOT
ATOM      1  C   UNL     1     113.125 129.282 136.798  0.00  0.00    +0.000 A 
ATOM      2  C   UNL     1     113.241 127.637 136.870  0.00  0.00    +0.000 A 
ATOM      3  C   UNL     1     112.976 128.888 137.507  0.00  0.00    +0.000 A 
ATOM      4  C   UNL     1     113.332 128.852 136.124  0.00  0.00    +0.000 A 
ATOM      5  C   UNL     1     113.034 128.066 137.543  0.00  0.00    +0.000 A 
ATOM      6  C   UNL     1     113.390 128.030 136.160  0.00  0.00    +0.000 A 
ENDROOT
BRANCH   2  11
ATOM      7  O   UNL     1     112.677 126.345 136.635  0.00  0.00    +0.000 OA
ATOM      8  O   UNL     1     114.716 125.288 137.557  0.00  0.00    +0.000 OA
ATOM      9  O   UNL     1     114.170 123.971 137.331  0.00  0.00    +0.000 OA
ATOM     10  O   UNL     1     111.511 123.721 136.149  0.00  0.00    +0.000 OA
ATOM     11  C   UNL     1     113.299 126.815 136.906  0.00  0.00    +0.000 C 
ATOM     12  C   UNL     1     113.979 126.462 137.214  0.00  0.00    +0.000 C 
ATOM     13  C   UNL     1     114.036 125.640 137.250  0.00  0.00    +0.000 C 
ATOM     14  C   UNL     1     113.414 125.171 136.979  0.00  0.00    +0.000 A 
ATOM     15  C   UNL     1     112.735 125.523 136.671  0.00  0.00    +0.000 A 
ATOM     16  C   UNL     1     113.486 124.315 137.022  0.00  0.00    +0.000 A 
ATOM     17  C   UNL     1     112.080 125.045 136.386  0.00  0.00    +0.000 A 
ATOM     18  C   UNL     1     112.134 124.188 136.420  0.00  0.00    +0.000 A 
ATOM     19  C   UNL     1     112.843 123.821 136.741  0.00  0.00    +0.000 A 
ENDBRANCH   2  11
BRANCH   1  20
ATOM     20  O   UNL     1     113.067 130.104 136.762  0.00  0.00    +0.000 OA
BRANCH  20  29
ATOM     21  O   UNL     1     111.731 130.179 136.262  0.00  0.00    +0.000 OA
ATOM     22  O   UNL     1     111.291 132.122 137.730  0.00  0.00    +0.000 OA
ATOM     23  O   UNL     1     110.101 131.549 136.741  0.00  0.00    +0.000 OA
ATOM     24  O   UNL     1     112.774 131.400 137.740  0.00  0.00    +0.000 OA
ATOM     25  C   UNL     1     111.438 131.475 137.241  0.00  0.00    +0.000 C 
ATOM     26  C   UNL     1     110.843 131.188 136.746  0.00  0.00    +0.000 C 
ATOM     27  C   UNL     1     112.179 131.113 137.245  0.00  0.00    +0.000 C 
ATOM     28  C   UNL     1     110.990 130.540 136.257  0.00  0.00    +0.000 C 
ATOM     29  C   UNL     1     112.325 130.465 136.756  0.00  0.00    +0.000 C 
ATOM     30  C   UNL     1     110.394 130.253 135.763  0.00  0.00    +0.000 C 
ENDBRANCH  20  29
ENDBRANCH   1  20
TORSDOF 3
ENDMDL
MODEL 5
REMARK VINA RESULT:      -9.2      1.153      1.872
REMARK  Name = 42607919
REMARK  3 active torsions:
REMARK  status: ('A' for Active; 'I' for Inactive)
REMARK    1  A    between atoms: O_2  and  C_14
REMARK    2  A    between atoms: O_2  and  C_17
REMARK    3  A    between atoms: C_16  and  C_18
REMARK                            x       y       z     vdW  Elec       q    Type
REMARK                         _______ _______ _______ _____ _____    ______ ____
ROOT
ATOM      1  C   UNL     1     109.168 129.200 135.331  0.00  0.00    +0.000 A 
ATOM      2  C   UNL     1     110.062 127.835 135.577  0.00  0.00    +0.000 A 
ATOM      3  C   UNL     1     109.833 129.053 134.866  0.00  0.00    +0.000 A 
ATOM      4  C   UNL     1     108.949 128.664 135.920  0.00  0.00    +0.000 A 
ATOM      5  C   UNL     1     110.280 128.370 134.989  0.00  0.00    +0.000 A 
ATOM      6  C   UNL     1     109.396 127.981 136.043  0.00  0.00    +0.000 A 
ENDROOT
BRANCH   2  11
ATOM      7  O   UNL     1     111.255 127.205 136.047  0.00  0.00    +0.000 OA
ATOM      8  O   UNL     1     110.356 125.000 135.374  0.00  0.00    +0.000 OA
ATOM      9  O   UNL     1     111.551 124.338 135.841  0.00  0.00    +0.000 OA
ATOM     10  O   UNL     1     113.695 125.940 137.011  0.00  0.00    +0.000 OA
ATOM     11  C   UNL     1     110.508 127.153 135.700  0.00  0.00    +0.000 C 
ATOM     12  C   UNL     1     110.209 126.417 135.475  0.00  0.00    +0.000 C 
ATOM     13  C   UNL     1     110.656 125.734 135.598  0.00  0.00    +0.000 C 
ATOM     14  C   UNL     1     111.402 125.788 135.946  0.00  0.00    +0.000 A 
ATOM     15  C   UNL     1     111.702 126.522 136.170  0.00  0.00    +0.000 A 
ATOM     16  C   UNL     1     111.859 125.069 136.068  0.00  0.00    +0.000 A 
ATOM     17  C   UNL     1     112.478 126.591 136.533  0.00  0.00    +0.000 A 
ATOM     18  C   UNL     1     112.949 125.884 136.663  0.00  0.00    +0.000 A 
ATOM     19  C   UNL     1     112.636 125.117 136.429  0.00  0.00    +0.000 A 
ENDBRANCH   2  11
BRANCH   1  20
ATOM     20  O   UNL     1     108.721 129.883 135.209  0.00  0.00    +0.000 OA
BRANCH  20  29
ATOM     21  O   UNL     1     109.541 130.805 135.928  0.00  0.00    +0.000 OA
ATOM     22  O   UNL     1     107.515 131.871 136.871  0.00  0.00    +0.000 OA
ATOM     23  O   UNL     1     109.011 132.438 137.276  0.00  0.00    +0.000 OA
ATOM     24  O   UNL     1     107.370 130.593 135.837  0.00  0.00    +0.000 OA
ATOM     25  C   UNL     1     108.191 131.516 136.556  0.00  0.00    +0.000 C 
ATOM     26  C   UNL     1     108.938 131.799 136.759  0.00  0.00    +0.000 C 
ATOM     27  C   UNL     1     108.119 130.877 136.040  0.00  0.00    +0.000 C 
ATOM     28  C   UNL     1     109.614 131.444 136.445  0.00  0.00    +0.000 C 
ATOM     29  C   UNL     1     108.794 130.522 135.725  0.00  0.00    +0.000 C 
ATOM     30  C   UNL     1     110.361 131.728 136.648  0.00  0.00    +0.000 C 
ENDBRANCH  20  29
ENDBRANCH   1  20
TORSDOF 3
ENDMDL
