MODEL 1
REMARK VINA RESULT:     -11.0      0.000      0.000
REMARK  Name = 44258275
REMARK  11 active torsions:
REMARK  status: ('A' for Active; 'I' for Inactive)
REMARK    1  A    between atoms: O_3  and  C_27
REMARK    2  A    between atoms: O_3  and  C_32
REMARK    3  A    between atoms: O_6  and  C_30
REMARK    4  A    between atoms: O_6  and  C_40
REMARK    5  A    between atoms: O_12  and  C_37
REMARK    6  A    between atoms: O_12  and  C_41
REMARK    7  A    between atoms: O_18  and  C_47
REMARK    8  A    between atoms: O_19  and  C_48
REMARK    9  A    between atoms: C_22  and  C_32
REMARK   10  A    between atoms: C_35  and  C_39
REMARK   11  A    between atoms: C_49  and  C_50
REMARK                            x       y       z     vdW  Elec       q    Type
REMARK                         _______ _______ _______ _____ _____    ______ ____
ROOT
ATOM      1  O   UNL     1     112.956 128.620 138.405  0.00  0.00    +0.000 OA
ATOM      2  O   UNL     1     113.894 128.981 135.696  0.00  0.00    +0.000 OA
ATOM      3  O   UNL     1     113.772 130.101 136.598  0.00  0.00    +0.000 OA
ATOM      4  C   UNL     1     113.259 127.123 136.773  0.00  0.00    +0.000 A 
ATOM      5  C   UNL     1     113.060 127.458 137.540  0.00  0.00    +0.000 A 
ATOM      6  C   UNL     1     113.542 127.637 136.146  0.00  0.00    +0.000 A 
ATOM      7  C   UNL     1     113.148 128.303 137.668  0.00  0.00    +0.000 A 
ATOM      8  C   UNL     1     113.420 128.797 137.065  0.00  0.00    +0.000 A 
ATOM      9  C   UNL     1     113.623 128.480 136.293  0.00  0.00    +0.000 A 
ATOM     10  C   UNL     1     113.036 129.430 138.540  0.00  0.00    +0.000 A 
ATOM     11  C   UNL     1     113.500 129.607 137.200  0.00  0.00    +0.000 A 
ATOM     12  C   UNL     1     113.308 129.923 137.937  0.00  0.00    +0.000 A 
ENDROOT
BRANCH  10  16
ATOM     13  C   UNL     1     112.460 130.379 140.752  0.00  0.00    +0.000 A 
ATOM     14  C   UNL     1     111.871 130.263 140.187  0.00  0.00    +0.000 A 
ATOM     15  C   UNL     1     113.241 130.177 140.580  0.00  0.00    +0.000 A 
ATOM     16  C   UNL     1     112.844 129.746 139.277  0.00  0.00    +0.000 A 
ATOM     17  C   UNL     1     112.063 129.947 139.449  0.00  0.00    +0.000 A 
ATOM     18  C   UNL     1     113.434 129.861 139.843  0.00  0.00    +0.000 A 
BRANCH  14  19
ATOM     19  O   UNL     1     111.090 130.464 140.358  0.00  0.00    +0.000 OA
ATOM     20  C   UNL     1     110.578 130.689 139.751  0.00  0.00    +0.000 C 
ENDBRANCH  14  19
BRANCH  15  21
ATOM     21  O   UNL     1     113.831 130.293 141.145  0.00  0.00    +0.000 OA
ATOM     22  C   UNL     1     114.604 130.455 140.909  0.00  0.00    +0.000 C 
ENDBRANCH  15  21
BRANCH  13  23
ATOM     23  O   UNL     1     112.268 130.695 141.489  0.00  0.00    +0.000 OA
BRANCH  23  32
ATOM     24  O   UNL     1     112.027 129.380 141.995  0.00  0.00    +0.000 OA
ATOM     25  O   UNL     1     111.534 128.689 144.006  0.00  0.00    +0.000 OA
ATOM     26  O   UNL     1     111.648 130.316 144.253  0.00  0.00    +0.000 OA
ATOM     27  O   UNL     1     112.015 131.319 142.995  0.00  0.00    +0.000 OA
ATOM     28  C   UNL     1     111.718 129.191 143.377  0.00  0.00    +0.000 C 
ATOM     29  C   UNL     1     111.775 130.004 143.500  0.00  0.00    +0.000 C 
ATOM     30  C   UNL     1     111.844 128.879 142.624  0.00  0.00    +0.000 C 
ATOM     31  C   UNL     1     111.958 130.506 142.871  0.00  0.00    +0.000 C 
ATOM     32  C   UNL     1     112.085 130.194 142.118  0.00  0.00    +0.000 C 
BRANCH  30  34
ATOM     33  O   UNL     1     111.097 127.744 142.181  0.00  0.00    +0.000 OA
ATOM     34  C   UNL     1     111.787 128.065 142.499  0.00  0.00    +0.000 C 
ENDBRANCH  30  34
ENDBRANCH  23  32
ENDBRANCH  13  23
ENDBRANCH  10  16
BRANCH   4  35
ATOM     35  O   UNL     1     113.177 126.312 136.641  0.00  0.00    +0.000 OA
BRANCH  35  44
ATOM     36  O   UNL     1     111.881 126.525 136.078  0.00  0.00    +0.000 OA
ATOM     37  O   UNL     1     110.329 125.107 135.491  0.00  0.00    +0.000 OA
ATOM     38  O   UNL     1     111.496 124.080 136.042  0.00  0.00    +0.000 OA
ATOM     39  O   UNL     1     112.920 124.682 136.617  0.00  0.00    +0.000 OA
ATOM     40  C   UNL     1     111.169 126.224 135.790  0.00  0.00    +0.000 C 
ATOM     41  C   UNL     1     111.041 125.409 135.778  0.00  0.00    +0.000 C 
ATOM     42  C   UNL     1     111.624 124.895 136.054  0.00  0.00    +0.000 C 
ATOM     43  C   UNL     1     112.336 125.196 136.342  0.00  0.00    +0.000 C 
ATOM     44  C   UNL     1     112.465 126.011 136.354  0.00  0.00    +0.000 C 
BRANCH  40  45
ATOM     45  C   UNL     1     110.585 126.737 135.515  0.00  0.00    +0.000 C 
BRANCH  45  46
ATOM     46  O   UNL     1     110.154 127.195 136.048  0.00  0.00    +0.000 OA
BRANCH  46  52
ATOM     47  O   UNL     1     110.285 128.447 135.373  0.00  0.00    +0.000 OA
ATOM     48  O   UNL     1     108.592 127.566 136.432  0.00  0.00    +0.000 OA
ATOM     49  O   UNL     1     107.944 129.004 135.949  0.00  0.00    +0.000 OA
ATOM     50  O   UNL     1     108.856 130.071 135.082  0.00  0.00    +0.000 OA
ATOM     51  C   UNL     1     109.048 128.100 135.998  0.00  0.00    +0.000 C 
ATOM     52  C   UNL     1     109.829 127.915 135.806  0.00  0.00    +0.000 C 
ATOM     53  C   UNL     1     108.724 128.819 135.757  0.00  0.00    +0.000 C 
ATOM     54  C   UNL     1     109.180 129.353 135.323  0.00  0.00    +0.000 C 
ATOM     55  C   UNL     1     109.961 129.167 135.131  0.00  0.00    +0.000 C 
ATOM     56  C   UNL     1     110.417 129.700 134.698  0.00  0.00    +0.000 C 
ENDBRANCH  46  52
ENDBRANCH  45  46
ENDBRANCH  40  45
ENDBRANCH  35  44
ENDBRANCH   4  35
TORSDOF 11
ENDMDL
MODEL 2
REMARK VINA RESULT:     -10.5      5.333      8.554
REMARK  Name = 44258275
REMARK  11 active torsions:
REMARK  status: ('A' for Active; 'I' for Inactive)
REMARK    1  A    between atoms: O_3  and  C_27
REMARK    2  A    between atoms: O_3  and  C_32
REMARK    3  A    between atoms: O_6  and  C_30
REMARK    4  A    between atoms: O_6  and  C_40
REMARK    5  A    between atoms: O_12  and  C_37
REMARK    6  A    between atoms: O_12  and  C_41
REMARK    7  A    between atoms: O_18  and  C_47
REMARK    8  A    between atoms: O_19  and  C_48
REMARK    9  A    between atoms: C_22  and  C_32
REMARK   10  A    between atoms: C_35  and  C_39
REMARK   11  A    between atoms: C_49  and  C_50
REMARK                            x       y       z     vdW  Elec       q    Type
REMARK                         _______ _______ _______ _____ _____    ______ ____
ROOT
ATOM      1  O   UNL     1     108.012 129.142 145.483  0.00  0.00    +0.000 OA
ATOM      2  O   UNL     1     105.564 129.280 147.013  0.00  0.00    +0.000 OA
ATOM      3  O   UNL     1     106.039 130.417 146.260  0.00  0.00    +0.000 OA
ATOM      4  C   UNL     1     107.009 127.590 146.740  0.00  0.00    +0.000 A 
ATOM      5  C   UNL     1     107.581 127.968 146.221  0.00  0.00    +0.000 A 
ATOM      6  C   UNL     1     106.324 128.033 147.009  0.00  0.00    +0.000 A 
ATOM      7  C   UNL     1     107.460 128.784 145.980  0.00  0.00    +0.000 A 
ATOM      8  C   UNL     1     106.802 129.209 146.240  0.00  0.00    +0.000 A 
ATOM      9  C   UNL     1     106.220 128.848 146.758  0.00  0.00    +0.000 A 
ATOM     10  C   UNL     1     107.906 129.925 145.245  0.00  0.00    +0.000 A 
ATOM     11  C   UNL     1     106.696 129.991 146.002  0.00  0.00    +0.000 A 
ATOM     12  C   UNL     1     107.248 130.349 145.504  0.00  0.00    +0.000 A 
ENDROOT
BRANCH  10  16
ATOM     13  C   UNL     1     109.564 130.999 143.753  0.00  0.00    +0.000 A 
ATOM     14  C   UNL     1     109.652 131.049 144.571  0.00  0.00    +0.000 A 
ATOM     15  C   UNL     1     108.923 130.590 143.432  0.00  0.00    +0.000 A 
ATOM     16  C   UNL     1     108.459 130.283 144.747  0.00  0.00    +0.000 A 
ATOM     17  C   UNL     1     109.099 130.691 145.068  0.00  0.00    +0.000 A 
ATOM     18  C   UNL     1     108.370 130.232 143.928  0.00  0.00    +0.000 A 
BRANCH  14  19
ATOM     19  O   UNL     1     110.292 131.458 144.892  0.00  0.00    +0.000 OA
ATOM     20  C   UNL     1     110.210 131.854 145.611  0.00  0.00    +0.000 C 
ENDBRANCH  14  19
BRANCH  15  21
ATOM     21  O   UNL     1     108.834 130.539 142.613  0.00  0.00    +0.000 OA
ATOM     22  C   UNL     1     108.088 130.413 142.285  0.00  0.00    +0.000 C 
ENDBRANCH  15  21
BRANCH  13  23
ATOM     23  O   UNL     1     110.116 131.357 143.255  0.00  0.00    +0.000 OA
BRANCH  23  32
ATOM     24  O   UNL     1     110.910 130.169 143.278  0.00  0.00    +0.000 OA
ATOM     25  O   UNL     1     112.758 129.664 142.232  0.00  0.00    +0.000 OA
ATOM     26  O   UNL     1     112.491 131.193 141.674  0.00  0.00    +0.000 OA
ATOM     27  O   UNL     1     111.170 132.040 142.186  0.00  0.00    +0.000 OA
ATOM     28  C   UNL     1     112.097 130.087 142.488  0.00  0.00    +0.000 C 
ATOM     29  C   UNL     1     111.964 130.852 142.209  0.00  0.00    +0.000 C 
ATOM     30  C   UNL     1     111.570 129.745 143.022  0.00  0.00    +0.000 C 
ATOM     31  C   UNL     1     111.303 131.275 142.465  0.00  0.00    +0.000 C 
ATOM     32  C   UNL     1     110.776 130.933 143.000  0.00  0.00    +0.000 C 
BRANCH  30  34
ATOM     33  O   UNL     1     111.223 128.359 143.048  0.00  0.00    +0.000 OA
ATOM     34  C   UNL     1     111.703 128.980 143.301  0.00  0.00    +0.000 C 
ENDBRANCH  30  34
ENDBRANCH  23  32
ENDBRANCH  13  23
ENDBRANCH  10  16
BRANCH   4  35
ATOM     35  O   UNL     1     107.118 126.807 146.976  0.00  0.00    +0.000 OA
BRANCH  35  44
ATOM     36  O   UNL     1     106.505 126.283 145.795  0.00  0.00    +0.000 OA
ATOM     37  O   UNL     1     105.501 124.380 145.431  0.00  0.00    +0.000 OA
ATOM     38  O   UNL     1     105.917 124.214 147.019  0.00  0.00    +0.000 OA
ATOM     39  O   UNL     1     106.725 125.427 147.792  0.00  0.00    +0.000 OA
ATOM     40  C   UNL     1     106.101 125.676 145.409  0.00  0.00    +0.000 C 
ATOM     41  C   UNL     1     105.905 124.986 145.818  0.00  0.00    +0.000 C 
ATOM     42  C   UNL     1     106.113 124.903 146.611  0.00  0.00    +0.000 C 
ATOM     43  C   UNL     1     106.517 125.510 146.997  0.00  0.00    +0.000 C 
ATOM     44  C   UNL     1     106.714 126.200 146.590  0.00  0.00    +0.000 C 
BRANCH  40  45
ATOM     45  C   UNL     1     105.894 125.759 144.616  0.00  0.00    +0.000 C 
BRANCH  45  46
ATOM     46  O   UNL     1     106.467 125.960 144.058  0.00  0.00    +0.000 OA
BRANCH  46  52
ATOM     47  O   UNL     1     105.784 127.054 143.444  0.00  0.00    +0.000 OA
ATOM     48  O   UNL     1     106.986 125.452 142.576  0.00  0.00    +0.000 OA
ATOM     49  O   UNL     1     106.562 126.292 141.221  0.00  0.00    +0.000 OA
ATOM     50  O   UNL     1     105.619 127.640 141.348  0.00  0.00    +0.000 OA
ATOM     51  C   UNL     1     106.515 126.126 142.639  0.00  0.00    +0.000 C 
ATOM     52  C   UNL     1     106.255 126.380 143.380  0.00  0.00    +0.000 C 
ATOM     53  C   UNL     1     106.302 126.546 141.962  0.00  0.00    +0.000 C 
ATOM     54  C   UNL     1     105.831 127.220 142.025  0.00  0.00    +0.000 C 
ATOM     55  C   UNL     1     105.571 127.474 142.765  0.00  0.00    +0.000 C 
ATOM     56  C   UNL     1     105.100 128.148 142.829  0.00  0.00    +0.000 C 
ENDBRANCH  46  52
ENDBRANCH  45  46
ENDBRANCH  40  45
ENDBRANCH  35  44
ENDBRANCH   4  35
TORSDOF 11
ENDMDL
MODEL 3
REMARK VINA RESULT:     -10.5      2.288      6.711
REMARK  Name = 44258275
REMARK  11 active torsions:
REMARK  status: ('A' for Active; 'I' for Inactive)
REMARK    1  A    between atoms: O_3  and  C_27
REMARK    2  A    between atoms: O_3  and  C_32
REMARK    3  A    between atoms: O_6  and  C_30
REMARK    4  A    between atoms: O_6  and  C_40
REMARK    5  A    between atoms: O_12  and  C_37
REMARK    6  A    between atoms: O_12  and  C_41
REMARK    7  A    between atoms: O_18  and  C_47
REMARK    8  A    between atoms: O_19  and  C_48
REMARK    9  A    between atoms: C_22  and  C_32
REMARK   10  A    between atoms: C_35  and  C_39
REMARK   11  A    between atoms: C_49  and  C_50
REMARK                            x       y       z     vdW  Elec       q    Type
REMARK                         _______ _______ _______ _____ _____    ______ ____
ROOT
ATOM      1  O   UNL     1     112.550 129.720 139.003  0.00  0.00    +0.000 OA
ATOM      2  O   UNL     1     115.053 130.086 140.402  0.00  0.00    +0.000 OA
ATOM      3  O   UNL     1     114.750 130.834 139.206  0.00  0.00    +0.000 OA
ATOM      4  C   UNL     1     113.323 128.736 140.856  0.00  0.00    +0.000 A 
ATOM      5  C   UNL     1     112.802 128.940 140.202  0.00  0.00    +0.000 A 
ATOM      6  C   UNL     1     114.086 129.124 140.925  0.00  0.00    +0.000 A 
ATOM      7  C   UNL     1     113.053 129.528 139.628  0.00  0.00    +0.000 A 
ATOM      8  C   UNL     1     113.787 129.900 139.696  0.00  0.00    +0.000 A 
ATOM      9  C   UNL     1     114.320 129.709 140.342  0.00  0.00    +0.000 A 
ATOM     10  C   UNL     1     112.780 130.283 138.446  0.00  0.00    +0.000 A 
ATOM     11  C   UNL     1     114.017 130.463 139.139  0.00  0.00    +0.000 A 
ATOM     12  C   UNL     1     113.514 130.654 138.514  0.00  0.00    +0.000 A 
ENDROOT
BRANCH  10  16
ATOM     13  C   UNL     1     111.271 130.857 136.571  0.00  0.00    +0.000 A 
ATOM     14  C   UNL     1     111.863 130.294 136.465  0.00  0.00    +0.000 A 
ATOM     15  C   UNL     1     111.181 131.229 137.302  0.00  0.00    +0.000 A 
ATOM     16  C   UNL     1     112.277 130.475 137.821  0.00  0.00    +0.000 A 
ATOM     17  C   UNL     1     112.366 130.102 137.090  0.00  0.00    +0.000 A 
ATOM     18  C   UNL     1     111.684 131.038 137.927  0.00  0.00    +0.000 A 
BRANCH  14  19
ATOM     19  O   UNL     1     111.953 129.922 135.735  0.00  0.00    +0.000 OA
ATOM     20  C   UNL     1     112.684 129.605 135.520  0.00  0.00    +0.000 C 
ENDBRANCH  14  19
BRANCH  15  21
ATOM     21  O   UNL     1     110.588 131.793 137.408  0.00  0.00    +0.000 OA
ATOM     22  C   UNL     1     110.631 132.324 138.037  0.00  0.00    +0.000 C 
ENDBRANCH  15  21
BRANCH  13  23
ATOM     23  O   UNL     1     110.767 131.049 135.946  0.00  0.00    +0.000 OA
BRANCH  23  32
ATOM     24  O   UNL     1     109.911 129.946 136.253  0.00  0.00    +0.000 OA
ATOM     25  O   UNL     1     107.866 129.507 135.631  0.00  0.00    +0.000 OA
ATOM     26  O   UNL     1     108.127 130.942 134.858  0.00  0.00    +0.000 OA
ATOM     27  O   UNL     1     109.577 131.713 135.016  0.00  0.00    +0.000 OA
ATOM     28  C   UNL     1     108.591 129.893 135.709  0.00  0.00    +0.000 C 
ATOM     29  C   UNL     1     108.722 130.610 135.323  0.00  0.00    +0.000 C 
ATOM     30  C   UNL     1     109.186 129.561 136.174  0.00  0.00    +0.000 C 
ATOM     31  C   UNL     1     109.447 130.995 135.402  0.00  0.00    +0.000 C 
ATOM     32  C   UNL     1     110.042 130.663 135.867  0.00  0.00    +0.000 C 
BRANCH  30  34
ATOM     33  O   UNL     1     109.011 128.821 137.384  0.00  0.00    +0.000 OA
ATOM     34  C   UNL     1     109.056 128.844 136.561  0.00  0.00    +0.000 C 
ENDBRANCH  30  34
ENDBRANCH  23  32
ENDBRANCH  13  23
ENDBRANCH  10  16
BRANCH   4  35
ATOM     35  O   UNL     1     113.089 128.173 141.412  0.00  0.00    +0.000 OA
BRANCH  35  44
ATOM     36  O   UNL     1     112.416 129.001 142.363  0.00  0.00    +0.000 OA
ATOM     37  O   UNL     1     110.489 128.757 143.358  0.00  0.00    +0.000 OA
ATOM     38  O   UNL     1     110.535 127.393 142.430  0.00  0.00    +0.000 OA
ATOM     39  O   UNL     1     111.835 127.101 141.457  0.00  0.00    +0.000 OA
ATOM     40  C   UNL     1     111.766 129.147 142.849  0.00  0.00    +0.000 C 
ATOM     41  C   UNL     1     111.139 128.611 142.871  0.00  0.00    +0.000 C 
ATOM     42  C   UNL     1     111.162 127.929 142.408  0.00  0.00    +0.000 C 
ATOM     43  C   UNL     1     111.812 127.784 141.921  0.00  0.00    +0.000 C 
ATOM     44  C   UNL     1     112.439 128.319 141.898  0.00  0.00    +0.000 C 
BRANCH  40  45
ATOM     45  C   UNL     1     111.743 129.828 143.313  0.00  0.00    +0.000 C 
BRANCH  45  46
ATOM     46  O   UNL     1     112.024 130.543 143.010  0.00  0.00    +0.000 OA
BRANCH  46  52
ATOM     47  O   UNL     1     111.987 131.170 144.294  0.00  0.00    +0.000 OA
ATOM     48  O   UNL     1     111.971 132.024 142.285  0.00  0.00    +0.000 OA
ATOM     49  O   UNL     1     111.908 133.392 143.205  0.00  0.00    +0.000 OA
ATOM     50  O   UNL     1     111.897 133.278 144.852  0.00  0.00    +0.000 OA
ATOM     51  C   UNL     1     111.966 131.968 143.108  0.00  0.00    +0.000 C 
ATOM     52  C   UNL     1     111.992 131.227 143.471  0.00  0.00    +0.000 C 
ATOM     53  C   UNL     1     111.934 132.651 143.568  0.00  0.00    +0.000 C 
ATOM     54  C   UNL     1     111.929 132.595 144.391  0.00  0.00    +0.000 C 
ATOM     55  C   UNL     1     111.955 131.855 144.754  0.00  0.00    +0.000 C 
ATOM     56  C   UNL     1     111.950 131.797 145.577  0.00  0.00    +0.000 C 
ENDBRANCH  46  52
ENDBRANCH  45  46
ENDBRANCH  40  45
ENDBRANCH  35  44
ENDBRANCH   4  35
TORSDOF 11
ENDMDL
MODEL 4
REMARK VINA RESULT:     -10.5      2.844      3.758
REMARK  Name = 44258275
REMARK  11 active torsions:
REMARK  status: ('A' for Active; 'I' for Inactive)
REMARK    1  A    between atoms: O_3  and  C_27
REMARK    2  A    between atoms: O_3  and  C_32
REMARK    3  A    between atoms: O_6  and  C_30
REMARK    4  A    between atoms: O_6  and  C_40
REMARK    5  A    between atoms: O_12  and  C_37
REMARK    6  A    between atoms: O_12  and  C_41
REMARK    7  A    between atoms: O_18  and  C_47
REMARK    8  A    between atoms: O_19  and  C_48
REMARK    9  A    between atoms: C_22  and  C_32
REMARK   10  A    between atoms: C_35  and  C_39
REMARK   11  A    between atoms: C_49  and  C_50
REMARK                            x       y       z     vdW  Elec       q    Type
REMARK                         _______ _______ _______ _____ _____    ______ ____
ROOT
ATOM      1  O   UNL     1     112.660 128.675 136.529  0.00  0.00    +0.000 OA
ATOM      2  O   UNL     1     114.962 127.845 134.992  0.00  0.00    +0.000 OA
ATOM      3  O   UNL     1     114.220 129.032 134.642  0.00  0.00    +0.000 OA
ATOM      4  C   UNL     1     114.012 126.915 136.795  0.00  0.00    +0.000 A 
ATOM      5  C   UNL     1     113.370 127.472 136.926  0.00  0.00    +0.000 A 
ATOM      6  C   UNL     1     114.553 127.040 136.140  0.00  0.00    +0.000 A 
ATOM      7  C   UNL     1     113.278 128.144 136.399  0.00  0.00    +0.000 A 
ATOM      8  C   UNL     1     113.799 128.263 135.770  0.00  0.00    +0.000 A 
ATOM      9  C   UNL     1     114.446 127.718 135.624  0.00  0.00    +0.000 A 
ATOM     10  C   UNL     1     112.562 129.325 136.030  0.00  0.00    +0.000 A 
ATOM     11  C   UNL     1     113.701 128.913 135.271  0.00  0.00    +0.000 A 
ATOM     12  C   UNL     1     113.083 129.444 135.401  0.00  0.00    +0.000 A 
ENDROOT
BRANCH  10  16
ATOM     13  C   UNL     1     110.707 130.916 136.420  0.00  0.00    +0.000 A 
ATOM     14  C   UNL     1     110.584 130.245 135.958  0.00  0.00    +0.000 A 
ATOM     15  C   UNL     1     111.449 131.057 136.752  0.00  0.00    +0.000 A 
ATOM     16  C   UNL     1     111.944 129.855 136.160  0.00  0.00    +0.000 A 
ATOM     17  C   UNL     1     111.202 129.714 135.828  0.00  0.00    +0.000 A 
ATOM     18  C   UNL     1     112.068 130.527 136.623  0.00  0.00    +0.000 A 
BRANCH  14  19
ATOM     19  O   UNL     1     109.843 130.103 135.625  0.00  0.00    +0.000 OA
ATOM     20  C   UNL     1     109.785 129.797 134.861  0.00  0.00    +0.000 C 
ENDBRANCH  14  19
BRANCH  15  21
ATOM     21  O   UNL     1     111.573 131.729 137.214  0.00  0.00    +0.000 OA
ATOM     22  C   UNL     1     112.310 132.099 137.217  0.00  0.00    +0.000 C 
ENDBRANCH  15  21
BRANCH  13  23
ATOM     23  O   UNL     1     110.089 131.447 136.550  0.00  0.00    +0.000 OA
BRANCH  23  32
ATOM     24  O   UNL     1     109.770 130.783 137.774  0.00  0.00    +0.000 OA
ATOM     25  O   UNL     1     108.117 131.074 139.170  0.00  0.00    +0.000 OA
ATOM     26  O   UNL     1     107.769 132.215 138.030  0.00  0.00    +0.000 OA
ATOM     27  O   UNL     1     108.754 132.402 136.720  0.00  0.00    +0.000 OA
ATOM     28  C   UNL     1     108.610 131.167 138.515  0.00  0.00    +0.000 C 
ATOM     29  C   UNL     1     108.436 131.738 137.945  0.00  0.00    +0.000 C 
ATOM     30  C   UNL     1     109.277 130.690 138.429  0.00  0.00    +0.000 C 
ATOM     31  C   UNL     1     108.929 131.831 137.290  0.00  0.00    +0.000 C 
ATOM     32  C   UNL     1     109.596 131.354 137.205  0.00  0.00    +0.000 C 
BRANCH  30  34
ATOM     33  O   UNL     1     109.323 129.321 138.836  0.00  0.00    +0.000 OA
ATOM     34  C   UNL     1     109.452 130.119 138.999  0.00  0.00    +0.000 C 
ENDBRANCH  30  34
ENDBRANCH  23  32
ENDBRANCH  13  23
ENDBRANCH  10  16
BRANCH   4  35
ATOM     35  O   UNL     1     114.107 126.267 137.296  0.00  0.00    +0.000 OA
BRANCH  35  44
ATOM     36  O   UNL     1     112.884 125.634 136.912  0.00  0.00    +0.000 OA
ATOM     37  O   UNL     1     112.345 123.523 136.791  0.00  0.00    +0.000 OA
ATOM     38  O   UNL     1     113.908 123.416 137.308  0.00  0.00    +0.000 OA
ATOM     39  O   UNL     1     114.789 124.788 137.560  0.00  0.00    +0.000 OA
ATOM     40  C   UNL     1     112.443 124.948 136.786  0.00  0.00    +0.000 C 
ATOM     41  C   UNL     1     112.785 124.209 136.918  0.00  0.00    +0.000 C 
ATOM     42  C   UNL     1     113.566 124.155 137.176  0.00  0.00    +0.000 C 
ATOM     43  C   UNL     1     114.007 124.841 137.302  0.00  0.00    +0.000 C 
ATOM     44  C   UNL     1     113.666 125.581 137.170  0.00  0.00    +0.000 C 
BRANCH  40  45
ATOM     45  C   UNL     1     111.662 125.002 136.528  0.00  0.00    +0.000 C 
BRANCH  45  46
ATOM     46  O   UNL     1     111.103 125.398 136.987  0.00  0.00    +0.000 OA
BRANCH  46  52
ATOM     47  O   UNL     1     110.376 125.740 135.805  0.00  0.00    +0.000 OA
ATOM     48  O   UNL     1     109.970 126.169 137.906  0.00  0.00    +0.000 OA
ATOM     49  O   UNL     1     108.677 126.896 137.185  0.00  0.00    +0.000 OA
ATOM     50  O   UNL     1     108.516 126.853 135.543  0.00  0.00    +0.000 OA
ATOM     51  C   UNL     1     109.889 126.148 137.085  0.00  0.00    +0.000 C 
ATOM     52  C   UNL     1     110.456 125.762 136.626  0.00  0.00    +0.000 C 
ATOM     53  C   UNL     1     109.243 126.511 136.725  0.00  0.00    +0.000 C 
ATOM     54  C   UNL     1     109.162 126.490 135.904  0.00  0.00    +0.000 C 
ATOM     55  C   UNL     1     109.729 126.104 135.444  0.00  0.00    +0.000 C 
ATOM     56  C   UNL     1     109.649 126.083 134.623  0.00  0.00    +0.000 C 
ENDBRANCH  46  52
ENDBRANCH  45  46
ENDBRANCH  40  45
ENDBRANCH  35  44
ENDBRANCH   4  35
TORSDOF 11
ENDMDL
MODEL 5
REMARK VINA RESULT:     -10.4      1.055      1.393
REMARK  Name = 44258275
REMARK  11 active torsions:
REMARK  status: ('A' for Active; 'I' for Inactive)
REMARK    1  A    between atoms: O_3  and  C_27
REMARK    2  A    between atoms: O_3  and  C_32
REMARK    3  A    between atoms: O_6  and  C_30
REMARK    4  A    between atoms: O_6  and  C_40
REMARK    5  A    between atoms: O_12  and  C_37
REMARK    6  A    between atoms: O_12  and  C_41
REMARK    7  A    between atoms: O_18  and  C_47
REMARK    8  A    between atoms: O_19  and  C_48
REMARK    9  A    between atoms: C_22  and  C_32
REMARK   10  A    between atoms: C_35  and  C_39
REMARK   11  A    between atoms: C_49  and  C_50
REMARK                            x       y       z     vdW  Elec       q    Type
REMARK                         _______ _______ _______ _____ _____    ______ ____
ROOT
ATOM      1  O   UNL     1     113.170 128.361 138.330  0.00  0.00    +0.000 OA
ATOM      2  O   UNL     1     113.430 128.540 135.457  0.00  0.00    +0.000 OA
ATOM      3  O   UNL     1     113.015 129.678 136.241  0.00  0.00    +0.000 OA
ATOM      4  C   UNL     1     113.780 126.811 136.839  0.00  0.00    +0.000 A 
ATOM      5  C   UNL     1     113.591 127.184 137.591  0.00  0.00    +0.000 A 
ATOM      6  C   UNL     1     113.726 127.269 136.114  0.00  0.00    +0.000 A 
ATOM      7  C   UNL     1     113.350 128.008 137.606  0.00  0.00    +0.000 A 
ATOM      8  C   UNL     1     113.299 128.448 136.910  0.00  0.00    +0.000 A 
ATOM      9  C   UNL     1     113.484 128.093 136.149  0.00  0.00    +0.000 A 
ATOM     10  C   UNL     1     112.938 129.152 138.357  0.00  0.00    +0.000 A 
ATOM     11  C   UNL     1     113.067 129.239 136.937  0.00  0.00    +0.000 A 
ATOM     12  C   UNL     1     112.886 129.591 137.661  0.00  0.00    +0.000 A 
ENDROOT
BRANCH  10  16
ATOM     13  C   UNL     1     112.395 130.208 140.529  0.00  0.00    +0.000 A 
ATOM     14  C   UNL     1     111.792 130.027 139.997  0.00  0.00    +0.000 A 
ATOM     15  C   UNL     1     113.179 130.037 140.337  0.00  0.00    +0.000 A 
ATOM     16  C   UNL     1     112.757 129.504 139.081  0.00  0.00    +0.000 A 
ATOM     17  C   UNL     1     111.973 129.675 139.273  0.00  0.00    +0.000 A 
ATOM     18  C   UNL     1     113.360 129.685 139.614  0.00  0.00    +0.000 A 
BRANCH  14  19
ATOM     19  O   UNL     1     111.008 130.197 140.187  0.00  0.00    +0.000 OA
ATOM     20  C   UNL     1     110.457 130.332 139.588  0.00  0.00    +0.000 C 
ENDBRANCH  14  19
BRANCH  15  21
ATOM     21  O   UNL     1     113.782 130.219 140.870  0.00  0.00    +0.000 OA
ATOM     22  C   UNL     1     114.542 130.383 140.593  0.00  0.00    +0.000 C 
ENDBRANCH  15  21
BRANCH  13  23
ATOM     23  O   UNL     1     112.214 130.560 141.253  0.00  0.00    +0.000 OA
BRANCH  23  32
ATOM     24  O   UNL     1     112.046 129.269 141.842  0.00  0.00    +0.000 OA
ATOM     25  O   UNL     1     111.621 128.681 143.900  0.00  0.00    +0.000 OA
ATOM     26  O   UNL     1     111.661 130.324 144.046  0.00  0.00    +0.000 OA
ATOM     27  O   UNL     1     111.957 131.264 142.723  0.00  0.00    +0.000 OA
ATOM     28  C   UNL     1     111.769 129.151 143.238  0.00  0.00    +0.000 C 
ATOM     29  C   UNL     1     111.789 129.972 143.311  0.00  0.00    +0.000 C 
ATOM     30  C   UNL     1     111.897 128.799 142.503  0.00  0.00    +0.000 C 
ATOM     31  C   UNL     1     111.937 130.442 142.650  0.00  0.00    +0.000 C 
ATOM     32  C   UNL     1     112.066 130.090 141.914  0.00  0.00    +0.000 C 
BRANCH  30  34
ATOM     33  O   UNL     1     111.242 127.613 142.050  0.00  0.00    +0.000 OA
ATOM     34  C   UNL     1     111.878 127.978 142.430  0.00  0.00    +0.000 C 
ENDBRANCH  30  34
ENDBRANCH  23  32
ENDBRANCH  13  23
ENDBRANCH  10  16
BRANCH   4  35
ATOM     35  O   UNL     1     114.012 126.020 136.815  0.00  0.00    +0.000 OA
BRANCH  35  44
ATOM     36  O   UNL     1     112.656 125.598 136.654  0.00  0.00    +0.000 OA
ATOM     37  O   UNL     1     111.734 123.633 136.883  0.00  0.00    +0.000 OA
ATOM     38  O   UNL     1     113.306 123.283 137.240  0.00  0.00    +0.000 OA
ATOM     39  O   UNL     1     114.445 124.476 137.206  0.00  0.00    +0.000 OA
ATOM     40  C   UNL     1     112.086 125.002 136.670  0.00  0.00    +0.000 C 
ATOM     41  C   UNL     1     112.304 124.230 136.866  0.00  0.00    +0.000 C 
ATOM     42  C   UNL     1     113.089 124.055 137.044  0.00  0.00    +0.000 C 
ATOM     43  C   UNL     1     113.659 124.651 137.028  0.00  0.00    +0.000 C 
ATOM     44  C   UNL     1     113.443 125.423 136.832  0.00  0.00    +0.000 C 
BRANCH  40  45
ATOM     45  C   UNL     1     111.301 125.177 136.492  0.00  0.00    +0.000 C 
BRANCH  45  46
ATOM     46  O   UNL     1     110.851 125.631 137.013  0.00  0.00    +0.000 OA
BRANCH  46  52
ATOM     47  O   UNL     1     109.971 126.006 135.951  0.00  0.00    +0.000 OA
ATOM     48  O   UNL     1     110.161 126.771 137.987  0.00  0.00    +0.000 OA
ATOM     49  O   UNL     1     108.937 127.716 137.412  0.00  0.00    +0.000 OA
ATOM     50  O   UNL     1     108.402 127.521 135.863  0.00  0.00    +0.000 OA
ATOM     51  C   UNL     1     109.893 126.674 137.212  0.00  0.00    +0.000 C 
ATOM     52  C   UNL     1     110.238 126.104 136.726  0.00  0.00    +0.000 C 
ATOM     53  C   UNL     1     109.281 127.146 136.925  0.00  0.00    +0.000 C 
ATOM     54  C   UNL     1     109.014 127.049 136.151  0.00  0.00    +0.000 C 
ATOM     55  C   UNL     1     109.358 126.479 135.664  0.00  0.00    +0.000 C 
ATOM     56  C   UNL     1     109.092 126.381 134.889  0.00  0.00    +0.000 C 
ENDBRANCH  46  52
ENDBRANCH  45  46
ENDBRANCH  40  45
ENDBRANCH  35  44
ENDBRANCH   4  35
TORSDOF 11
ENDMDL
MODEL 6
REMARK VINA RESULT:     -10.4      3.376      5.329
REMARK  Name = 44258275
REMARK  11 active torsions:
REMARK  status: ('A' for Active; 'I' for Inactive)
REMARK    1  A    between atoms: O_3  and  C_27
REMARK    2  A    between atoms: O_3  and  C_32
REMARK    3  A    between atoms: O_6  and  C_30
REMARK    4  A    between atoms: O_6  and  C_40
REMARK    5  A    between atoms: O_12  and  C_37
REMARK    6  A    between atoms: O_12  and  C_41
REMARK    7  A    between atoms: O_18  and  C_47
REMARK    8  A    between atoms: O_19  and  C_48
REMARK    9  A    between atoms: C_22  and  C_32
REMARK   10  A    between atoms: C_35  and  C_39
REMARK   11  A    between atoms: C_49  and  C_50
REMARK                            x       y       z     vdW  Elec       q    Type
REMARK                         _______ _______ _______ _____ _____    ______ ____
ROOT
ATOM      1  O   UNL     1     109.082 126.678 139.035  0.00  0.00    +0.000 OA
ATOM      2  O   UNL     1     111.252 125.674 137.412  0.00  0.00    +0.000 OA
ATOM      3  O   UNL     1     111.120 125.295 138.798  0.00  0.00    +0.000 OA
ATOM      4  C   UNL     1     109.572 127.060 136.887  0.00  0.00    +0.000 A 
ATOM      5  C   UNL     1     109.166 127.092 137.645  0.00  0.00    +0.000 A 
ATOM      6  C   UNL     1     110.279 126.579 136.806  0.00  0.00    +0.000 A 
ATOM      7  C   UNL     1     109.475 126.644 138.310  0.00  0.00    +0.000 A 
ATOM      8  C   UNL     1     110.154 126.183 138.231  0.00  0.00    +0.000 A 
ATOM      9  C   UNL     1     110.573 126.138 137.482  0.00  0.00    +0.000 A 
ATOM     10  C   UNL     1     109.369 126.252 139.680  0.00  0.00    +0.000 A 
ATOM     11  C   UNL     1     110.441 125.756 138.876  0.00  0.00    +0.000 A 
ATOM     12  C   UNL     1     110.048 125.791 139.601  0.00  0.00    +0.000 A 
ENDROOT
BRANCH  10  16
ATOM     13  C   UNL     1     108.190 126.355 141.854  0.00  0.00    +0.000 A 
ATOM     14  C   UNL     1     108.025 125.745 141.324  0.00  0.00    +0.000 A 
ATOM     15  C   UNL     1     108.747 126.931 141.659  0.00  0.00    +0.000 A 
ATOM     16  C   UNL     1     108.976 126.287 140.405  0.00  0.00    +0.000 A 
ATOM     17  C   UNL     1     108.418 125.711 140.600  0.00  0.00    +0.000 A 
ATOM     18  C   UNL     1     109.141 126.898 140.934  0.00  0.00    +0.000 A 
BRANCH  14  19
ATOM     19  O   UNL     1     107.468 125.169 141.519  0.00  0.00    +0.000 OA
ATOM     20  C   UNL     1     107.460 124.450 141.115  0.00  0.00    +0.000 C 
ENDBRANCH  14  19
BRANCH  15  21
ATOM     21  O   UNL     1     108.912 127.542 142.188  0.00  0.00    +0.000 OA
ATOM     22  C   UNL     1     109.620 127.961 142.129  0.00  0.00    +0.000 C 
ENDBRANCH  15  21
BRANCH  13  23
ATOM     23  O   UNL     1     107.797 126.390 142.578  0.00  0.00    +0.000 OA
BRANCH  23  32
ATOM     24  O   UNL     1     106.783 127.222 142.010  0.00  0.00    +0.000 OA
ATOM     25  O   UNL     1     104.835 127.833 142.783  0.00  0.00    +0.000 OA
ATOM     26  O   UNL     1     105.381 126.890 144.022  0.00  0.00    +0.000 OA
ATOM     27  O   UNL     1     106.862 126.168 143.920  0.00  0.00    +0.000 OA
ATOM     28  C   UNL     1     105.576 127.472 142.732  0.00  0.00    +0.000 C 
ATOM     29  C   UNL     1     105.849 127.001 143.351  0.00  0.00    +0.000 C 
ATOM     30  C   UNL     1     106.043 127.583 142.061  0.00  0.00    +0.000 C 
ATOM     31  C   UNL     1     106.589 126.640 143.300  0.00  0.00    +0.000 C 
ATOM     32  C   UNL     1     107.057 126.751 142.629  0.00  0.00    +0.000 C 
BRANCH  30  34
ATOM     33  O   UNL     1     106.054 128.824 141.353  0.00  0.00    +0.000 OA
ATOM     34  C   UNL     1     105.770 128.054 141.442  0.00  0.00    +0.000 C 
ENDBRANCH  30  34
ENDBRANCH  23  32
ENDBRANCH  13  23
ENDBRANCH  10  16
BRANCH   4  35
ATOM     35  O   UNL     1     109.282 127.487 136.244  0.00  0.00    +0.000 OA
BRANCH  35  44
ATOM     36  O   UNL     1     110.046 128.671 136.484  0.00  0.00    +0.000 OA
ATOM     37  O   UNL     1     109.546 130.776 136.198  0.00  0.00    +0.000 OA
ATOM     38  O   UNL     1     108.151 130.053 135.694  0.00  0.00    +0.000 OA
ATOM     39  O   UNL     1     108.019 128.409 135.717  0.00  0.00    +0.000 OA
ATOM     40  C   UNL     1     110.112 129.494 136.473  0.00  0.00    +0.000 C 
ATOM     41  C   UNL     1     109.480 129.954 136.209  0.00  0.00    +0.000 C 
ATOM     42  C   UNL     1     108.783 129.593 135.958  0.00  0.00    +0.000 C 
ATOM     43  C   UNL     1     108.717 128.771 135.969  0.00  0.00    +0.000 C 
ATOM     44  C   UNL     1     109.348 128.309 136.232  0.00  0.00    +0.000 C 
BRANCH  40  45
ATOM     45  C   UNL     1     110.809 129.855 136.725  0.00  0.00    +0.000 C 
BRANCH  45  46
ATOM     46  O   UNL     1     111.133 129.659 137.458  0.00  0.00    +0.000 OA
BRANCH  46  52
ATOM     47  O   UNL     1     112.323 130.379 137.128  0.00  0.00    +0.000 OA
ATOM     48  O   UNL     1     111.716 129.392 138.978  0.00  0.00    +0.000 OA
ATOM     49  O   UNL     1     113.198 129.978 139.408  0.00  0.00    +0.000 OA
ATOM     50  O   UNL     1     114.096 130.831 138.318  0.00  0.00    +0.000 OA
ATOM     51  C   UNL     1     112.166 129.819 138.433  0.00  0.00    +0.000 C 
ATOM     52  C   UNL     1     111.874 129.953 137.673  0.00  0.00    +0.000 C 
ATOM     53  C   UNL     1     112.906 130.112 138.648  0.00  0.00    +0.000 C 
ATOM     54  C   UNL     1     113.355 130.539 138.103  0.00  0.00    +0.000 C 
ATOM     55  C   UNL     1     113.064 130.672 137.343  0.00  0.00    +0.000 C 
ATOM     56  C   UNL     1     113.512 131.098 136.798  0.00  0.00    +0.000 C 
ENDBRANCH  46  52
ENDBRANCH  45  46
ENDBRANCH  40  45
ENDBRANCH  35  44
ENDBRANCH   4  35
TORSDOF 11
ENDMDL
MODEL 7
REMARK VINA RESULT:     -10.3      6.381      8.574
REMARK  Name = 44258275
REMARK  11 active torsions:
REMARK  status: ('A' for Active; 'I' for Inactive)
REMARK    1  A    between atoms: O_3  and  C_27
REMARK    2  A    between atoms: O_3  and  C_32
REMARK    3  A    between atoms: O_6  and  C_30
REMARK    4  A    between atoms: O_6  and  C_40
REMARK    5  A    between atoms: O_12  and  C_37
REMARK    6  A    between atoms: O_12  and  C_41
REMARK    7  A    between atoms: O_18  and  C_47
REMARK    8  A    between atoms: O_19  and  C_48
REMARK    9  A    between atoms: C_22  and  C_32
REMARK   10  A    between atoms: C_35  and  C_39
REMARK   11  A    between atoms: C_49  and  C_50
REMARK                            x       y       z     vdW  Elec       q    Type
REMARK                         _______ _______ _______ _____ _____    ______ ____
ROOT
ATOM      1  O   UNL     1     106.556 126.991 144.042  0.00  0.00    +0.000 OA
ATOM      2  O   UNL     1     105.624 128.686 141.895  0.00  0.00    +0.000 OA
ATOM      3  O   UNL     1     104.759 128.332 142.995  0.00  0.00    +0.000 OA
ATOM      4  C   UNL     1     107.619 127.720 142.216  0.00  0.00    +0.000 A 
ATOM      5  C   UNL     1     107.468 127.315 142.959  0.00  0.00    +0.000 A 
ATOM      6  C   UNL     1     106.995 128.186 141.853  0.00  0.00    +0.000 A 
ATOM      7  C   UNL     1     106.695 127.381 143.328  0.00  0.00    +0.000 A 
ATOM      8  C   UNL     1     106.097 127.829 142.979  0.00  0.00    +0.000 A 
ATOM      9  C   UNL     1     106.229 128.241 142.237  0.00  0.00    +0.000 A 
ATOM     10  C   UNL     1     105.818 127.047 144.405  0.00  0.00    +0.000 A 
ATOM     11  C   UNL     1     105.358 127.885 143.343  0.00  0.00    +0.000 A 
ATOM     12  C   UNL     1     105.219 127.495 144.056  0.00  0.00    +0.000 A 
ENDROOT
BRANCH  10  16
ATOM     13  C   UNL     1     105.400 125.874 146.544  0.00  0.00    +0.000 A 
ATOM     14  C   UNL     1     105.443 125.446 145.841  0.00  0.00    +0.000 A 
ATOM     15  C   UNL     1     105.495 126.694 146.535  0.00  0.00    +0.000 A 
ATOM     16  C   UNL     1     105.678 126.656 145.119  0.00  0.00    +0.000 A 
ATOM     17  C   UNL     1     105.583 125.837 145.128  0.00  0.00    +0.000 A 
ATOM     18  C   UNL     1     105.635 127.085 145.822  0.00  0.00    +0.000 A 
BRANCH  14  19
ATOM     19  O   UNL     1     105.348 124.627 145.850  0.00  0.00    +0.000 OA
ATOM     20  C   UNL     1     105.057 124.238 145.183  0.00  0.00    +0.000 C 
ENDBRANCH  14  19
BRANCH  15  21
ATOM     21  O   UNL     1     105.451 127.122 147.238  0.00  0.00    +0.000 OA
ATOM     22  C   UNL     1     105.352 127.941 147.218  0.00  0.00    +0.000 C 
ENDBRANCH  15  21
BRANCH  13  23
ATOM     23  O   UNL     1     105.260 125.483 147.257  0.00  0.00    +0.000 OA
BRANCH  23  32
ATOM     24  O   UNL     1     106.665 125.284 147.425  0.00  0.00    +0.000 OA
ATOM     25  O   UNL     1     107.796 124.365 149.050  0.00  0.00    +0.000 OA
ATOM     26  O   UNL     1     106.253 124.203 149.611  0.00  0.00    +0.000 OA
ATOM     27  O   UNL     1     104.985 124.762 148.716  0.00  0.00    +0.000 OA
ATOM     28  C   UNL     1     107.162 124.644 148.602  0.00  0.00    +0.000 C 
ATOM     29  C   UNL     1     106.391 124.564 148.882  0.00  0.00    +0.000 C 
ATOM     30  C   UNL     1     107.299 125.005 147.873  0.00  0.00    +0.000 C 
ATOM     31  C   UNL     1     105.757 124.843 148.434  0.00  0.00    +0.000 C 
ATOM     32  C   UNL     1     105.894 125.204 147.705  0.00  0.00    +0.000 C 
BRANCH  30  34
ATOM     33  O   UNL     1     108.387 125.837 147.466  0.00  0.00    +0.000 OA
ATOM     34  C   UNL     1     108.071 125.086 147.591  0.00  0.00    +0.000 C 
ENDBRANCH  30  34
ENDBRANCH  23  32
ENDBRANCH  13  23
ENDBRANCH  10  16
BRANCH   4  35
ATOM     35  O   UNL     1     108.359 127.661 141.855  0.00  0.00    +0.000 OA
BRANCH  35  44
ATOM     36  O   UNL     1     107.989 126.476 141.146  0.00  0.00    +0.000 OA
ATOM     37  O   UNL     1     109.212 124.884 140.290  0.00  0.00    +0.000 OA
ATOM     38  O   UNL     1     110.378 125.865 140.924  0.00  0.00    +0.000 OA
ATOM     39  O   UNL     1     109.951 127.254 141.707  0.00  0.00    +0.000 OA
ATOM     40  C   UNL     1     108.203 125.782 140.755  0.00  0.00    +0.000 C 
ATOM     41  C   UNL     1     108.999 125.578 140.681  0.00  0.00    +0.000 C 
ATOM     42  C   UNL     1     109.581 126.068 140.998  0.00  0.00    +0.000 C 
ATOM     43  C   UNL     1     109.368 126.763 141.389  0.00  0.00    +0.000 C 
ATOM     44  C   UNL     1     108.572 126.967 141.463  0.00  0.00    +0.000 C 
BRANCH  40  45
ATOM     45  C   UNL     1     107.620 125.292 140.438  0.00  0.00    +0.000 C 
BRANCH  45  46
ATOM     46  O   UNL     1     107.015 125.006 140.920  0.00  0.00    +0.000 OA
BRANCH  46  52
ATOM     47  O   UNL     1     106.121 124.855 139.815  0.00  0.00    +0.000 OA
ATOM     48  O   UNL     1     106.144 123.897 141.776  0.00  0.00    +0.000 OA
ATOM     49  O   UNL     1     104.814 123.191 141.100  0.00  0.00    +0.000 OA
ATOM     50  O   UNL     1     104.356 123.595 139.567  0.00  0.00    +0.000 OA
ATOM     51  C   UNL     1     105.914 124.098 141.010  0.00  0.00    +0.000 C 
ATOM     52  C   UNL     1     106.350 124.653 140.581  0.00  0.00    +0.000 C 
ATOM     53  C   UNL     1     105.250 123.746 140.672  0.00  0.00    +0.000 C 
ATOM     54  C   UNL     1     105.020 123.947 139.905  0.00  0.00    +0.000 C 
ATOM     55  C   UNL     1     105.456 124.502 139.477  0.00  0.00    +0.000 C 
ATOM     56  C   UNL     1     105.227 124.704 138.710  0.00  0.00    +0.000 C 
ENDBRANCH  46  52
ENDBRANCH  45  46
ENDBRANCH  40  45
ENDBRANCH  35  44
ENDBRANCH   4  35
TORSDOF 11
ENDMDL
MODEL 8
REMARK VINA RESULT:     -10.3      2.088      4.252
REMARK  Name = 44258275
REMARK  11 active torsions:
REMARK  status: ('A' for Active; 'I' for Inactive)
REMARK    1  A    between atoms: O_3  and  C_27
REMARK    2  A    between atoms: O_3  and  C_32
REMARK    3  A    between atoms: O_6  and  C_30
REMARK    4  A    between atoms: O_6  and  C_40
REMARK    5  A    between atoms: O_12  and  C_37
REMARK    6  A    between atoms: O_12  and  C_41
REMARK    7  A    between atoms: O_18  and  C_47
REMARK    8  A    between atoms: O_19  and  C_48
REMARK    9  A    between atoms: C_22  and  C_32
REMARK   10  A    between atoms: C_35  and  C_39
REMARK   11  A    between atoms: C_49  and  C_50
REMARK                            x       y       z     vdW  Elec       q    Type
REMARK                         _______ _______ _______ _____ _____    ______ ____
ROOT
ATOM      1  O   UNL     1     112.572 128.443 138.048  0.00  0.00    +0.000 OA
ATOM      2  O   UNL     1     113.661 126.940 140.263  0.00  0.00    +0.000 OA
ATOM      3  O   UNL     1     112.986 128.198 140.475  0.00  0.00    +0.000 OA
ATOM      4  C   UNL     1     113.659 126.490 138.069  0.00  0.00    +0.000 A 
ATOM      5  C   UNL     1     113.241 127.182 137.777  0.00  0.00    +0.000 A 
ATOM      6  C   UNL     1     113.803 126.406 138.912  0.00  0.00    +0.000 A 
ATOM      7  C   UNL     1     112.972 127.780 138.333  0.00  0.00    +0.000 A 
ATOM      8  C   UNL     1     113.111 127.698 139.142  0.00  0.00    +0.000 A 
ATOM      9  C   UNL     1     113.527 127.014 139.452  0.00  0.00    +0.000 A 
ATOM     10  C   UNL     1     112.309 129.023 138.572  0.00  0.00    +0.000 A 
ATOM     11  C   UNL     1     112.848 128.279 139.667  0.00  0.00    +0.000 A 
ATOM     12  C   UNL     1     112.447 128.941 139.381  0.00  0.00    +0.000 A 
ENDROOT
BRANCH  10  16
ATOM     13  C   UNL     1     111.106 131.010 137.717  0.00  0.00    +0.000 A 
ATOM     14  C   UNL     1     110.719 130.473 138.208  0.00  0.00    +0.000 A 
ATOM     15  C   UNL     1     111.895 130.884 137.510  0.00  0.00    +0.000 A 
ATOM     16  C   UNL     1     111.908 129.685 138.287  0.00  0.00    +0.000 A 
ATOM     17  C   UNL     1     111.119 129.811 138.494  0.00  0.00    +0.000 A 
ATOM     18  C   UNL     1     112.296 130.222 137.795  0.00  0.00    +0.000 A 
BRANCH  14  19
ATOM     19  O   UNL     1     109.930 130.598 138.415  0.00  0.00    +0.000 OA
ATOM     20  C   UNL     1     109.636 130.295 139.124  0.00  0.00    +0.000 C 
ENDBRANCH  14  19
BRANCH  15  21
ATOM     21  O   UNL     1     112.283 131.421 137.019  0.00  0.00    +0.000 OA
ATOM     22  C   UNL     1     113.107 131.441 136.998  0.00  0.00    +0.000 C 
ENDBRANCH  15  21
BRANCH  13  23
ATOM     23  O   UNL     1     110.705 131.672 137.432  0.00  0.00    +0.000 OA
BRANCH  23  32
ATOM     24  O   UNL     1     110.222 130.906 136.327  0.00  0.00    +0.000 OA
ATOM     25  O   UNL     1     109.000 131.483 134.612  0.00  0.00    +0.000 OA
ATOM     26  O   UNL     1     109.115 132.921 135.412  0.00  0.00    +0.000 OA
ATOM     27  O   UNL     1     109.967 133.016 136.822  0.00  0.00    +0.000 OA
ATOM     28  C   UNL     1     109.426 131.530 135.317  0.00  0.00    +0.000 C 
ATOM     29  C   UNL     1     109.484 132.249 135.717  0.00  0.00    +0.000 C 
ATOM     30  C   UNL     1     109.796 130.858 135.622  0.00  0.00    +0.000 C 
ATOM     31  C   UNL     1     109.910 132.296 136.422  0.00  0.00    +0.000 C 
ATOM     32  C   UNL     1     110.279 131.625 136.727  0.00  0.00    +0.000 C 
BRANCH  30  34
ATOM     33  O   UNL     1     110.399 129.827 134.838  0.00  0.00    +0.000 OA
ATOM     34  C   UNL     1     109.739 130.139 135.222  0.00  0.00    +0.000 C 
ENDBRANCH  30  34
ENDBRANCH  23  32
ENDBRANCH  13  23
ENDBRANCH  10  16
BRANCH   4  35
ATOM     35  O   UNL     1     113.920 125.911 137.542  0.00  0.00    +0.000 OA
BRANCH  35  44
ATOM     36  O   UNL     1     112.634 125.426 137.149  0.00  0.00    +0.000 OA
ATOM     37  O   UNL     1     111.936 123.400 136.737  0.00  0.00    +0.000 OA
ATOM     38  O   UNL     1     113.515 123.114 137.121  0.00  0.00    +0.000 OA
ATOM     39  O   UNL     1     114.507 124.369 137.523  0.00  0.00    +0.000 OA
ATOM     40  C   UNL     1     112.138 124.799 136.947  0.00  0.00    +0.000 C 
ATOM     41  C   UNL     1     112.432 124.028 136.938  0.00  0.00    +0.000 C 
ATOM     42  C   UNL     1     113.221 123.884 137.130  0.00  0.00    +0.000 C 
ATOM     43  C   UNL     1     113.717 124.512 137.331  0.00  0.00    +0.000 C 
ATOM     44  C   UNL     1     113.424 125.283 137.341  0.00  0.00    +0.000 C 
BRANCH  40  45
ATOM     45  C   UNL     1     111.349 124.942 136.756  0.00  0.00    +0.000 C 
BRANCH  45  46
ATOM     46  O   UNL     1     111.162 125.450 136.133  0.00  0.00    +0.000 OA
BRANCH  46  52
ATOM     47  O   UNL     1     110.175 126.191 136.854  0.00  0.00    +0.000 OA
ATOM     48  O   UNL     1     110.303 125.661 134.740  0.00  0.00    +0.000 OA
ATOM     49  O   UNL     1     108.887 126.508 134.764  0.00  0.00    +0.000 OA
ATOM     50  O   UNL     1     108.330 127.144 136.181  0.00  0.00    +0.000 OA
ATOM     51  C   UNL     1     110.024 125.979 135.448  0.00  0.00    +0.000 C 
ATOM     52  C   UNL     1     110.453 125.874 136.145  0.00  0.00    +0.000 C 
ATOM     53  C   UNL     1     109.317 126.402 135.460  0.00  0.00    +0.000 C 
ATOM     54  C   UNL     1     109.037 126.721 136.169  0.00  0.00    +0.000 C 
ATOM     55  C   UNL     1     109.466 126.615 136.865  0.00  0.00    +0.000 C 
ATOM     56  C   UNL     1     109.188 126.932 137.574  0.00  0.00    +0.000 C 
ENDBRANCH  46  52
ENDBRANCH  45  46
ENDBRANCH  40  45
ENDBRANCH  35  44
ENDBRANCH   4  35
TORSDOF 11
ENDMDL
MODEL 9
REMARK VINA RESULT:     -10.2      1.177      3.241
REMARK  Name = 44258275
REMARK  11 active torsions:
REMARK  status: ('A' for Active; 'I' for Inactive)
REMARK    1  A    between atoms: O_3  and  C_27
REMARK    2  A    between atoms: O_3  and  C_32
REMARK    3  A    between atoms: O_6  and  C_30
REMARK    4  A    between atoms: O_6  and  C_40
REMARK    5  A    between atoms: O_12  and  C_37
REMARK    6  A    between atoms: O_12  and  C_41
REMARK    7  A    between atoms: O_18  and  C_47
REMARK    8  A    between atoms: O_19  and  C_48
REMARK    9  A    between atoms: C_22  and  C_32
REMARK   10  A    between atoms: C_35  and  C_39
REMARK   11  A    between atoms: C_49  and  C_50
REMARK                            x       y       z     vdW  Elec       q    Type
REMARK                         _______ _______ _______ _____ _____    ______ ____
ROOT
ATOM      1  O   UNL     1     111.914 129.303 137.735  0.00  0.00    +0.000 OA
ATOM      2  O   UNL     1     113.137 129.446 135.120  0.00  0.00    +0.000 OA
ATOM      3  O   UNL     1     113.730 130.106 136.258  0.00  0.00    +0.000 OA
ATOM      4  C   UNL     1     111.267 128.411 135.790  0.00  0.00    +0.000 A 
ATOM      5  C   UNL     1     111.274 128.620 136.624  0.00  0.00    +0.000 A 
ATOM      6  C   UNL     1     111.898 128.690 135.278  0.00  0.00    +0.000 A 
ATOM      7  C   UNL     1     111.912 129.106 136.934  0.00  0.00    +0.000 A 
ATOM      8  C   UNL     1     112.517 129.373 136.441  0.00  0.00    +0.000 A 
ATOM      9  C   UNL     1     112.527 129.174 135.605  0.00  0.00    +0.000 A 
ATOM     10  C   UNL     1     112.521 129.769 138.043  0.00  0.00    +0.000 A 
ATOM     11  C   UNL     1     113.125 129.839 136.750  0.00  0.00    +0.000 A 
ATOM     12  C   UNL     1     113.127 130.036 137.551  0.00  0.00    +0.000 A 
ENDROOT
BRANCH  10  16
ATOM     13  C   UNL     1     112.527 130.362 140.446  0.00  0.00    +0.000 A 
ATOM     14  C   UNL     1     113.189 130.005 140.108  0.00  0.00    +0.000 A 
ATOM     15  C   UNL     1     111.863 130.521 139.983  0.00  0.00    +0.000 A 
ATOM     16  C   UNL     1     112.523 129.966 138.844  0.00  0.00    +0.000 A 
ATOM     17  C   UNL     1     113.187 129.807 139.307  0.00  0.00    +0.000 A 
ATOM     18  C   UNL     1     111.860 130.324 139.182  0.00  0.00    +0.000 A 
BRANCH  14  19
ATOM     19  O   UNL     1     113.853 129.845 140.570  0.00  0.00    +0.000 OA
ATOM     20  C   UNL     1     114.607 129.890 140.238  0.00  0.00    +0.000 C 
ENDBRANCH  14  19
BRANCH  15  21
ATOM     21  O   UNL     1     111.201 130.878 140.321  0.00  0.00    +0.000 OA
ATOM     22  C   UNL     1     110.608 131.189 139.840  0.00  0.00    +0.000 C 
ENDBRANCH  15  21
BRANCH  13  23
ATOM     23  O   UNL     1     112.529 130.559 141.247  0.00  0.00    +0.000 OA
BRANCH  23  32
ATOM     24  O   UNL     1     112.094 129.240 141.581  0.00  0.00    +0.000 OA
ATOM     25  O   UNL     1     111.475 128.378 143.488  0.00  0.00    +0.000 OA
ATOM     26  O   UNL     1     111.819 129.926 143.942  0.00  0.00    +0.000 OA
ATOM     27  O   UNL     1     112.346 131.017 142.822  0.00  0.00    +0.000 OA
ATOM     28  C   UNL     1     111.738 128.923 142.928  0.00  0.00    +0.000 C 
ATOM     29  C   UNL     1     111.911 129.697 143.154  0.00  0.00    +0.000 C 
ATOM     30  C   UNL     1     111.830 128.695 142.141  0.00  0.00    +0.000 C 
ATOM     31  C   UNL     1     112.174 130.243 142.594  0.00  0.00    +0.000 C 
ATOM     32  C   UNL     1     112.266 130.014 141.807  0.00  0.00    +0.000 C 
BRANCH  30  34
ATOM     33  O   UNL     1     110.962 127.756 141.502  0.00  0.00    +0.000 OA
ATOM     34  C   UNL     1     111.658 127.920 141.914  0.00  0.00    +0.000 C 
ENDBRANCH  30  34
ENDBRANCH  23  32
ENDBRANCH  13  23
ENDBRANCH  10  16
BRANCH   4  35
ATOM     35  O   UNL     1     110.658 127.946 135.485  0.00  0.00    +0.000 OA
BRANCH  35  44
ATOM     36  O   UNL     1     111.286 126.766 135.994  0.00  0.00    +0.000 OA
ATOM     37  O   UNL     1     110.868 124.655 135.630  0.00  0.00    +0.000 OA
ATOM     38  O   UNL     1     109.718 125.368 134.685  0.00  0.00    +0.000 OA
ATOM     39  O   UNL     1     109.613 127.013 134.612  0.00  0.00    +0.000 OA
ATOM     40  C   UNL     1     111.338 125.944 136.030  0.00  0.00    +0.000 C 
ATOM     41  C   UNL     1     110.815 125.478 135.594  0.00  0.00    +0.000 C 
ATOM     42  C   UNL     1     110.241 125.834 135.122  0.00  0.00    +0.000 C 
ATOM     43  C   UNL     1     110.188 126.656 135.085  0.00  0.00    +0.000 C 
ATOM     44  C   UNL     1     110.710 127.123 135.521  0.00  0.00    +0.000 C 
BRANCH  40  45
ATOM     45  C   UNL     1     111.912 125.588 136.503  0.00  0.00    +0.000 C 
BRANCH  45  46
ATOM     46  O   UNL     1     112.710 125.661 136.306  0.00  0.00    +0.000 OA
BRANCH  46  52
ATOM     47  O   UNL     1     113.184 126.002 137.611  0.00  0.00    +0.000 OA
ATOM     48  O   UNL     1     114.068 124.759 136.050  0.00  0.00    +0.000 OA
ATOM     49  O   UNL     1     115.221 124.650 137.226  0.00  0.00    +0.000 OA
ATOM     50  O   UNL     1     115.015 125.442 138.659  0.00  0.00    +0.000 OA
ATOM     51  C   UNL     1     113.966 125.155 136.767  0.00  0.00    +0.000 C 
ATOM     52  C   UNL     1     113.287 125.606 136.895  0.00  0.00    +0.000 C 
ATOM     53  C   UNL     1     114.542 125.101 137.354  0.00  0.00    +0.000 C 
ATOM     54  C   UNL     1     114.439 125.497 138.071  0.00  0.00    +0.000 C 
ATOM     55  C   UNL     1     113.760 125.948 138.199  0.00  0.00    +0.000 C 
ATOM     56  C   UNL     1     113.657 126.344 138.915  0.00  0.00    +0.000 C 
ENDBRANCH  46  52
ENDBRANCH  45  46
ENDBRANCH  40  45
ENDBRANCH  35  44
ENDBRANCH   4  35
TORSDOF 11
ENDMDL
MODEL 10
REMARK VINA RESULT:     -10.1      1.351      3.411
REMARK  Name = 44258275
REMARK  11 active torsions:
REMARK  status: ('A' for Active; 'I' for Inactive)
REMARK    1  A    between atoms: O_3  and  C_27
REMARK    2  A    between atoms: O_3  and  C_32
REMARK    3  A    between atoms: O_6  and  C_30
REMARK    4  A    between atoms: O_6  and  C_40
REMARK    5  A    between atoms: O_12  and  C_37
REMARK    6  A    between atoms: O_12  and  C_41
REMARK    7  A    between atoms: O_18  and  C_47
REMARK    8  A    between atoms: O_19  and  C_48
REMARK    9  A    between atoms: C_22  and  C_32
REMARK   10  A    between atoms: C_35  and  C_39
REMARK   11  A    between atoms: C_49  and  C_50
REMARK                            x       y       z     vdW  Elec       q    Type
REMARK                         _______ _______ _______ _____ _____    ______ ____
ROOT
ATOM      1  O   UNL     1     111.679 130.026 139.076  0.00  0.00    +0.000 OA
ATOM      2  O   UNL     1     113.209 129.975 136.625  0.00  0.00    +0.000 OA
ATOM      3  O   UNL     1     113.785 129.537 137.874  0.00  0.00    +0.000 OA
ATOM      4  C   UNL     1     111.098 130.624 137.002  0.00  0.00    +0.000 A 
ATOM      5  C   UNL     1     111.049 130.478 137.848  0.00  0.00    +0.000 A 
ATOM      6  C   UNL     1     111.830 130.454 136.585  0.00  0.00    +0.000 A 
ATOM      7  C   UNL     1     111.732 130.164 138.265  0.00  0.00    +0.000 A 
ATOM      8  C   UNL     1     112.434 130.001 137.864  0.00  0.00    +0.000 A 
ATOM      9  C   UNL     1     112.502 130.141 137.019  0.00  0.00    +0.000 A 
ATOM     10  C   UNL     1     112.328 129.725 139.487  0.00  0.00    +0.000 A 
ATOM     11  C   UNL     1     113.083 129.700 138.274  0.00  0.00    +0.000 A 
ATOM     12  C   UNL     1     113.030 129.562 139.086  0.00  0.00    +0.000 A 
ENDROOT
BRANCH  10  16
ATOM     13  C   UNL     1     112.169 129.312 141.922  0.00  0.00    +0.000 A 
ATOM     14  C   UNL     1     112.501 130.013 141.644  0.00  0.00    +0.000 A 
ATOM     15  C   UNL     1     111.890 128.748 141.388  0.00  0.00    +0.000 A 
ATOM     16  C   UNL     1     112.275 129.587 140.299  0.00  0.00    +0.000 A 
ATOM     17  C   UNL     1     112.554 130.151 140.832  0.00  0.00    +0.000 A 
ATOM     18  C   UNL     1     111.943 128.885 140.577  0.00  0.00    +0.000 A 
BRANCH  14  19
ATOM     19  O   UNL     1     112.780 130.577 142.176  0.00  0.00    +0.000 OA
ATOM     20  C   UNL     1     113.399 131.078 141.961  0.00  0.00    +0.000 C 
ENDBRANCH  14  19
BRANCH  15  21
ATOM     21  O   UNL     1     111.558 128.045 141.666  0.00  0.00    +0.000 OA
ATOM     22  C   UNL     1     111.572 127.368 141.197  0.00  0.00    +0.000 C 
ENDBRANCH  15  21
BRANCH  13  23
ATOM     23  O   UNL     1     112.116 129.173 142.734  0.00  0.00    +0.000 OA
BRANCH  23  32
ATOM     24  O   UNL     1     110.837 129.811 142.765  0.00  0.00    +0.000 OA
ATOM     25  O   UNL     1     109.376 130.007 144.374  0.00  0.00    +0.000 OA
ATOM     26  O   UNL     1     110.564 129.149 145.133  0.00  0.00    +0.000 OA
ATOM     27  O   UNL     1     111.933 128.732 144.313  0.00  0.00    +0.000 OA
ATOM     28  C   UNL     1     110.061 129.799 143.964  0.00  0.00    +0.000 C 
ATOM     29  C   UNL     1     110.655 129.370 144.343  0.00  0.00    +0.000 C 
ATOM     30  C   UNL     1     110.152 130.019 143.175  0.00  0.00    +0.000 C 
ATOM     31  C   UNL     1     111.340 129.161 143.933  0.00  0.00    +0.000 C 
ATOM     32  C   UNL     1     111.431 129.382 143.144  0.00  0.00    +0.000 C 
BRANCH  30  34
ATOM     33  O   UNL     1     109.680 131.243 142.607  0.00  0.00    +0.000 OA
ATOM     34  C   UNL     1     109.559 130.448 142.795  0.00  0.00    +0.000 C 
ENDBRANCH  30  34
ENDBRANCH  23  32
ENDBRANCH  13  23
ENDBRANCH  10  16
BRANCH   4  35
ATOM     35  O   UNL     1     110.447 130.925 136.595  0.00  0.00    +0.000 OA
BRANCH  35  44
ATOM     36  O   UNL     1     109.973 129.623 136.243  0.00  0.00    +0.000 OA
ATOM     37  O   UNL     1     107.971 128.920 135.735  0.00  0.00    +0.000 OA
ATOM     38  O   UNL     1     107.679 130.522 136.008  0.00  0.00    +0.000 OA
ATOM     39  O   UNL     1     108.917 131.524 136.438  0.00  0.00    +0.000 OA
ATOM     40  C   UNL     1     109.354 129.122 136.028  0.00  0.00    +0.000 C 
ATOM     41  C   UNL     1     108.590 129.422 135.950  0.00  0.00    +0.000 C 
ATOM     42  C   UNL     1     108.444 130.221 136.086  0.00  0.00    +0.000 C 
ATOM     43  C   UNL     1     109.063 130.723 136.301  0.00  0.00    +0.000 C 
ATOM     44  C   UNL     1     109.828 130.424 136.380  0.00  0.00    +0.000 C 
BRANCH  40  45
ATOM     45  C   UNL     1     109.500 128.322 135.892  0.00  0.00    +0.000 C 
BRANCH  45  46
ATOM     46  O   UNL     1     109.821 127.853 136.491  0.00  0.00    +0.000 OA
BRANCH  46  52
ATOM     47  O   UNL     1     110.011 126.788 135.557  0.00  0.00    +0.000 OA
ATOM     48  O   UNL     1     110.551 126.954 137.666  0.00  0.00    +0.000 OA
ATOM     49  O   UNL     1     111.107 125.439 137.320  0.00  0.00    +0.000 OA
ATOM     50  O   UNL     1     110.932 124.824 135.799  0.00  0.00    +0.000 OA
ATOM     51  C   UNL     1     110.464 126.646 136.905  0.00  0.00    +0.000 C 
ATOM     52  C   UNL     1     110.099 127.095 136.318  0.00  0.00    +0.000 C 
ATOM     53  C   UNL     1     110.741 125.889 136.732  0.00  0.00    +0.000 C 
ATOM     54  C   UNL     1     110.654 125.580 135.972  0.00  0.00    +0.000 C 
ATOM     55  C   UNL     1     110.289 126.030 135.385  0.00  0.00    +0.000 C 
ATOM     56  C   UNL     1     110.201 125.723 134.624  0.00  0.00    +0.000 C 
ENDBRANCH  46  52
ENDBRANCH  45  46
ENDBRANCH  40  45
ENDBRANCH  35  44
ENDBRANCH   4  35
TORSDOF 11
ENDMDL
