MODEL 1
REMARK VINA RESULT:      -9.6      0.000      0.000
REMARK  Name = 44257137
REMARK  8 active torsions:
REMARK  status: ('A' for Active; 'I' for Inactive)
REMARK    1  A    between atoms: O_3  and  C_19
REMARK    2  A    between atoms: O_3  and  C_28
REMARK    3  A    between atoms: O_4  and  C_24
REMARK    4  A    between atoms: O_4  and  C_32
REMARK    5  A    between atoms: O_15  and  C_44
REMARK    6  A    between atoms: C_22  and  C_35
REMARK    7  A    between atoms: C_25  and  C_36
REMARK    8  A    between atoms: C_31  and  C_37
REMARK                            x       y       z     vdW  Elec       q    Type
REMARK                         _______ _______ _______ _____ _____    ______ ____
ROOT
ATOM      1  O   UNL     1     111.779 127.209 137.326  0.00  0.00    +0.000 OA
ATOM      2  O   UNL     1     109.376 127.993 137.478  0.00  0.00    +0.000 OA
ATOM      3  C   UNL     1     110.806 128.281 137.550  0.00  0.00    +0.000 A 
ATOM      4  C   UNL     1     110.156 127.732 137.427  0.00  0.00    +0.000 C 
ATOM      5  C   UNL     1     110.636 129.071 137.719  0.00  0.00    +0.000 A 
ATOM      6  C   UNL     1     110.326 126.908 137.251  0.00  0.00    +0.000 C 
ATOM      7  C   UNL     1     111.589 128.028 137.501  0.00  0.00    +0.000 A 
ATOM      8  C   UNL     1     111.143 126.645 137.200  0.00  0.00    +0.000 C 
ATOM      9  C   UNL     1     112.036 129.355 137.790  0.00  0.00    +0.000 A 
ATOM     10  C   UNL     1     111.251 129.608 137.839  0.00  0.00    +0.000 A 
ATOM     11  C   UNL     1     112.204 128.565 137.621  0.00  0.00    +0.000 A 
ATOM     12  C   UNL     1     111.083 130.397 138.008  0.00  0.00    +0.000 C 
ATOM     13  C   UNL     1     112.989 128.313 137.572  0.00  0.00    +0.000 C 
ENDROOT
BRANCH   8  14
ATOM     14  C   UNL     1     111.315 125.855 137.031  0.00  0.00    +0.000 A 
ATOM     15  C   UNL     1     111.353 125.600 136.247  0.00  0.00    +0.000 A 
ATOM     16  C   UNL     1     111.450 125.322 137.645  0.00  0.00    +0.000 A 
ATOM     17  C   UNL     1     111.525 124.811 136.078  0.00  0.00    +0.000 A 
ATOM     18  C   UNL     1     111.622 124.534 137.476  0.00  0.00    +0.000 A 
ATOM     19  C   UNL     1     111.659 124.277 136.693  0.00  0.00    +0.000 A 
BRANCH  19  20
ATOM     20  O   UNL     1     111.831 123.488 136.525  0.00  0.00    +0.000 OA
ATOM     21  C   UNL     1     112.040 122.974 137.135  0.00  0.00    +0.000 C 
ENDBRANCH  19  20
ENDBRANCH   8  14
BRANCH   5  22
ATOM     22  O   UNL     1     109.853 129.323 137.768  0.00  0.00    +0.000 OA
BRANCH  22  30
ATOM     23  O   UNL     1     109.833 129.752 136.405  0.00  0.00    +0.000 OA
ATOM     24  O   UNL     1     107.978 131.306 136.920  0.00  0.00    +0.000 OA
ATOM     25  O   UNL     1     108.616 130.360 138.112  0.00  0.00    +0.000 OA
ATOM     26  O   UNL     1     108.577 131.216 135.385  0.00  0.00    +0.000 OA
ATOM     27  C   UNL     1     108.596 130.788 136.748  0.00  0.00    +0.000 C 
ATOM     28  C   UNL     1     108.916 130.315 137.344  0.00  0.00    +0.000 C 
ATOM     29  C   UNL     1     108.895 130.743 135.981  0.00  0.00    +0.000 C 
ATOM     30  C   UNL     1     109.534 129.797 137.173  0.00  0.00    +0.000 C 
ATOM     31  C   UNL     1     109.514 130.224 135.809  0.00  0.00    +0.000 C 
BRANCH  31  33
ATOM     32  O   UNL     1     109.744 129.477 134.613  0.00  0.00    +0.000 OA
ATOM     33  C   UNL     1     109.814 130.179 135.042  0.00  0.00    +0.000 C 
ENDBRANCH  31  33
ENDBRANCH  22  30
ENDBRANCH   5  22
BRANCH   9  34
ATOM     34  O   UNL     1     112.650 129.892 137.910  0.00  0.00    +0.000 OA
BRANCH  34  42
ATOM     35  O   UNL     1     112.595 129.654 139.318  0.00  0.00    +0.000 OA
ATOM     36  O   UNL     1     114.662 130.981 139.624  0.00  0.00    +0.000 OA
ATOM     37  O   UNL     1     114.028 130.776 138.114  0.00  0.00    +0.000 OA
ATOM     38  O   UNL     1     113.918 130.301 140.930  0.00  0.00    +0.000 OA
ATOM     39  C   UNL     1     113.973 130.539 139.522  0.00  0.00    +0.000 C 
ATOM     40  C   UNL     1     113.656 130.436 138.766  0.00  0.00    +0.000 C 
ATOM     41  C   UNL     1     113.600 130.199 140.175  0.00  0.00    +0.000 C 
ATOM     42  C   UNL     1     112.967 129.994 138.665  0.00  0.00    +0.000 C 
ATOM     43  C   UNL     1     112.911 129.756 140.073  0.00  0.00    +0.000 C 
BRANCH  43  45
ATOM     44  O   UNL     1     112.612 128.608 140.868  0.00  0.00    +0.000 OA
ATOM     45  C   UNL     1     112.540 129.417 140.726  0.00  0.00    +0.000 C 
ENDBRANCH  43  45
ENDBRANCH  34  42
ENDBRANCH   9  34
TORSDOF 8
ENDMDL
MODEL 2
REMARK VINA RESULT:      -9.5      2.375      5.247
REMARK  Name = 44257137
REMARK  8 active torsions:
REMARK  status: ('A' for Active; 'I' for Inactive)
REMARK    1  A    between atoms: O_3  and  C_19
REMARK    2  A    between atoms: O_3  and  C_28
REMARK    3  A    between atoms: O_4  and  C_24
REMARK    4  A    between atoms: O_4  and  C_32
REMARK    5  A    between atoms: O_15  and  C_44
REMARK    6  A    between atoms: C_22  and  C_35
REMARK    7  A    between atoms: C_25  and  C_36
REMARK    8  A    between atoms: C_31  and  C_37
REMARK                            x       y       z     vdW  Elec       q    Type
REMARK                         _______ _______ _______ _____ _____    ______ ____
ROOT
ATOM      1  O   UNL     1     113.375 128.783 137.491  0.00  0.00    +0.000 OA
ATOM      2  O   UNL     1     112.357 127.040 135.961  0.00  0.00    +0.000 OA
ATOM      3  C   UNL     1     112.620 127.541 137.308  0.00  0.00    +0.000 A 
ATOM      4  C   UNL     1     112.691 127.611 136.454  0.00  0.00    +0.000 C 
ATOM      5  C   UNL     1     112.214 126.896 137.625  0.00  0.00    +0.000 A 
ATOM      6  C   UNL     1     113.112 128.281 136.118  0.00  0.00    +0.000 C 
ATOM      7  C   UNL     1     112.950 128.107 137.809  0.00  0.00    +0.000 A 
ATOM      8  C   UNL     1     113.457 128.871 136.640  0.00  0.00    +0.000 C 
ATOM      9  C   UNL     1     112.470 127.384 138.944  0.00  0.00    +0.000 A 
ATOM     10  C   UNL     1     112.139 126.817 138.443  0.00  0.00    +0.000 A 
ATOM     11  C   UNL     1     112.875 128.029 138.626  0.00  0.00    +0.000 A 
ATOM     12  C   UNL     1     111.734 126.173 138.760  0.00  0.00    +0.000 C 
ATOM     13  C   UNL     1     113.205 128.595 139.128  0.00  0.00    +0.000 C 
ENDROOT
BRANCH   8  14
ATOM     14  C   UNL     1     113.863 129.517 136.326  0.00  0.00    +0.000 A 
ATOM     15  C   UNL     1     114.560 129.399 135.902  0.00  0.00    +0.000 A 
ATOM     16  C   UNL     1     113.571 130.281 136.436  0.00  0.00    +0.000 A 
ATOM     17  C   UNL     1     114.966 130.045 135.587  0.00  0.00    +0.000 A 
ATOM     18  C   UNL     1     113.977 130.926 136.122  0.00  0.00    +0.000 A 
ATOM     19  C   UNL     1     114.675 130.809 135.698  0.00  0.00    +0.000 A 
BRANCH  19  20
ATOM     20  O   UNL     1     115.080 131.454 135.384  0.00  0.00    +0.000 OA
ATOM     21  C   UNL     1     115.599 131.347 134.751  0.00  0.00    +0.000 C 
ENDBRANCH  19  20
ENDBRANCH   8  14
BRANCH   5  22
ATOM     22  O   UNL     1     111.884 126.330 137.124  0.00  0.00    +0.000 OA
BRANCH  22  30
ATOM     23  O   UNL     1     113.030 125.483 137.228  0.00  0.00    +0.000 OA
ATOM     24  O   UNL     1     111.658 123.541 136.542  0.00  0.00    +0.000 OA
ATOM     25  O   UNL     1     110.968 125.035 136.667  0.00  0.00    +0.000 OA
ATOM     26  O   UNL     1     113.262 123.342 136.874  0.00  0.00    +0.000 OA
ATOM     27  C   UNL     1     112.115 124.188 136.770  0.00  0.00    +0.000 C 
ATOM     28  C   UNL     1     111.771 124.936 136.833  0.00  0.00    +0.000 C 
ATOM     29  C   UNL     1     112.917 124.089 136.936  0.00  0.00    +0.000 C 
ATOM     30  C   UNL     1     112.228 125.583 137.062  0.00  0.00    +0.000 C 
ATOM     31  C   UNL     1     113.375 124.737 137.165  0.00  0.00    +0.000 C 
BRANCH  31  33
ATOM     32  O   UNL     1     114.744 125.003 136.858  0.00  0.00    +0.000 OA
ATOM     33  C   UNL     1     114.177 124.637 137.332  0.00  0.00    +0.000 C 
ENDBRANCH  31  33
ENDBRANCH  22  30
ENDBRANCH   5  22
BRANCH   9  34
ATOM     34  O   UNL     1     112.394 127.306 139.762  0.00  0.00    +0.000 OA
BRANCH  34  42
ATOM     35  O   UNL     1     111.211 128.107 139.751  0.00  0.00    +0.000 OA
ATOM     36  O   UNL     1     110.717 127.409 142.073  0.00  0.00    +0.000 OA
ATOM     37  O   UNL     1     112.065 126.840 141.310  0.00  0.00    +0.000 OA
ATOM     38  O   UNL     1     109.698 128.443 141.288  0.00  0.00    +0.000 OA
ATOM     39  C   UNL     1     110.882 127.642 141.299  0.00  0.00    +0.000 C 
ATOM     40  C   UNL     1     111.556 127.357 140.917  0.00  0.00    +0.000 C 
ATOM     41  C   UNL     1     110.373 128.158 140.906  0.00  0.00    +0.000 C 
ATOM     42  C   UNL     1     111.721 127.590 140.143  0.00  0.00    +0.000 C 
ATOM     43  C   UNL     1     110.538 128.391 140.132  0.00  0.00    +0.000 C 
BRANCH  43  45
ATOM     44  O   UNL     1     109.463 128.613 139.216  0.00  0.00    +0.000 OA
ATOM     45  C   UNL     1     110.028 128.908 139.739  0.00  0.00    +0.000 C 
ENDBRANCH  43  45
ENDBRANCH  34  42
ENDBRANCH   9  34
TORSDOF 8
ENDMDL
MODEL 3
REMARK VINA RESULT:      -9.5      1.213      5.210
REMARK  Name = 44257137
REMARK  8 active torsions:
REMARK  status: ('A' for Active; 'I' for Inactive)
REMARK    1  A    between atoms: O_3  and  C_19
REMARK    2  A    between atoms: O_3  and  C_28
REMARK    3  A    between atoms: O_4  and  C_24
REMARK    4  A    between atoms: O_4  and  C_32
REMARK    5  A    between atoms: O_15  and  C_44
REMARK    6  A    between atoms: C_22  and  C_35
REMARK    7  A    between atoms: C_25  and  C_36
REMARK    8  A    between atoms: C_31  and  C_37
REMARK                            x       y       z     vdW  Elec       q    Type
REMARK                         _______ _______ _______ _____ _____    ______ ____
ROOT
ATOM      1  O   UNL     1     111.066 128.922 136.579  0.00  0.00    +0.000 OA
ATOM      2  O   UNL     1     111.167 129.536 139.034  0.00  0.00    +0.000 OA
ATOM      3  C   UNL     1     111.661 128.748 137.907  0.00  0.00    +0.000 A 
ATOM      4  C   UNL     1     111.130 129.340 138.234  0.00  0.00    +0.000 C 
ATOM      5  C   UNL     1     112.207 128.381 138.405  0.00  0.00    +0.000 A 
ATOM      6  C   UNL     1     110.559 129.726 137.720  0.00  0.00    +0.000 C 
ATOM      7  C   UNL     1     111.630 128.547 137.108  0.00  0.00    +0.000 A 
ATOM      8  C   UNL     1     110.527 129.516 136.887  0.00  0.00    +0.000 C 
ATOM      9  C   UNL     1     112.691 127.610 137.304  0.00  0.00    +0.000 A 
ATOM     10  C   UNL     1     112.722 127.812 138.104  0.00  0.00    +0.000 A 
ATOM     11  C   UNL     1     112.146 127.977 136.807  0.00  0.00    +0.000 A 
ATOM     12  C   UNL     1     113.268 127.444 138.601  0.00  0.00    +0.000 C 
ATOM     13  C   UNL     1     112.115 127.775 136.007  0.00  0.00    +0.000 C 
ENDROOT
BRANCH   8  14
ATOM     14  C   UNL     1     109.982 129.882 136.387  0.00  0.00    +0.000 A 
ATOM     15  C   UNL     1     109.213 129.589 136.329  0.00  0.00    +0.000 A 
ATOM     16  C   UNL     1     110.207 130.541 135.944  0.00  0.00    +0.000 A 
ATOM     17  C   UNL     1     108.669 129.955 135.829  0.00  0.00    +0.000 A 
ATOM     18  C   UNL     1     109.662 130.906 135.445  0.00  0.00    +0.000 A 
ATOM     19  C   UNL     1     108.893 130.614 135.387  0.00  0.00    +0.000 A 
BRANCH  19  20
ATOM     20  O   UNL     1     108.349 130.980 134.887  0.00  0.00    +0.000 OA
ATOM     21  C   UNL     1     108.147 131.771 135.007  0.00  0.00    +0.000 C 
ENDBRANCH  19  20
ENDBRANCH   8  14
BRANCH   5  22
ATOM     22  O   UNL     1     112.237 128.583 139.204  0.00  0.00    +0.000 OA
BRANCH  22  30
ATOM     23  O   UNL     1     113.262 129.554 138.985  0.00  0.00    +0.000 OA
ATOM     24  O   UNL     1     113.926 129.393 141.363  0.00  0.00    +0.000 OA
ATOM     25  O   UNL     1     112.680 128.475 140.791  0.00  0.00    +0.000 OA
ATOM     26  O   UNL     1     114.730 130.418 140.349  0.00  0.00    +0.000 OA
ATOM     27  C   UNL     1     113.705 129.446 140.570  0.00  0.00    +0.000 C 
ATOM     28  C   UNL     1     113.082 128.988 140.283  0.00  0.00    +0.000 C 
ATOM     29  C   UNL     1     114.107 129.959 140.064  0.00  0.00    +0.000 C 
ATOM     30  C   UNL     1     112.860 129.041 139.491  0.00  0.00    +0.000 C 
ATOM     31  C   UNL     1     113.885 130.013 139.270  0.00  0.00    +0.000 C 
BRANCH  31  33
ATOM     32  O   UNL     1     113.882 131.146 138.400  0.00  0.00    +0.000 OA
ATOM     33  C   UNL     1     114.287 130.525 138.764  0.00  0.00    +0.000 C 
ENDBRANCH  31  33
ENDBRANCH  22  30
ENDBRANCH   5  22
BRANCH   9  34
ATOM     34  O   UNL     1     113.207 127.040 137.002  0.00  0.00    +0.000 OA
BRANCH  34  42
ATOM     35  O   UNL     1     112.245 126.021 137.283  0.00  0.00    +0.000 OA
ATOM     36  O   UNL     1     113.789 124.314 136.375  0.00  0.00    +0.000 OA
ATOM     37  O   UNL     1     114.236 125.902 136.396  0.00  0.00    +0.000 OA
ATOM     38  O   UNL     1     112.313 123.864 136.959  0.00  0.00    +0.000 OA
ATOM     39  C   UNL     1     113.274 124.883 136.677  0.00  0.00    +0.000 C 
ATOM     40  C   UNL     1     113.498 125.678 136.688  0.00  0.00    +0.000 C 
ATOM     41  C   UNL     1     112.536 124.659 136.970  0.00  0.00    +0.000 C 
ATOM     42  C   UNL     1     112.983 126.247 136.991  0.00  0.00    +0.000 C 
ATOM     43  C   UNL     1     112.022 125.228 137.272  0.00  0.00    +0.000 C 
BRANCH  43  45
ATOM     44  O   UNL     1     111.160 124.949 138.378  0.00  0.00    +0.000 OA
ATOM     45  C   UNL     1     111.283 125.002 137.564  0.00  0.00    +0.000 C 
ENDBRANCH  43  45
ENDBRANCH  34  42
ENDBRANCH   9  34
TORSDOF 8
ENDMDL
MODEL 4
REMARK VINA RESULT:      -9.4      0.500      4.379
REMARK  Name = 44257137
REMARK  8 active torsions:
REMARK  status: ('A' for Active; 'I' for Inactive)
REMARK    1  A    between atoms: O_3  and  C_19
REMARK    2  A    between atoms: O_3  and  C_28
REMARK    3  A    between atoms: O_4  and  C_24
REMARK    4  A    between atoms: O_4  and  C_32
REMARK    5  A    between atoms: O_15  and  C_44
REMARK    6  A    between atoms: C_22  and  C_35
REMARK    7  A    between atoms: C_25  and  C_36
REMARK    8  A    between atoms: C_31  and  C_37
REMARK                            x       y       z     vdW  Elec       q    Type
REMARK                         _______ _______ _______ _____ _____    ______ ____
ROOT
ATOM      1  O   UNL     1     111.316 127.059 137.339  0.00  0.00    +0.000 OA
ATOM      2  O   UNL     1     113.560 128.207 137.580  0.00  0.00    +0.000 OA
ATOM      3  C   UNL     1     112.101 128.272 137.580  0.00  0.00    +0.000 A 
ATOM      4  C   UNL     1     112.833 127.828 137.500  0.00  0.00    +0.000 C 
ATOM      5  C   UNL     1     112.139 129.082 137.736  0.00  0.00    +0.000 A 
ATOM      6  C   UNL     1     112.799 126.985 137.338  0.00  0.00    +0.000 C 
ATOM      7  C   UNL     1     111.369 127.901 137.502  0.00  0.00    +0.000 A 
ATOM      8  C   UNL     1     112.036 126.597 137.256  0.00  0.00    +0.000 C 
ATOM      9  C   UNL     1     110.711 129.148 137.736  0.00  0.00    +0.000 A 
ATOM     10  C   UNL     1     111.444 129.520 137.814  0.00  0.00    +0.000 A 
ATOM     11  C   UNL     1     110.674 128.339 137.580  0.00  0.00    +0.000 A 
ATOM     12  C   UNL     1     111.481 130.329 137.970  0.00  0.00    +0.000 C 
ATOM     13  C   UNL     1     109.941 127.968 137.502  0.00  0.00    +0.000 C 
ENDROOT
BRANCH   8  14
ATOM     14  C   UNL     1     111.995 125.788 137.100  0.00  0.00    +0.000 A 
ATOM     15  C   UNL     1     111.994 125.247 137.723  0.00  0.00    +0.000 A 
ATOM     16  C   UNL     1     111.955 125.520 136.321  0.00  0.00    +0.000 A 
ATOM     17  C   UNL     1     111.954 124.438 137.567  0.00  0.00    +0.000 A 
ATOM     18  C   UNL     1     111.914 124.712 136.165  0.00  0.00    +0.000 A 
ATOM     19  C   UNL     1     111.914 124.170 136.788  0.00  0.00    +0.000 A 
BRANCH  19  20
ATOM     20  O   UNL     1     111.873 123.361 136.630  0.00  0.00    +0.000 OA
ATOM     21  C   UNL     1     111.985 122.817 137.240  0.00  0.00    +0.000 C 
ENDBRANCH  19  20
ENDBRANCH   8  14
BRANCH   5  22
ATOM     22  O   UNL     1     112.871 129.453 137.814  0.00  0.00    +0.000 OA
BRANCH  22  30
ATOM     23  O   UNL     1     112.836 129.328 139.237  0.00  0.00    +0.000 OA
ATOM     24  O   UNL     1     114.543 131.109 139.437  0.00  0.00    +0.000 OA
ATOM     25  O   UNL     1     114.009 130.641 137.946  0.00  0.00    +0.000 OA
ATOM     26  O   UNL     1     113.938 130.389 140.793  0.00  0.00    +0.000 OA
ATOM     27  C   UNL     1     113.974 130.515 139.370  0.00  0.00    +0.000 C 
ATOM     28  C   UNL     1     113.707 130.281 138.625  0.00  0.00    +0.000 C 
ATOM     29  C   UNL     1     113.672 130.156 140.048  0.00  0.00    +0.000 C 
ATOM     30  C   UNL     1     113.138 129.688 138.559  0.00  0.00    +0.000 C 
ATOM     31  C   UNL     1     113.103 129.561 139.982  0.00  0.00    +0.000 C 
BRANCH  31  33
ATOM     32  O   UNL     1     113.018 128.428 140.848  0.00  0.00    +0.000 OA
ATOM     33  C   UNL     1     112.801 129.202 140.660  0.00  0.00    +0.000 C 
ENDBRANCH  31  33
ENDBRANCH  22  30
ENDBRANCH   5  22
BRANCH   9  34
ATOM     34  O   UNL     1     110.016 129.586 137.814  0.00  0.00    +0.000 OA
BRANCH  34  42
ATOM     35  O   UNL     1     110.033 129.868 136.414  0.00  0.00    +0.000 OA
ATOM     36  O   UNL     1     107.841 131.000 136.616  0.00  0.00    +0.000 OA
ATOM     37  O   UNL     1     108.555 130.340 137.949  0.00  0.00    +0.000 OA
ATOM     38  O   UNL     1     108.588 130.905 135.148  0.00  0.00    +0.000 OA
ATOM     39  C   UNL     1     108.571 130.623 136.548  0.00  0.00    +0.000 C 
ATOM     40  C   UNL     1     108.929 130.293 137.216  0.00  0.00    +0.000 C 
ATOM     41  C   UNL     1     108.945 130.575 135.815  0.00  0.00    +0.000 C 
ATOM     42  C   UNL     1     109.660 129.915 137.148  0.00  0.00    +0.000 C 
ATOM     43  C   UNL     1     109.676 130.198 135.747  0.00  0.00    +0.000 C 
BRANCH  43  45
ATOM     44  O   UNL     1     110.083 129.431 134.612  0.00  0.00    +0.000 OA
ATOM     45  C   UNL     1     110.049 130.151 135.013  0.00  0.00    +0.000 C 
ENDBRANCH  43  45
ENDBRANCH  34  42
ENDBRANCH   9  34
TORSDOF 8
ENDMDL
MODEL 5
REMARK VINA RESULT:      -9.4      1.280      4.692
REMARK  Name = 44257137
REMARK  8 active torsions:
REMARK  status: ('A' for Active; 'I' for Inactive)
REMARK    1  A    between atoms: O_3  and  C_19
REMARK    2  A    between atoms: O_3  and  C_28
REMARK    3  A    between atoms: O_4  and  C_24
REMARK    4  A    between atoms: O_4  and  C_32
REMARK    5  A    between atoms: O_15  and  C_44
REMARK    6  A    between atoms: C_22  and  C_35
REMARK    7  A    between atoms: C_25  and  C_36
REMARK    8  A    between atoms: C_31  and  C_37
REMARK                            x       y       z     vdW  Elec       q    Type
REMARK                         _______ _______ _______ _____ _____    ______ ____
ROOT
ATOM      1  O   UNL     1     110.850 129.102 137.328  0.00  0.00    +0.000 OA
ATOM      2  O   UNL     1     112.284 127.717 135.766  0.00  0.00    +0.000 OA
ATOM      3  C   UNL     1     111.991 128.209 137.110  0.00  0.00    +0.000 A 
ATOM      4  C   UNL     1     111.813 128.170 136.269  0.00  0.00    +0.000 C 
ATOM      5  C   UNL     1     112.637 127.787 137.403  0.00  0.00    +0.000 A 
ATOM      6  C   UNL     1     111.142 128.606 135.958  0.00  0.00    +0.000 C 
ATOM      7  C   UNL     1     111.526 128.659 137.621  0.00  0.00    +0.000 A 
ATOM      8  C   UNL     1     110.656 129.075 136.491  0.00  0.00    +0.000 C 
ATOM      9  C   UNL     1     112.353 128.267 138.719  0.00  0.00    +0.000 A 
ATOM     10  C   UNL     1     112.818 127.817 138.207  0.00  0.00    +0.000 A 
ATOM     11  C   UNL     1     111.707 128.688 138.425  0.00  0.00    +0.000 A 
ATOM     12  C   UNL     1     113.464 127.396 138.501  0.00  0.00    +0.000 C 
ATOM     13  C   UNL     1     111.241 129.139 138.937  0.00  0.00    +0.000 C 
ENDROOT
BRANCH   8  14
ATOM     14  C   UNL     1     110.010 129.497 136.201  0.00  0.00    +0.000 A 
ATOM     15  C   UNL     1     109.261 129.150 136.190  0.00  0.00    +0.000 A 
ATOM     16  C   UNL     1     110.111 130.267 135.921  0.00  0.00    +0.000 A 
ATOM     17  C   UNL     1     108.615 129.572 135.900  0.00  0.00    +0.000 A 
ATOM     18  C   UNL     1     109.465 130.688 135.631  0.00  0.00    +0.000 A 
ATOM     19  C   UNL     1     108.716 130.341 135.620  0.00  0.00    +0.000 A 
BRANCH  19  20
ATOM     20  O   UNL     1     108.070 130.764 135.330  0.00  0.00    +0.000 OA
ATOM     21  C   UNL     1     107.802 131.433 135.731  0.00  0.00    +0.000 C 
ENDBRANCH  19  20
ENDBRANCH   8  14
BRANCH   5  22
ATOM     22  O   UNL     1     113.102 127.337 136.892  0.00  0.00    +0.000 OA
BRANCH  22  30
ATOM     23  O   UNL     1     112.370 126.143 137.171  0.00  0.00    +0.000 OA
ATOM     24  O   UNL     1     114.311 124.784 136.457  0.00  0.00    +0.000 OA
ATOM     25  O   UNL     1     114.398 126.432 136.415  0.00  0.00    +0.000 OA
ATOM     26  O   UNL     1     112.931 124.043 136.974  0.00  0.00    +0.000 OA
ATOM     27  C   UNL     1     113.665 125.237 136.695  0.00  0.00    +0.000 C 
ATOM     28  C   UNL     1     113.707 126.061 136.674  0.00  0.00    +0.000 C 
ATOM     29  C   UNL     1     112.975 124.866 136.953  0.00  0.00    +0.000 C 
ATOM     30  C   UNL     1     113.060 126.513 136.912  0.00  0.00    +0.000 C 
ATOM     31  C   UNL     1     112.327 125.319 137.192  0.00  0.00    +0.000 C 
BRANCH  31  33
ATOM     32  O   UNL     1     110.943 125.014 137.008  0.00  0.00    +0.000 OA
ATOM     33  C   UNL     1     111.637 124.948 137.450  0.00  0.00    +0.000 C 
ENDBRANCH  31  33
ENDBRANCH  22  30
ENDBRANCH   5  22
BRANCH   9  34
ATOM     34  O   UNL     1     112.534 128.297 139.523  0.00  0.00    +0.000 OA
BRANCH  34  42
ATOM     35  O   UNL     1     113.432 129.388 139.312  0.00  0.00    +0.000 OA
ATOM     36  O   UNL     1     113.433 129.858 141.742  0.00  0.00    +0.000 OA
ATOM     37  O   UNL     1     112.534 128.610 141.143  0.00  0.00    +0.000 OA
ATOM     38  O   UNL     1     114.331 130.792 140.720  0.00  0.00    +0.000 OA
ATOM     39  C   UNL     1     113.433 129.701 140.932  0.00  0.00    +0.000 C 
ATOM     40  C   UNL     1     112.983 129.077 140.632  0.00  0.00    +0.000 C 
ATOM     41  C   UNL     1     113.882 130.168 140.421  0.00  0.00    +0.000 C 
ATOM     42  C   UNL     1     112.983 128.920 139.822  0.00  0.00    +0.000 C 
ATOM     43  C   UNL     1     113.881 130.011 139.611  0.00  0.00    +0.000 C 
BRANCH  43  45
ATOM     44  O   UNL     1     113.961 131.036 138.618  0.00  0.00    +0.000 OA
ATOM     45  C   UNL     1     114.330 130.478 139.100  0.00  0.00    +0.000 C 
ENDBRANCH  43  45
ENDBRANCH  34  42
ENDBRANCH   9  34
TORSDOF 8
ENDMDL
MODEL 6
REMARK VINA RESULT:      -9.4      2.189      4.521
REMARK  Name = 44257137
REMARK  8 active torsions:
REMARK  status: ('A' for Active; 'I' for Inactive)
REMARK    1  A    between atoms: O_3  and  C_19
REMARK    2  A    between atoms: O_3  and  C_28
REMARK    3  A    between atoms: O_4  and  C_24
REMARK    4  A    between atoms: O_4  and  C_32
REMARK    5  A    between atoms: O_15  and  C_44
REMARK    6  A    between atoms: C_22  and  C_35
REMARK    7  A    between atoms: C_25  and  C_36
REMARK    8  A    between atoms: C_31  and  C_37
REMARK                            x       y       z     vdW  Elec       q    Type
REMARK                         _______ _______ _______ _____ _____    ______ ____
ROOT
ATOM      1  O   UNL     1     112.131 127.013 137.794  0.00  0.00    +0.000 OA
ATOM      2  O   UNL     1     110.759 125.841 139.571  0.00  0.00    +0.000 OA
ATOM      3  C   UNL     1     111.005 127.011 138.731  0.00  0.00    +0.000 A 
ATOM      4  C   UNL     1     111.209 126.218 138.992  0.00  0.00    +0.000 C 
ATOM      5  C   UNL     1     110.353 127.388 139.068  0.00  0.00    +0.000 A 
ATOM      6  C   UNL     1     111.887 125.820 138.645  0.00  0.00    +0.000 C 
ATOM      7  C   UNL     1     111.450 127.395 138.153  0.00  0.00    +0.000 A 
ATOM      8  C   UNL     1     112.352 126.221 138.041  0.00  0.00    +0.000 C 
ATOM      9  C   UNL     1     110.591 128.534 138.247  0.00  0.00    +0.000 A 
ATOM     10  C   UNL     1     110.146 128.149 138.827  0.00  0.00    +0.000 A 
ATOM     11  C   UNL     1     111.243 128.156 137.911  0.00  0.00    +0.000 A 
ATOM     12  C   UNL     1     109.494 128.527 139.163  0.00  0.00    +0.000 C 
ATOM     13  C   UNL     1     111.688 128.541 137.332  0.00  0.00    +0.000 C 
ENDROOT
BRANCH   8  14
ATOM     14  C   UNL     1     113.004 125.846 137.703  0.00  0.00    +0.000 A 
ATOM     15  C   UNL     1     113.734 125.863 138.086  0.00  0.00    +0.000 A 
ATOM     16  C   UNL     1     112.926 125.454 136.981  0.00  0.00    +0.000 A 
ATOM     17  C   UNL     1     114.387 125.488 137.747  0.00  0.00    +0.000 A 
ATOM     18  C   UNL     1     113.578 125.080 136.643  0.00  0.00    +0.000 A 
ATOM     19  C   UNL     1     114.309 125.096 137.025  0.00  0.00    +0.000 A 
BRANCH  19  20
ATOM     20  O   UNL     1     114.960 124.722 136.686  0.00  0.00    +0.000 OA
ATOM     21  C   UNL     1     115.350 125.070 136.048  0.00  0.00    +0.000 C 
ENDBRANCH  19  20
ENDBRANCH   8  14
BRANCH   5  22
ATOM     22  O   UNL     1     109.908 127.004 139.647  0.00  0.00    +0.000 OA
BRANCH  22  30
ATOM     23  O   UNL     1     110.630 127.606 140.723  0.00  0.00    +0.000 OA
ATOM     24  O   UNL     1     108.661 127.335 142.197  0.00  0.00    +0.000 OA
ATOM     25  O   UNL     1     108.594 126.823 140.629  0.00  0.00    +0.000 OA
ATOM     26  O   UNL     1     110.040 128.027 142.781  0.00  0.00    +0.000 OA
ATOM     27  C   UNL     1     109.317 127.425 141.706  0.00  0.00    +0.000 C 
ATOM     28  C   UNL     1     109.284 127.169 140.922  0.00  0.00    +0.000 C 
ATOM     29  C   UNL     1     110.006 127.771 141.998  0.00  0.00    +0.000 C 
ATOM     30  C   UNL     1     109.940 127.260 140.431  0.00  0.00    +0.000 C 
ATOM     31  C   UNL     1     110.663 127.862 141.506  0.00  0.00    +0.000 C 
BRANCH  31  33
ATOM     32  O   UNL     1     112.043 127.761 141.862  0.00  0.00    +0.000 OA
ATOM     33  C   UNL     1     111.353 128.208 141.798  0.00  0.00    +0.000 C 
ENDBRANCH  31  33
ENDBRANCH  22  30
ENDBRANCH   5  22
BRANCH   9  34
ATOM     34  O   UNL     1     110.384 129.295 138.006  0.00  0.00    +0.000 OA
BRANCH  34  42
ATOM     35  O   UNL     1     109.634 128.772 136.908  0.00  0.00    +0.000 OA
ATOM     36  O   UNL     1     108.543 130.973 136.606  0.00  0.00    +0.000 OA
ATOM     37  O   UNL     1     109.657 130.762 137.805  0.00  0.00    +0.000 OA
ATOM     38  O   UNL     1     108.156 129.717 135.609  0.00  0.00    +0.000 OA
ATOM     39  C   UNL     1     108.906 130.239 136.707  0.00  0.00    +0.000 C 
ATOM     40  C   UNL     1     109.464 130.134 137.306  0.00  0.00    +0.000 C 
ATOM     41  C   UNL     1     108.713 129.611 136.208  0.00  0.00    +0.000 C 
ATOM     42  C   UNL     1     109.828 129.400 137.407  0.00  0.00    +0.000 C 
ATOM     43  C   UNL     1     109.077 128.877 136.309  0.00  0.00    +0.000 C 
BRANCH  43  45
ATOM     44  O   UNL     1     108.406 127.636 136.084  0.00  0.00    +0.000 OA
ATOM     45  C   UNL     1     108.883 128.249 135.810  0.00  0.00    +0.000 C 
ENDBRANCH  43  45
ENDBRANCH  34  42
ENDBRANCH   9  34
TORSDOF 8
ENDMDL
MODEL 7
REMARK VINA RESULT:      -9.4      1.950      5.120
REMARK  Name = 44257137
REMARK  8 active torsions:
REMARK  status: ('A' for Active; 'I' for Inactive)
REMARK    1  A    between atoms: O_3  and  C_19
REMARK    2  A    between atoms: O_3  and  C_28
REMARK    3  A    between atoms: O_4  and  C_24
REMARK    4  A    between atoms: O_4  and  C_32
REMARK    5  A    between atoms: O_15  and  C_44
REMARK    6  A    between atoms: C_22  and  C_35
REMARK    7  A    between atoms: C_25  and  C_36
REMARK    8  A    between atoms: C_31  and  C_37
REMARK                            x       y       z     vdW  Elec       q    Type
REMARK                         _______ _______ _______ _____ _____    ______ ____
ROOT
ATOM      1  O   UNL     1     112.484 129.940 136.822  0.00  0.00    +0.000 OA
ATOM      2  O   UNL     1     112.085 127.442 136.944  0.00  0.00    +0.000 OA
ATOM      3  C   UNL     1     111.671 128.806 137.267  0.00  0.00    +0.000 A 
ATOM      4  C   UNL     1     112.220 128.254 136.901  0.00  0.00    +0.000 C 
ATOM      5  C   UNL     1     111.009 128.509 137.661  0.00  0.00    +0.000 A 
ATOM      6  C   UNL     1     112.911 128.557 136.489  0.00  0.00    +0.000 C 
ATOM      7  C   UNL     1     111.798 129.619 137.229  0.00  0.00    +0.000 A 
ATOM      8  C   UNL     1     113.044 129.406 136.449  0.00  0.00    +0.000 C 
ATOM      9  C   UNL     1     110.602 129.842 137.979  0.00  0.00    +0.000 A 
ATOM     10  C   UNL     1     110.475 129.027 138.017  0.00  0.00    +0.000 A 
ATOM     11  C   UNL     1     111.264 130.137 137.585  0.00  0.00    +0.000 A 
ATOM     12  C   UNL     1     109.813 128.732 138.411  0.00  0.00    +0.000 C 
ATOM     13  C   UNL     1     111.391 130.952 137.546  0.00  0.00    +0.000 C 
ENDROOT
BRANCH   8  14
ATOM     14  C   UNL     1     113.705 129.704 136.056  0.00  0.00    +0.000 A 
ATOM     15  C   UNL     1     113.734 129.693 135.231  0.00  0.00    +0.000 A 
ATOM     16  C   UNL     1     114.337 130.014 136.487  0.00  0.00    +0.000 A 
ATOM     17  C   UNL     1     114.395 129.992 134.838  0.00  0.00    +0.000 A 
ATOM     18  C   UNL     1     114.997 130.312 136.093  0.00  0.00    +0.000 A 
ATOM     19  C   UNL     1     115.027 130.301 135.269  0.00  0.00    +0.000 A 
BRANCH  19  20
ATOM     20  O   UNL     1     115.688 130.600 134.877  0.00  0.00    +0.000 OA
ATOM     21  C   UNL     1     115.693 131.382 134.615  0.00  0.00    +0.000 C 
ENDBRANCH  19  20
ENDBRANCH   8  14
BRANCH   5  22
ATOM     22  O   UNL     1     110.882 127.696 137.700  0.00  0.00    +0.000 OA
BRANCH  22  30
ATOM     23  O   UNL     1     111.549 127.590 138.959  0.00  0.00    +0.000 OA
ATOM     24  O   UNL     1     110.357 125.470 139.414  0.00  0.00    +0.000 OA
ATOM     25  O   UNL     1     110.086 126.281 138.002  0.00  0.00    +0.000 OA
ATOM     26  O   UNL     1     111.422 126.071 140.521  0.00  0.00    +0.000 OA
ATOM     27  C   UNL     1     110.754 126.176 139.262  0.00  0.00    +0.000 C 
ATOM     28  C   UNL     1     110.619 126.583 138.557  0.00  0.00    +0.000 C 
ATOM     29  C   UNL     1     111.286 126.477 139.816  0.00  0.00    +0.000 C 
ATOM     30  C   UNL     1     111.016 127.289 138.405  0.00  0.00    +0.000 C 
ATOM     31  C   UNL     1     111.684 127.184 139.664  0.00  0.00    +0.000 C 
BRANCH  31  33
ATOM     32  O   UNL     1     113.019 127.538 140.032  0.00  0.00    +0.000 OA
ATOM     33  C   UNL     1     112.217 127.485 140.218  0.00  0.00    +0.000 C 
ENDBRANCH  31  33
ENDBRANCH  22  30
ENDBRANCH   5  22
BRANCH   9  34
ATOM     34  O   UNL     1     110.068 130.361 138.334  0.00  0.00    +0.000 OA
BRANCH  34  42
ATOM     35  O   UNL     1     109.305 130.412 137.127  0.00  0.00    +0.000 OA
ATOM     36  O   UNL     1     107.878 132.182 138.104  0.00  0.00    +0.000 OA
ATOM     37  O   UNL     1     109.117 131.541 138.985  0.00  0.00    +0.000 OA
ATOM     38  O   UNL     1     107.590 131.643 136.571  0.00  0.00    +0.000 OA
ATOM     39  C   UNL     1     108.354 131.592 137.778  0.00  0.00    +0.000 C 
ATOM     40  C   UNL     1     108.973 131.271 138.219  0.00  0.00    +0.000 C 
ATOM     41  C   UNL     1     108.210 131.322 137.012  0.00  0.00    +0.000 C 
ATOM     42  C   UNL     1     109.449 130.681 137.894  0.00  0.00    +0.000 C 
ATOM     43  C   UNL     1     108.686 130.732 136.687  0.00  0.00    +0.000 C 
BRANCH  43  45
ATOM     44  O   UNL     1     108.205 129.720 135.800  0.00  0.00    +0.000 OA
ATOM     45  C   UNL     1     108.542 130.462 135.920  0.00  0.00    +0.000 C 
ENDBRANCH  43  45
ENDBRANCH  34  42
ENDBRANCH   9  34
TORSDOF 8
ENDMDL
MODEL 8
REMARK VINA RESULT:      -9.3      2.689      5.776
REMARK  Name = 44257137
REMARK  8 active torsions:
REMARK  status: ('A' for Active; 'I' for Inactive)
REMARK    1  A    between atoms: O_3  and  C_19
REMARK    2  A    between atoms: O_3  and  C_28
REMARK    3  A    between atoms: O_4  and  C_24
REMARK    4  A    between atoms: O_4  and  C_32
REMARK    5  A    between atoms: O_15  and  C_44
REMARK    6  A    between atoms: C_22  and  C_35
REMARK    7  A    between atoms: C_25  and  C_36
REMARK    8  A    between atoms: C_31  and  C_37
REMARK                            x       y       z     vdW  Elec       q    Type
REMARK                         _______ _______ _______ _____ _____    ______ ____
ROOT
ATOM      1  O   UNL     1     112.192 127.779 139.535  0.00  0.00    +0.000 OA
ATOM      2  O   UNL     1     111.228 126.411 141.436  0.00  0.00    +0.000 OA
ATOM      3  C   UNL     1     111.218 126.802 140.028  0.00  0.00    +0.000 A 
ATOM      4  C   UNL     1     111.547 126.859 140.821  0.00  0.00    +0.000 C 
ATOM      5  C   UNL     1     110.583 126.293 139.894  0.00  0.00    +0.000 A 
ATOM      6  C   UNL     1     112.209 127.387 140.968  0.00  0.00    +0.000 C 
ATOM      7  C   UNL     1     111.530 127.246 139.408  0.00  0.00    +0.000 A 
ATOM      8  C   UNL     1     112.534 127.850 140.320  0.00  0.00    +0.000 C 
ATOM      9  C   UNL     1     110.571 126.674 138.516  0.00  0.00    +0.000 A 
ATOM     10  C   UNL     1     110.259 126.229 139.138  0.00  0.00    +0.000 A 
ATOM     11  C   UNL     1     111.206 127.182 138.652  0.00  0.00    +0.000 A 
ATOM     12  C   UNL     1     109.624 125.721 139.002  0.00  0.00    +0.000 C 
ATOM     13  C   UNL     1     111.518 127.627 138.030  0.00  0.00    +0.000 C 
ENDROOT
BRANCH   8  14
ATOM     14  C   UNL     1     113.169 128.360 140.453  0.00  0.00    +0.000 A 
ATOM     15  C   UNL     1     113.036 129.166 140.563  0.00  0.00    +0.000 A 
ATOM     16  C   UNL     1     113.939 128.062 140.474  0.00  0.00    +0.000 A 
ATOM     17  C   UNL     1     113.671 129.675 140.695  0.00  0.00    +0.000 A 
ATOM     18  C   UNL     1     114.573 128.571 140.606  0.00  0.00    +0.000 A 
ATOM     19  C   UNL     1     114.441 129.378 140.717  0.00  0.00    +0.000 A 
BRANCH  19  20
ATOM     20  O   UNL     1     115.076 129.886 140.849  0.00  0.00    +0.000 OA
ATOM     21  C   UNL     1     115.019 130.681 140.636  0.00  0.00    +0.000 C 
ENDBRANCH  19  20
ENDBRANCH   8  14
BRANCH   5  22
ATOM     22  O   UNL     1     110.271 125.849 140.515  0.00  0.00    +0.000 OA
BRANCH  22  30
ATOM     23  O   UNL     1     109.331 126.841 140.932  0.00  0.00    +0.000 OA
ATOM     24  O   UNL     1     107.756 125.061 141.620  0.00  0.00    +0.000 OA
ATOM     25  O   UNL     1     109.221 124.661 140.974  0.00  0.00    +0.000 OA
ATOM     26  O   UNL     1     107.342 126.647 141.808  0.00  0.00    +0.000 OA
ATOM     27  C   UNL     1     108.281 125.654 141.391  0.00  0.00    +0.000 C 
ATOM     28  C   UNL     1     109.014 125.455 141.067  0.00  0.00    +0.000 C 
ATOM     29  C   UNL     1     108.074 126.447 141.485  0.00  0.00    +0.000 C 
ATOM     30  C   UNL     1     109.538 126.048 140.838  0.00  0.00    +0.000 C 
ATOM     31  C   UNL     1     108.599 127.041 141.255  0.00  0.00    +0.000 C 
BRANCH  31  33
ATOM     32  O   UNL     1     108.275 128.310 140.685  0.00  0.00    +0.000 OA
ATOM     33  C   UNL     1     108.392 127.834 141.349  0.00  0.00    +0.000 C 
ENDBRANCH  31  33
ENDBRANCH  22  30
ENDBRANCH   5  22
BRANCH   9  34
ATOM     34  O   UNL     1     110.247 126.610 137.760  0.00  0.00    +0.000 OA
BRANCH  34  42
ATOM     35  O   UNL     1     111.090 125.488 137.489  0.00  0.00    +0.000 OA
ATOM     36  O   UNL     1     110.307 125.468 135.141  0.00  0.00    +0.000 OA
ATOM     37  O   UNL     1     109.726 126.596 136.195  0.00  0.00    +0.000 OA
ATOM     38  O   UNL     1     111.411 124.352 135.653  0.00  0.00    +0.000 OA
ATOM     39  C   UNL     1     110.568 125.474 135.924  0.00  0.00    +0.000 C 
ATOM     40  C   UNL     1     110.277 126.039 136.451  0.00  0.00    +0.000 C 
ATOM     41  C   UNL     1     111.120 124.917 136.180  0.00  0.00    +0.000 C 
ATOM     42  C   UNL     1     110.538 126.046 137.234  0.00  0.00    +0.000 C 
ATOM     43  C   UNL     1     111.380 124.924 136.963  0.00  0.00    +0.000 C 
BRANCH  43  45
ATOM     44  O   UNL     1     112.717 124.586 137.338  0.00  0.00    +0.000 OA
ATOM     45  C   UNL     1     111.932 124.366 137.218  0.00  0.00    +0.000 C 
ENDBRANCH  43  45
ENDBRANCH  34  42
ENDBRANCH   9  34
TORSDOF 8
ENDMDL
MODEL 9
REMARK VINA RESULT:      -9.2      1.456      2.155
REMARK  Name = 44257137
REMARK  8 active torsions:
REMARK  status: ('A' for Active; 'I' for Inactive)
REMARK    1  A    between atoms: O_3  and  C_19
REMARK    2  A    between atoms: O_3  and  C_28
REMARK    3  A    between atoms: O_4  and  C_24
REMARK    4  A    between atoms: O_4  and  C_32
REMARK    5  A    between atoms: O_15  and  C_44
REMARK    6  A    between atoms: C_22  and  C_35
REMARK    7  A    between atoms: C_25  and  C_36
REMARK    8  A    between atoms: C_31  and  C_37
REMARK                            x       y       z     vdW  Elec       q    Type
REMARK                         _______ _______ _______ _____ _____    ______ ____
ROOT
ATOM      1  O   UNL     1     111.710 126.997 136.133  0.00  0.00    +0.000 OA
ATOM      2  O   UNL     1     109.302 127.724 135.841  0.00  0.00    +0.000 OA
ATOM      3  C   UNL     1     110.729 128.032 135.794  0.00  0.00    +0.000 A 
ATOM      4  C   UNL     1     110.084 127.481 135.937  0.00  0.00    +0.000 C 
ATOM      5  C   UNL     1     110.553 128.803 135.559  0.00  0.00    +0.000 A 
ATOM      6  C   UNL     1     110.261 126.677 136.182  0.00  0.00    +0.000 C 
ATOM      7  C   UNL     1     111.514 127.798 135.888  0.00  0.00    +0.000 A 
ATOM      8  C   UNL     1     111.080 126.433 136.281  0.00  0.00    +0.000 C 
ATOM      9  C   UNL     1     111.949 129.106 135.513  0.00  0.00    +0.000 A 
ATOM     10  C   UNL     1     111.163 129.340 135.418  0.00  0.00    +0.000 A 
ATOM     11  C   UNL     1     112.124 128.335 135.748  0.00  0.00    +0.000 A 
ATOM     12  C   UNL     1     110.988 130.111 135.184  0.00  0.00    +0.000 C 
ATOM     13  C   UNL     1     112.910 128.101 135.842  0.00  0.00    +0.000 C 
ENDROOT
BRANCH   8  14
ATOM     14  C   UNL     1     111.258 125.662 136.516  0.00  0.00    +0.000 A 
ATOM     15  C   UNL     1     111.377 125.075 135.948  0.00  0.00    +0.000 A 
ATOM     16  C   UNL     1     111.318 125.479 137.318  0.00  0.00    +0.000 A 
ATOM     17  C   UNL     1     111.555 124.305 136.183  0.00  0.00    +0.000 A 
ATOM     18  C   UNL     1     111.496 124.709 137.552  0.00  0.00    +0.000 A 
ATOM     19  C   UNL     1     111.615 124.121 136.985  0.00  0.00    +0.000 A 
BRANCH  19  20
ATOM     20  O   UNL     1     111.793 123.351 137.221  0.00  0.00    +0.000 OA
ATOM     21  C   UNL     1     112.579 123.100 137.247  0.00  0.00    +0.000 C 
ENDBRANCH  19  20
ENDBRANCH   8  14
BRANCH   5  22
ATOM     22  O   UNL     1     109.768 129.036 135.465  0.00  0.00    +0.000 OA
BRANCH  22  30
ATOM     23  O   UNL     1     109.582 129.447 136.821  0.00  0.00    +0.000 OA
ATOM     24  O   UNL     1     108.038 131.229 136.070  0.00  0.00    +0.000 OA
ATOM     25  O   UNL     1     108.739 130.225 134.963  0.00  0.00    +0.000 OA
ATOM     26  O   UNL     1     108.366 131.045 137.676  0.00  0.00    +0.000 OA
ATOM     27  C   UNL     1     108.552 130.635 136.320  0.00  0.00    +0.000 C 
ATOM     28  C   UNL     1     108.903 130.133 135.767  0.00  0.00    +0.000 C 
ATOM     29  C   UNL     1     108.716 130.543 137.123  0.00  0.00    +0.000 C 
ATOM     30  C   UNL     1     109.417 129.539 136.017  0.00  0.00    +0.000 C 
ATOM     31  C   UNL     1     109.231 129.949 137.374  0.00  0.00    +0.000 C 
BRANCH  31  33
ATOM     32  O   UNL     1     109.108 129.199 138.584  0.00  0.00    +0.000 OA
ATOM     33  C   UNL     1     109.396 129.857 138.177  0.00  0.00    +0.000 C 
ENDBRANCH  31  33
ENDBRANCH  22  30
ENDBRANCH   5  22
BRANCH   9  34
ATOM     34  O   UNL     1     112.559 129.644 135.372  0.00  0.00    +0.000 OA
BRANCH  34  42
ATOM     35  O   UNL     1     112.615 130.089 136.729  0.00  0.00    +0.000 OA
ATOM     36  O   UNL     1     115.015 130.630 136.452  0.00  0.00    +0.000 OA
ATOM     37  O   UNL     1     114.159 130.004 135.188  0.00  0.00    +0.000 OA
ATOM     38  O   UNL     1     114.271 130.895 137.901  0.00  0.00    +0.000 OA
ATOM     39  C   UNL     1     114.215 130.450 136.544  0.00  0.00    +0.000 C 
ATOM     40  C   UNL     1     113.787 130.136 135.912  0.00  0.00    +0.000 C 
ATOM     41  C   UNL     1     113.843 130.582 137.268  0.00  0.00    +0.000 C 
ATOM     42  C   UNL     1     112.987 129.956 136.004  0.00  0.00    +0.000 C 
ATOM     43  C   UNL     1     113.043 130.402 137.360  0.00  0.00    +0.000 C 
BRANCH  43  45
ATOM     44  O   UNL     1     112.221 131.216 138.199  0.00  0.00    +0.000 OA
ATOM     45  C   UNL     1     112.672 130.535 138.085  0.00  0.00    +0.000 C 
ENDBRANCH  43  45
ENDBRANCH  34  42
ENDBRANCH   9  34
TORSDOF 8
ENDMDL
MODEL 10
REMARK VINA RESULT:      -9.2      1.691      5.369
REMARK  Name = 44257137
REMARK  8 active torsions:
REMARK  status: ('A' for Active; 'I' for Inactive)
REMARK    1  A    between atoms: O_3  and  C_19
REMARK    2  A    between atoms: O_3  and  C_28
REMARK    3  A    between atoms: O_4  and  C_24
REMARK    4  A    between atoms: O_4  and  C_32
REMARK    5  A    between atoms: O_15  and  C_44
REMARK    6  A    between atoms: C_22  and  C_35
REMARK    7  A    between atoms: C_25  and  C_36
REMARK    8  A    between atoms: C_31  and  C_37
REMARK                            x       y       z     vdW  Elec       q    Type
REMARK                         _______ _______ _______ _____ _____    ______ ____
ROOT
ATOM      1  O   UNL     1     111.046 128.928 136.381  0.00  0.00    +0.000 OA
ATOM      2  O   UNL     1     111.313 129.333 138.867  0.00  0.00    +0.000 OA
ATOM      3  C   UNL     1     111.720 128.636 137.648  0.00  0.00    +0.000 A 
ATOM      4  C   UNL     1     111.222 129.205 138.057  0.00  0.00    +0.000 C 
ATOM      5  C   UNL     1     112.289 128.221 138.078  0.00  0.00    +0.000 A 
ATOM      6  C   UNL     1     110.627 129.640 137.615  0.00  0.00    +0.000 C 
ATOM      7  C   UNL     1     111.635 128.502 136.839  0.00  0.00    +0.000 A 
ATOM      8  C   UNL     1     110.538 129.500 136.771  0.00  0.00    +0.000 C 
ATOM      9  C   UNL     1     112.689 127.538 136.888  0.00  0.00    +0.000 A 
ATOM     10  C   UNL     1     112.774 127.672 137.698  0.00  0.00    +0.000 A 
ATOM     11  C   UNL     1     112.120 127.953 136.459  0.00  0.00    +0.000 A 
ATOM     12  C   UNL     1     113.343 127.257 138.127  0.00  0.00    +0.000 C 
ATOM     13  C   UNL     1     112.035 127.819 135.649  0.00  0.00    +0.000 C 
ENDROOT
BRANCH   8  14
ATOM     14  C   UNL     1     109.970 129.914 136.339  0.00  0.00    +0.000 A 
ATOM     15  C   UNL     1     110.164 130.632 135.982  0.00  0.00    +0.000 A 
ATOM     16  C   UNL     1     109.207 129.609 136.264  0.00  0.00    +0.000 A 
ATOM     17  C   UNL     1     109.595 131.045 135.550  0.00  0.00    +0.000 A 
ATOM     18  C   UNL     1     108.639 130.023 135.832  0.00  0.00    +0.000 A 
ATOM     19  C   UNL     1     108.832 130.741 135.475  0.00  0.00    +0.000 A 
BRANCH  19  20
ATOM     20  O   UNL     1     108.263 131.154 135.044  0.00  0.00    +0.000 OA
ATOM     21  C   UNL     1     107.878 131.799 135.383  0.00  0.00    +0.000 C 
ENDBRANCH  19  20
ENDBRANCH   8  14
BRANCH   5  22
ATOM     22  O   UNL     1     112.374 128.355 138.887  0.00  0.00    +0.000 OA
BRANCH  22  30
ATOM     23  O   UNL     1     111.481 127.305 139.263  0.00  0.00    +0.000 OA
ATOM     24  O   UNL     1     112.719 127.007 141.384  0.00  0.00    +0.000 OA
ATOM     25  O   UNL     1     113.201 128.157 140.302  0.00  0.00    +0.000 OA
ATOM     26  O   UNL     1     111.412 126.057 141.051  0.00  0.00    +0.000 OA
ATOM     27  C   UNL     1     112.307 127.107 140.677  0.00  0.00    +0.000 C 
ATOM     28  C   UNL     1     112.547 127.681 140.136  0.00  0.00    +0.000 C 
ATOM     29  C   UNL     1     111.653 126.631 140.511  0.00  0.00    +0.000 C 
ATOM     30  C   UNL     1     112.134 127.781 139.429  0.00  0.00    +0.000 C 
ATOM     31  C   UNL     1     111.240 126.731 139.803  0.00  0.00    +0.000 C 
BRANCH  31  33
ATOM     32  O   UNL     1     109.840 126.596 139.551  0.00  0.00    +0.000 OA
ATOM     33  C   UNL     1     110.586 126.255 139.637  0.00  0.00    +0.000 C 
ENDBRANCH  31  33
ENDBRANCH  22  30
ENDBRANCH   5  22
BRANCH   9  34
ATOM     34  O   UNL     1     113.173 126.989 136.508  0.00  0.00    +0.000 OA
BRANCH  34  42
ATOM     35  O   UNL     1     112.173 125.969 136.490  0.00  0.00    +0.000 OA
ATOM     36  O   UNL     1     113.940 124.236 136.523  0.00  0.00    +0.000 OA
ATOM     37  O   UNL     1     114.351 125.834 136.530  0.00  0.00    +0.000 OA
ATOM     38  O   UNL     1     112.351 123.793 136.494  0.00  0.00    +0.000 OA
ATOM     39  C   UNL     1     113.351 124.813 136.512  0.00  0.00    +0.000 C 
ATOM     40  C   UNL     1     113.557 125.613 136.515  0.00  0.00    +0.000 C 
ATOM     41  C   UNL     1     112.556 124.593 136.497  0.00  0.00    +0.000 C 
ATOM     42  C   UNL     1     112.968 126.191 136.504  0.00  0.00    +0.000 C 
ATOM     43  C   UNL     1     111.967 125.170 136.486  0.00  0.00    +0.000 C 
BRANCH  43  45
ATOM     44  O   UNL     1     110.746 124.988 135.768  0.00  0.00    +0.000 OA
ATOM     45  C   UNL     1     111.173 124.948 136.472  0.00  0.00    +0.000 C 
ENDBRANCH  43  45
ENDBRANCH  34  42
ENDBRANCH   9  34
TORSDOF 8
ENDMDL
