MODEL 1
REMARK VINA RESULT:      -8.9      0.000      0.000
REMARK  Name = 44257522
REMARK  2 active torsions:
REMARK  status: ('A' for Active; 'I' for Inactive)
REMARK    1  A    between atoms: O_3  and  C_14
REMARK    2  A    between atoms: C_7  and  C_11
REMARK                            x       y       z     vdW  Elec       q    Type
REMARK                         _______ _______ _______ _____ _____    ______ ____
ROOT
ATOM      1  O   UNL     1     105.569 125.274 146.038  0.00  0.00    +0.000 OA
ATOM      2  O   UNL     1     104.690 124.161 148.135  0.00  0.00    +0.000 OA
ATOM      3  O   UNL     1     108.182 125.344 147.412  0.00  0.00    +0.000 OA
ATOM      4  C   UNL     1     104.439 124.671 146.790  0.00  0.00    +0.000 C 
ATOM      5  C   UNL     1     104.971 124.523 147.449  0.00  0.00    +0.000 C 
ATOM      6  C   UNL     1     104.740 125.048 146.080  0.00  0.00    +0.000 C 
ATOM      7  C   UNL     1     105.796 124.756 147.389  0.00  0.00    +0.000 A 
ATOM      8  C   UNL     1     106.085 125.118 146.707  0.00  0.00    +0.000 A 
ATOM      9  C   UNL     1     106.301 124.612 148.025  0.00  0.00    +0.000 A 
ATOM     10  C   UNL     1     106.879 125.337 146.660  0.00  0.00    +0.000 A 
ATOM     11  C   UNL     1     107.095 124.830 147.979  0.00  0.00    +0.000 A 
ATOM     12  C   UNL     1     107.384 125.193 147.297  0.00  0.00    +0.000 A 
ATOM     13  C   UNL     1     107.717 124.760 148.509  0.00  0.00    +0.000 A 
ATOM     14  C   UNL     1     108.387 125.077 148.158  0.00  0.00    +0.000 A 
ENDROOT
BRANCH   4  17
ATOM     15  O   UNL     1     101.706 124.956 147.801  0.00  0.00    +0.000 OA
ATOM     16  O   UNL     1     101.259 123.926 147.095  0.00  0.00    +0.000 OA
ATOM     17  C   UNL     1     103.646 124.451 146.839  0.00  0.00    +0.000 A 
ATOM     18  C   UNL     1     103.368 123.810 146.399  0.00  0.00    +0.000 A 
ATOM     19  C   UNL     1     103.130 124.871 147.326  0.00  0.00    +0.000 A 
ATOM     20  C   UNL     1     102.336 124.652 147.375  0.00  0.00    +0.000 A 
ATOM     21  C   UNL     1     102.574 123.590 146.448  0.00  0.00    +0.000 A 
ATOM     22  C   UNL     1     102.059 124.011 146.936  0.00  0.00    +0.000 A 
ATOM     23  C   UNL     1     101.041 124.509 147.629  0.00  0.00    +0.000 C 
BRANCH  18  24
ATOM     24  O   UNL     1     103.883 123.389 145.912  0.00  0.00    +0.000 OA
ATOM     25  C   UNL     1     103.601 122.759 145.460  0.00  0.00    +0.000 C 
ENDBRANCH  18  24
ENDBRANCH   4  17
TORSDOF 2
ENDMDL
MODEL 2
REMARK VINA RESULT:      -8.7      0.943      4.607
REMARK  Name = 44257522
REMARK  2 active torsions:
REMARK  status: ('A' for Active; 'I' for Inactive)
REMARK    1  A    between atoms: O_3  and  C_14
REMARK    2  A    between atoms: C_7  and  C_11
REMARK                            x       y       z     vdW  Elec       q    Type
REMARK                         _______ _______ _______ _____ _____    ______ ____
ROOT
ATOM      1  O   UNL     1     103.132 125.275 147.624  0.00  0.00    +0.000 OA
ATOM      2  O   UNL     1     104.836 123.696 146.616  0.00  0.00    +0.000 OA
ATOM      3  O   UNL     1     101.094 123.612 146.283  0.00  0.00    +0.000 OA
ATOM      4  C   UNL     1     104.549 124.870 147.436  0.00  0.00    +0.000 C 
ATOM      5  C   UNL     1     104.285 124.214 146.947  0.00  0.00    +0.000 C 
ATOM      6  C   UNL     1     103.969 125.404 147.777  0.00  0.00    +0.000 C 
ATOM      7  C   UNL     1     103.446 124.101 146.805  0.00  0.00    +0.000 A 
ATOM      8  C   UNL     1     102.888 124.614 147.132  0.00  0.00    +0.000 A 
ATOM      9  C   UNL     1     103.198 123.470 146.334  0.00  0.00    +0.000 A 
ATOM     10  C   UNL     1     102.084 124.496 146.989  0.00  0.00    +0.000 A 
ATOM     11  C   UNL     1     102.395 123.352 146.191  0.00  0.00    +0.000 A 
ATOM     12  C   UNL     1     101.838 123.865 146.518  0.00  0.00    +0.000 A 
ATOM     13  C   UNL     1     101.990 122.786 145.756  0.00  0.00    +0.000 A 
ATOM     14  C   UNL     1     101.188 122.947 145.813  0.00  0.00    +0.000 A 
ENDROOT
BRANCH   4  17
ATOM     15  O   UNL     1     107.080 124.263 148.777  0.00  0.00    +0.000 OA
ATOM     16  O   UNL     1     107.741 125.203 148.114  0.00  0.00    +0.000 OA
ATOM     17  C   UNL     1     105.353 124.985 147.578  0.00  0.00    +0.000 A 
ATOM     18  C   UNL     1     105.764 125.570 147.165  0.00  0.00    +0.000 A 
ATOM     19  C   UNL     1     105.747 124.517 148.131  0.00  0.00    +0.000 A 
ATOM     20  C   UNL     1     106.551 124.633 148.272  0.00  0.00    +0.000 A 
ATOM     21  C   UNL     1     106.569 125.687 147.307  0.00  0.00    +0.000 A 
ATOM     22  C   UNL     1     106.962 125.218 147.860  0.00  0.00    +0.000 A 
ATOM     23  C   UNL     1     107.814 124.614 148.680  0.00  0.00    +0.000 C 
BRANCH  18  24
ATOM     24  O   UNL     1     105.370 126.039 146.612  0.00  0.00    +0.000 OA
ATOM     25  C   UNL     1     105.774 126.645 146.223  0.00  0.00    +0.000 C 
ENDBRANCH  18  24
ENDBRANCH   4  17
TORSDOF 2
ENDMDL
MODEL 3
REMARK VINA RESULT:      -8.7     12.915     14.448
REMARK  Name = 44257522
REMARK  2 active torsions:
REMARK  status: ('A' for Active; 'I' for Inactive)
REMARK    1  A    between atoms: O_3  and  C_14
REMARK    2  A    between atoms: C_7  and  C_11
REMARK                            x       y       z     vdW  Elec       q    Type
REMARK                         _______ _______ _______ _____ _____    ______ ____
ROOT
ATOM      1  O   UNL     1     111.534 126.879 136.006  0.00  0.00    +0.000 OA
ATOM      2  O   UNL     1     113.974 126.875 136.682  0.00  0.00    +0.000 OA
ATOM      3  O   UNL     1     111.605 123.966 136.487  0.00  0.00    +0.000 OA
ATOM      4  C   UNL     1     112.799 127.621 136.239  0.00  0.00    +0.000 C 
ATOM      5  C   UNL     1     113.179 126.882 136.461  0.00  0.00    +0.000 C 
ATOM      6  C   UNL     1     111.971 127.619 136.010  0.00  0.00    +0.000 C 
ATOM      7  C   UNL     1     112.726 126.153 136.451  0.00  0.00    +0.000 A 
ATOM      8  C   UNL     1     111.931 126.151 136.231  0.00  0.00    +0.000 A 
ATOM      9  C   UNL     1     113.096 125.447 136.665  0.00  0.00    +0.000 A 
ATOM     10  C   UNL     1     111.506 125.443 136.226  0.00  0.00    +0.000 A 
ATOM     11  C   UNL     1     112.672 124.740 136.660  0.00  0.00    +0.000 A 
ATOM     12  C   UNL     1     111.877 124.738 136.440  0.00  0.00    +0.000 A 
ATOM     13  C   UNL     1     112.884 123.969 136.841  0.00  0.00    +0.000 A 
ATOM     14  C   UNL     1     112.226 123.492 136.734  0.00  0.00    +0.000 A 
ENDROOT
BRANCH   4  17
ATOM     15  O   UNL     1     114.779 129.487 135.157  0.00  0.00    +0.000 OA
ATOM     16  O   UNL     1     114.577 130.376 136.121  0.00  0.00    +0.000 OA
ATOM     17  C   UNL     1     113.226 128.327 136.245  0.00  0.00    +0.000 A 
ATOM     18  C   UNL     1     113.100 128.879 136.845  0.00  0.00    +0.000 A 
ATOM     19  C   UNL     1     113.779 128.481 135.653  0.00  0.00    +0.000 A 
ATOM     20  C   UNL     1     114.206 129.186 135.659  0.00  0.00    +0.000 A 
ATOM     21  C   UNL     1     113.527 129.585 136.852  0.00  0.00    +0.000 A 
ATOM     22  C   UNL     1     114.080 129.738 136.259  0.00  0.00    +0.000 A 
ATOM     23  C   UNL     1     115.008 130.221 135.441  0.00  0.00    +0.000 C 
BRANCH  18  24
ATOM     24  O   UNL     1     112.547 128.726 137.438  0.00  0.00    +0.000 OA
ATOM     25  C   UNL     1     112.410 129.285 138.029  0.00  0.00    +0.000 C 
ENDBRANCH  18  24
ENDBRANCH   4  17
TORSDOF 2
ENDMDL
MODEL 4
REMARK VINA RESULT:      -8.6      2.123      3.726
REMARK  Name = 44257522
REMARK  2 active torsions:
REMARK  status: ('A' for Active; 'I' for Inactive)
REMARK    1  A    between atoms: O_3  and  C_14
REMARK    2  A    between atoms: C_7  and  C_11
REMARK                            x       y       z     vdW  Elec       q    Type
REMARK                         _______ _______ _______ _____ _____    ______ ____
ROOT
ATOM      1  O   UNL     1     105.047 125.040 147.172  0.00  0.00    +0.000 OA
ATOM      2  O   UNL     1     107.237 125.509 145.990  0.00  0.00    +0.000 OA
ATOM      3  O   UNL     1     106.695 124.356 149.525  0.00  0.00    +0.000 OA
ATOM      4  C   UNL     1     105.778 125.461 145.949  0.00  0.00    +0.000 C 
ATOM      5  C   UNL     1     106.520 125.358 146.370  0.00  0.00    +0.000 C 
ATOM      6  C   UNL     1     105.036 125.301 146.352  0.00  0.00    +0.000 C 
ATOM      7  C   UNL     1     106.511 125.096 147.188  0.00  0.00    +0.000 A 
ATOM      8  C   UNL     1     105.799 124.942 147.575  0.00  0.00    +0.000 A 
ATOM      9  C   UNL     1     107.227 124.998 147.587  0.00  0.00    +0.000 A 
ATOM     10  C   UNL     1     105.803 124.691 148.362  0.00  0.00    +0.000 A 
ATOM     11  C   UNL     1     107.231 124.747 148.372  0.00  0.00    +0.000 A 
ATOM     12  C   UNL     1     106.519 124.594 148.760  0.00  0.00    +0.000 A 
ATOM     13  C   UNL     1     107.841 124.603 148.902  0.00  0.00    +0.000 A 
ATOM     14  C   UNL     1     107.510 124.362 149.612  0.00  0.00    +0.000 A 
ENDROOT
BRANCH   4  17
ATOM     15  O   UNL     1     106.121 125.043 143.071  0.00  0.00    +0.000 OA
ATOM     16  O   UNL     1     105.819 126.301 142.778  0.00  0.00    +0.000 OA
ATOM     17  C   UNL     1     105.777 125.712 145.163  0.00  0.00    +0.000 A 
ATOM     18  C   UNL     1     105.589 126.495 144.982  0.00  0.00    +0.000 A 
ATOM     19  C   UNL     1     105.964 125.182 144.560  0.00  0.00    +0.000 A 
ATOM     20  C   UNL     1     105.963 125.433 143.774  0.00  0.00    +0.000 A 
ATOM     21  C   UNL     1     105.588 126.747 144.196  0.00  0.00    +0.000 A 
ATOM     22  C   UNL     1     105.775 126.216 143.592  0.00  0.00    +0.000 A 
ATOM     23  C   UNL     1     106.033 125.578 142.457  0.00  0.00    +0.000 C 
BRANCH  18  24
ATOM     24  O   UNL     1     105.402 127.026 145.585  0.00  0.00    +0.000 OA
ATOM     25  C   UNL     1     105.228 127.812 145.403  0.00  0.00    +0.000 C 
ENDBRANCH  18  24
ENDBRANCH   4  17
TORSDOF 2
ENDMDL
MODEL 5
REMARK VINA RESULT:      -8.5     10.984     12.308
REMARK  Name = 44257522
REMARK  2 active torsions:
REMARK  status: ('A' for Active; 'I' for Inactive)
REMARK    1  A    between atoms: O_3  and  C_14
REMARK    2  A    between atoms: C_7  and  C_11
REMARK                            x       y       z     vdW  Elec       q    Type
REMARK                         _______ _______ _______ _____ _____    ______ ____
ROOT
ATOM      1  O   UNL     1     113.866 125.975 137.924  0.00  0.00    +0.000 OA
ATOM      2  O   UNL     1     111.375 126.204 138.315  0.00  0.00    +0.000 OA
ATOM      3  O   UNL     1     114.188 126.987 140.680  0.00  0.00    +0.000 OA
ATOM      4  C   UNL     1     112.474 125.837 137.426  0.00  0.00    +0.000 C 
ATOM      5  C   UNL     1     112.186 126.127 138.182  0.00  0.00    +0.000 C 
ATOM      6  C   UNL     1     113.320 125.761 137.296  0.00  0.00    +0.000 C 
ATOM      7  C   UNL     1     112.747 126.337 138.798  0.00  0.00    +0.000 A 
ATOM      8  C   UNL     1     113.559 126.264 138.673  0.00  0.00    +0.000 A 
ATOM      9  C   UNL     1     112.465 126.615 139.521  0.00  0.00    +0.000 A 
ATOM     10  C   UNL     1     114.090 126.468 139.272  0.00  0.00    +0.000 A 
ATOM     11  C   UNL     1     112.994 126.819 140.120  0.00  0.00    +0.000 A 
ATOM     12  C   UNL     1     113.806 126.746 139.995  0.00  0.00    +0.000 A 
ATOM     13  C   UNL     1     112.882 127.105 140.880  0.00  0.00    +0.000 A 
ATOM     14  C   UNL     1     113.618 127.209 141.225  0.00  0.00    +0.000 A 
ENDROOT
BRANCH   4  17
ATOM     15  O   UNL     1     110.584 126.471 135.282  0.00  0.00    +0.000 OA
ATOM     16  O   UNL     1     110.336 125.194 135.022  0.00  0.00    +0.000 OA
ATOM     17  C   UNL     1     111.943 125.633 136.829  0.00  0.00    +0.000 A 
ATOM     18  C   UNL     1     111.789 124.839 136.668  0.00  0.00    +0.000 A 
ATOM     19  C   UNL     1     111.565 126.223 136.393  0.00  0.00    +0.000 A 
ATOM     20  C   UNL     1     111.033 126.019 135.796  0.00  0.00    +0.000 A 
ATOM     21  C   UNL     1     111.257 124.634 136.071  0.00  0.00    +0.000 A 
ATOM     22  C   UNL     1     110.880 125.224 135.636  0.00  0.00    +0.000 A 
ATOM     23  C   UNL     1     110.153 125.963 134.804  0.00  0.00    +0.000 C 
BRANCH  18  24
ATOM     24  O   UNL     1     112.167 124.248 137.104  0.00  0.00    +0.000 OA
ATOM     25  C   UNL     1     112.030 123.454 136.927  0.00  0.00    +0.000 C 
ENDBRANCH  18  24
ENDBRANCH   4  17
TORSDOF 2
ENDMDL
MODEL 6
REMARK VINA RESULT:      -8.3     12.183     13.257
REMARK  Name = 44257522
REMARK  2 active torsions:
REMARK  status: ('A' for Active; 'I' for Inactive)
REMARK    1  A    between atoms: O_3  and  C_14
REMARK    2  A    between atoms: C_7  and  C_11
REMARK                            x       y       z     vdW  Elec       q    Type
REMARK                         _______ _______ _______ _____ _____    ______ ____
ROOT
ATOM      1  O   UNL     1     110.601 126.102 134.673  0.00  0.00    +0.000 OA
ATOM      2  O   UNL     1     110.419 127.349 136.869  0.00  0.00    +0.000 OA
ATOM      3  O   UNL     1     111.694 123.867 136.264  0.00  0.00    +0.000 OA
ATOM      4  C   UNL     1     110.226 127.328 135.422  0.00  0.00    +0.000 C 
ATOM      5  C   UNL     1     110.476 126.947 136.151  0.00  0.00    +0.000 C 
ATOM      6  C   UNL     1     110.289 126.903 134.678  0.00  0.00    +0.000 C 
ATOM      7  C   UNL     1     110.785 126.146 136.126  0.00  0.00    +0.000 A 
ATOM      8  C   UNL     1     110.846 125.738 135.412  0.00  0.00    +0.000 A 
ATOM      9  C   UNL     1     111.023 125.785 136.829  0.00  0.00    +0.000 A 
ATOM     10  C   UNL     1     111.145 124.968 135.400  0.00  0.00    +0.000 A 
ATOM     11  C   UNL     1     111.322 125.017 136.818  0.00  0.00    +0.000 A 
ATOM     12  C   UNL     1     111.383 124.608 136.103  0.00  0.00    +0.000 A 
ATOM     13  C   UNL     1     111.597 124.524 137.413  0.00  0.00    +0.000 A 
ATOM     14  C   UNL     1     111.826 123.815 137.071  0.00  0.00    +0.000 A 
ENDROOT
BRANCH   4  17
ATOM     15  O   UNL     1     108.135 129.311 135.941  0.00  0.00    +0.000 OA
ATOM     16  O   UNL     1     108.892 130.324 135.539  0.00  0.00    +0.000 OA
ATOM     17  C   UNL     1     109.928 128.097 135.436  0.00  0.00    +0.000 A 
ATOM     18  C   UNL     1     110.399 128.726 135.185  0.00  0.00    +0.000 A 
ATOM     19  C   UNL     1     109.159 128.238 135.699  0.00  0.00    +0.000 A 
ATOM     20  C   UNL     1     108.861 129.007 135.713  0.00  0.00    +0.000 A 
ATOM     21  C   UNL     1     110.101 129.496 135.199  0.00  0.00    +0.000 A 
ATOM     22  C   UNL     1     109.332 129.636 135.463  0.00  0.00    +0.000 A 
ATOM     23  C   UNL     1     108.154 130.123 135.834  0.00  0.00    +0.000 C 
BRANCH  18  24
ATOM     24  O   UNL     1     111.168 128.587 134.921  0.00  0.00    +0.000 OA
ATOM     25  C   UNL     1     111.649 129.220 134.700  0.00  0.00    +0.000 C 
ENDBRANCH  18  24
ENDBRANCH   4  17
TORSDOF 2
ENDMDL
MODEL 7
REMARK VINA RESULT:      -8.3      1.071      2.037
REMARK  Name = 44257522
REMARK  2 active torsions:
REMARK  status: ('A' for Active; 'I' for Inactive)
REMARK    1  A    between atoms: O_3  and  C_14
REMARK    2  A    between atoms: C_7  and  C_11
REMARK                            x       y       z     vdW  Elec       q    Type
REMARK                         _______ _______ _______ _____ _____    ______ ____
ROOT
ATOM      1  O   UNL     1     104.779 124.490 149.362  0.00  0.00    +0.000 OA
ATOM      2  O   UNL     1     104.560 124.841 146.864  0.00  0.00    +0.000 OA
ATOM      3  O   UNL     1     107.682 124.851 148.955  0.00  0.00    +0.000 OA
ATOM      4  C   UNL     1     103.923 124.582 148.152  0.00  0.00    +0.000 C 
ATOM      5  C   UNL     1     104.626 124.726 147.678  0.00  0.00    +0.000 C 
ATOM      6  C   UNL     1     104.000 124.463 148.999  0.00  0.00    +0.000 C 
ATOM      7  C   UNL     1     105.395 124.748 148.058  0.00  0.00    +0.000 A 
ATOM      8  C   UNL     1     105.470 124.635 148.872  0.00  0.00    +0.000 A 
ATOM      9  C   UNL     1     106.067 124.887 147.598  0.00  0.00    +0.000 A 
ATOM     10  C   UNL     1     106.215 124.659 149.226  0.00  0.00    +0.000 A 
ATOM     11  C   UNL     1     106.811 124.911 147.952  0.00  0.00    +0.000 A 
ATOM     12  C   UNL     1     106.885 124.797 148.765  0.00  0.00    +0.000 A 
ATOM     13  C   UNL     1     107.562 125.034 147.646  0.00  0.00    +0.000 A 
ATOM     14  C   UNL     1     108.099 124.997 148.265  0.00  0.00    +0.000 A 
ENDROOT
BRANCH   4  17
ATOM     15  O   UNL     1     101.884 123.366 146.438  0.00  0.00    +0.000 OA
ATOM     16  O   UNL     1     101.010 124.340 146.661  0.00  0.00    +0.000 OA
ATOM     17  C   UNL     1     103.179 124.558 147.796  0.00  0.00    +0.000 A 
ATOM     18  C   UNL     1     102.636 125.164 147.935  0.00  0.00    +0.000 A 
ATOM     19  C   UNL     1     102.978 123.930 147.301  0.00  0.00    +0.000 A 
ATOM     20  C   UNL     1     102.234 123.907 146.945  0.00  0.00    +0.000 A 
ATOM     21  C   UNL     1     101.892 125.141 147.579  0.00  0.00    +0.000 A 
ATOM     22  C   UNL     1     101.691 124.512 147.084  0.00  0.00    +0.000 A 
ATOM     23  C   UNL     1     101.129 123.633 146.263  0.00  0.00    +0.000 C 
BRANCH  18  24
ATOM     24  O   UNL     1     102.837 125.793 148.430  0.00  0.00    +0.000 OA
ATOM     25  C   UNL     1     102.287 126.389 148.583  0.00  0.00    +0.000 C 
ENDBRANCH  18  24
ENDBRANCH   4  17
TORSDOF 2
ENDMDL
MODEL 8
REMARK VINA RESULT:      -8.2     11.968     13.654
REMARK  Name = 44257522
REMARK  2 active torsions:
REMARK  status: ('A' for Active; 'I' for Inactive)
REMARK    1  A    between atoms: O_3  and  C_14
REMARK    2  A    between atoms: C_7  and  C_11
REMARK                            x       y       z     vdW  Elec       q    Type
REMARK                         _______ _______ _______ _____ _____    ______ ____
ROOT
ATOM      1  O   UNL     1     111.550 127.797 135.645  0.00  0.00    +0.000 OA
ATOM      2  O   UNL     1     113.458 126.565 136.764  0.00  0.00    +0.000 OA
ATOM      3  O   UNL     1     113.536 129.892 135.020  0.00  0.00    +0.000 OA
ATOM      4  C   UNL     1     112.047 126.614 136.393  0.00  0.00    +0.000 C 
ATOM      5  C   UNL     1     112.833 126.962 136.401  0.00  0.00    +0.000 C 
ATOM      6  C   UNL     1     111.401 127.034 136.013  0.00  0.00    +0.000 C 
ATOM      7  C   UNL     1     112.962 127.724 136.028  0.00  0.00    +0.000 A 
ATOM      8  C   UNL     1     112.343 128.128 135.663  0.00  0.00    +0.000 A 
ATOM      9  C   UNL     1     113.719 128.054 136.039  0.00  0.00    +0.000 A 
ATOM     10  C   UNL     1     112.479 128.861 135.308  0.00  0.00    +0.000 A 
ATOM     11  C   UNL     1     113.856 128.785 135.685  0.00  0.00    +0.000 A 
ATOM     12  C   UNL     1     113.236 129.189 135.319  0.00  0.00    +0.000 A 
ATOM     13  C   UNL     1     114.533 129.242 135.608  0.00  0.00    +0.000 A 
ATOM     14  C   UNL     1     114.335 129.924 135.198  0.00  0.00    +0.000 A 
ENDROOT
BRANCH   4  17
ATOM     15  O   UNL     1     112.247 123.695 136.521  0.00  0.00    +0.000 OA
ATOM     16  O   UNL     1     111.595 123.627 137.675  0.00  0.00    +0.000 OA
ATOM     17  C   UNL     1     111.912 125.881 136.749  0.00  0.00    +0.000 A 
ATOM     18  C   UNL     1     111.507 125.840 137.466  0.00  0.00    +0.000 A 
ATOM     19  C   UNL     1     112.183 125.191 136.387  0.00  0.00    +0.000 A 
ATOM     20  C   UNL     1     112.049 124.459 136.743  0.00  0.00    +0.000 A 
ATOM     21  C   UNL     1     111.372 125.108 137.822  0.00  0.00    +0.000 A 
ATOM     22  C   UNL     1     111.644 124.418 137.460  0.00  0.00    +0.000 A 
ATOM     23  C   UNL     1     111.968 123.182 137.096  0.00  0.00    +0.000 C 
BRANCH  18  24
ATOM     24  O   UNL     1     111.236 126.530 137.828  0.00  0.00    +0.000 OA
ATOM     25  C   UNL     1     110.815 126.486 138.536  0.00  0.00    +0.000 C 
ENDBRANCH  18  24
ENDBRANCH   4  17
TORSDOF 2
ENDMDL
MODEL 9
REMARK VINA RESULT:      -8.2     12.165     12.877
REMARK  Name = 44257522
REMARK  2 active torsions:
REMARK  status: ('A' for Active; 'I' for Inactive)
REMARK    1  A    between atoms: O_3  and  C_14
REMARK    2  A    between atoms: C_7  and  C_11
REMARK                            x       y       z     vdW  Elec       q    Type
REMARK                         _______ _______ _______ _____ _____    ______ ____
ROOT
ATOM      1  O   UNL     1     111.391 124.843 137.149  0.00  0.00    +0.000 OA
ATOM      2  O   UNL     1     112.087 127.045 136.110  0.00  0.00    +0.000 OA
ATOM      3  O   UNL     1     114.278 124.250 137.335  0.00  0.00    +0.000 OA
ATOM      4  C   UNL     1     111.020 126.153 136.555  0.00  0.00    +0.000 C 
ATOM      5  C   UNL     1     111.854 126.330 136.448  0.00  0.00    +0.000 C 
ATOM      6  C   UNL     1     110.787 125.405 136.907  0.00  0.00    +0.000 C 
ATOM      7  C   UNL     1     112.444 125.756 136.695  0.00  0.00    +0.000 A 
ATOM      8  C   UNL     1     112.220 125.038 137.034  0.00  0.00    +0.000 A 
ATOM      9  C   UNL     1     113.244 125.930 136.590  0.00  0.00    +0.000 A 
ATOM     10  C   UNL     1     112.796 124.494 137.267  0.00  0.00    +0.000 A 
ATOM     11  C   UNL     1     113.819 125.388 136.823  0.00  0.00    +0.000 A 
ATOM     12  C   UNL     1     113.595 124.670 137.162  0.00  0.00    +0.000 A 
ATOM     13  C   UNL     1     114.638 125.405 136.790  0.00  0.00    +0.000 A 
ATOM     14  C   UNL     1     114.921 124.703 137.106  0.00  0.00    +0.000 A 
ENDROOT
BRANCH   4  17
ATOM     15  O   UNL     1     109.562 128.681 136.799  0.00  0.00    +0.000 OA
ATOM     16  O   UNL     1     108.789 128.421 135.752  0.00  0.00    +0.000 OA
ATOM     17  C   UNL     1     110.446 126.698 136.320  0.00  0.00    +0.000 A 
ATOM     18  C   UNL     1     109.966 126.536 135.669  0.00  0.00    +0.000 A 
ATOM     19  C   UNL     1     110.353 127.404 136.736  0.00  0.00    +0.000 A 
ATOM     20  C   UNL     1     109.780 127.949 136.502  0.00  0.00    +0.000 A 
ATOM     21  C   UNL     1     109.392 127.081 135.434  0.00  0.00    +0.000 A 
ATOM     22  C   UNL     1     109.300 127.787 135.851  0.00  0.00    +0.000 A 
ATOM     23  C   UNL     1     108.951 128.973 136.337  0.00  0.00    +0.000 C 
BRANCH  18  24
ATOM     24  O   UNL     1     110.059 125.830 135.253  0.00  0.00    +0.000 OA
ATOM     25  C   UNL     1     109.567 125.661 134.612  0.00  0.00    +0.000 C 
ENDBRANCH  18  24
ENDBRANCH   4  17
TORSDOF 2
ENDMDL
