MODEL 1
REMARK VINA RESULT:      -9.9      0.000      0.000
REMARK  Name = 131833486
REMARK  6 active torsions:
REMARK  status: ('A' for Active; 'I' for Inactive)
REMARK    1  A    between atoms: S_1  and  O_3
REMARK    2  A    between atoms: O_3  and  C_15
REMARK    3  A    between atoms: O_14  and  C_35
REMARK    4  A    between atoms: C_17  and  C_20
REMARK    5  A    between atoms: C_19  and  C_21
REMARK    6  A    between atoms: C_28  and  C_30
REMARK                            x       y       z     vdW  Elec       q    Type
REMARK                         _______ _______ _______ _____ _____    ______ ____
ROOT
ATOM      1  O   UNL     1     105.928 124.191 141.502  0.00  0.00    +0.000 OA
ATOM      2  O   UNL     1     105.228 126.897 140.910  0.00  0.00    +0.000 OA
ATOM      3  O   UNL     1     104.308 124.785 139.179  0.00  0.00    +0.000 OA
ATOM      4  O   UNL     1     105.488 123.105 140.661  0.00  0.00    +0.000 OA
ATOM      5  C   UNL     1     105.578 125.544 141.206  0.00  0.00    +0.000 A 
ATOM      6  C   UNL     1     105.545 124.741 141.021  0.00  0.00    +0.000 A 
ATOM      7  C   UNL     1     105.195 126.094 140.725  0.00  0.00    +0.000 A 
ATOM      8  C   UNL     1     105.129 124.487 140.356  0.00  0.00    +0.000 A 
ATOM      9  C   UNL     1     104.778 125.841 140.059  0.00  0.00    +0.000 A 
ATOM     10  C   UNL     1     104.745 125.037 139.875  0.00  0.00    +0.000 A 
ATOM     11  C   UNL     1     105.101 123.647 140.174  0.00  0.00    +0.000 A 
ATOM     12  C   UNL     1     104.270 123.950 138.982  0.00  0.00    +0.000 A 
ATOM     13  C   UNL     1     104.669 123.378 139.483  0.00  0.00    +0.000 A 
ENDROOT
BRANCH   5  19
ATOM     14  O   UNL     1     105.614 125.849 142.602  0.00  0.00    +0.000 OA
ATOM     15  O   UNL     1     108.006 126.457 142.408  0.00  0.00    +0.000 OA
ATOM     16  O   UNL     1     107.245 126.559 143.867  0.00  0.00    +0.000 OA
ATOM     17  C   UNL     1     106.791 126.000 141.807  0.00  0.00    +0.000 C 
ATOM     18  C   UNL     1     107.208 126.254 142.472  0.00  0.00    +0.000 C 
ATOM     19  C   UNL     1     105.994 125.798 141.871  0.00  0.00    +0.000 C 
ATOM     20  C   UNL     1     106.827 126.305 143.202  0.00  0.00    +0.000 C 
ATOM     21  C   UNL     1     106.030 126.102 143.267  0.00  0.00    +0.000 C 
BRANCH  21  23
ATOM     22  O   UNL     1     105.239 125.503 144.295  0.00  0.00    +0.000 OA
ATOM     23  C   UNL     1     105.650 126.153 143.997  0.00  0.00    +0.000 C 
ENDBRANCH  21  23
BRANCH  17  24
ATOM     24  O   UNL     1     107.172 125.949 141.077  0.00  0.00    +0.000 OA
BRANCH  24  25
ATOM     25  S   UNL     1     107.985 126.082 141.025  0.00  0.00    +0.000 S 
ATOM     26  O   UNL     1     108.798 126.215 140.973  0.00  0.00    +0.000 OA
ATOM     27  O   UNL     1     107.844 126.873 140.835  0.00  0.00    +0.000 OA
ATOM     28  O   UNL     1     108.126 125.292 141.215  0.00  0.00    +0.000 OA
ENDBRANCH  24  25
ENDBRANCH  17  24
ENDBRANCH   5  19
BRANCH  12  29
ATOM     29  C   UNL     1     103.852 123.700 138.315  0.00  0.00    +0.000 A 
ATOM     30  C   UNL     1     104.261 123.438 137.648  0.00  0.00    +0.000 A 
ATOM     31  C   UNL     1     103.028 123.713 138.316  0.00  0.00    +0.000 A 
ATOM     32  C   UNL     1     103.844 123.188 136.981  0.00  0.00    +0.000 A 
ATOM     33  C   UNL     1     102.611 123.463 137.649  0.00  0.00    +0.000 A 
ATOM     34  C   UNL     1     103.019 123.200 136.982  0.00  0.00    +0.000 A 
BRANCH  34  35
ATOM     35  O   UNL     1     102.602 122.950 136.315  0.00  0.00    +0.000 OA
ATOM     36  C   UNL     1     102.927 123.051 135.564  0.00  0.00    +0.000 C 
ENDBRANCH  34  35
ENDBRANCH  12  29
TORSDOF 6
ENDMDL
MODEL 2
REMARK VINA RESULT:      -9.2      8.011      9.003
REMARK  Name = 131833486
REMARK  6 active torsions:
REMARK  status: ('A' for Active; 'I' for Inactive)
REMARK    1  A    between atoms: S_1  and  O_3
REMARK    2  A    between atoms: O_3  and  C_15
REMARK    3  A    between atoms: O_14  and  C_35
REMARK    4  A    between atoms: C_17  and  C_20
REMARK    5  A    between atoms: C_19  and  C_21
REMARK    6  A    between atoms: C_28  and  C_30
REMARK                            x       y       z     vdW  Elec       q    Type
REMARK                         _______ _______ _______ _____ _____    ______ ____
ROOT
ATOM      1  O   UNL     1     113.728 128.389 141.365  0.00  0.00    +0.000 OA
ATOM      2  O   UNL     1     112.534 130.131 139.439  0.00  0.00    +0.000 OA
ATOM      3  O   UNL     1     113.178 127.423 138.693  0.00  0.00    +0.000 OA
ATOM      4  O   UNL     1     114.065 127.027 141.031  0.00  0.00    +0.000 OA
ATOM      5  C   UNL     1     113.131 129.261 140.402  0.00  0.00    +0.000 A 
ATOM      6  C   UNL     1     113.438 128.522 140.604  0.00  0.00    +0.000 A 
ATOM      7  C   UNL     1     112.841 129.393 139.641  0.00  0.00    +0.000 A 
ATOM      8  C   UNL     1     113.455 127.915 140.045  0.00  0.00    +0.000 A 
ATOM      9  C   UNL     1     112.858 128.786 139.082  0.00  0.00    +0.000 A 
ATOM     10  C   UNL     1     113.165 128.047 139.284  0.00  0.00    +0.000 A 
ATOM     11  C   UNL     1     113.777 127.150 140.268  0.00  0.00    +0.000 A 
ATOM     12  C   UNL     1     113.496 126.652 138.898  0.00  0.00    +0.000 A 
ATOM     13  C   UNL     1     113.798 126.515 139.690  0.00  0.00    +0.000 A 
ENDROOT
BRANCH   5  19
ATOM     14  O   UNL     1     112.465 129.946 141.465  0.00  0.00    +0.000 OA
ATOM     15  O   UNL     1     114.360 131.530 141.630  0.00  0.00    +0.000 OA
ATOM     16  O   UNL     1     113.063 131.687 142.637  0.00  0.00    +0.000 OA
ATOM     17  C   UNL     1     113.745 130.395 141.016  0.00  0.00    +0.000 C 
ATOM     18  C   UNL     1     113.728 131.002 141.575  0.00  0.00    +0.000 C 
ATOM     19  C   UNL     1     113.114 129.867 140.961  0.00  0.00    +0.000 C 
ATOM     20  C   UNL     1     113.080 131.080 142.078  0.00  0.00    +0.000 C 
ATOM     21  C   UNL     1     112.448 130.552 142.023  0.00  0.00    +0.000 C 
BRANCH  21  23
ATOM     22  O   UNL     1     111.154 130.123 142.451  0.00  0.00    +0.000 OA
ATOM     23  C   UNL     1     111.800 130.631 142.527  0.00  0.00    +0.000 C 
ENDBRANCH  21  23
BRANCH  17  24
ATOM     24  O   UNL     1     114.394 130.317 140.512  0.00  0.00    +0.000 OA
BRANCH  24  25
ATOM     25  S   UNL     1     115.032 130.836 140.577  0.00  0.00    +0.000 S 
ATOM     26  O   UNL     1     115.670 131.355 140.641  0.00  0.00    +0.000 OA
ATOM     27  O   UNL     1     114.661 131.356 140.054  0.00  0.00    +0.000 OA
ATOM     28  O   UNL     1     115.402 130.316 141.099  0.00  0.00    +0.000 OA
ENDBRANCH  24  25
ENDBRANCH  17  24
ENDBRANCH   5  19
BRANCH  12  29
ATOM     29  C   UNL     1     113.512 126.048 138.336  0.00  0.00    +0.000 A 
ATOM     30  C   UNL     1     112.805 125.720 138.064  0.00  0.00    +0.000 A 
ATOM     31  C   UNL     1     114.233 125.771 138.046  0.00  0.00    +0.000 A 
ATOM     32  C   UNL     1     112.820 125.116 137.502  0.00  0.00    +0.000 A 
ATOM     33  C   UNL     1     114.248 125.167 137.485  0.00  0.00    +0.000 A 
ATOM     34  C   UNL     1     113.541 124.839 137.213  0.00  0.00    +0.000 A 
BRANCH  34  35
ATOM     35  O   UNL     1     113.557 124.235 136.651  0.00  0.00    +0.000 OA
ATOM     36  C   UNL     1     112.887 123.769 136.528  0.00  0.00    +0.000 C 
ENDBRANCH  34  35
ENDBRANCH  12  29
TORSDOF 6
ENDMDL
MODEL 3
REMARK VINA RESULT:      -9.1      3.931      5.762
REMARK  Name = 131833486
REMARK  6 active torsions:
REMARK  status: ('A' for Active; 'I' for Inactive)
REMARK    1  A    between atoms: S_1  and  O_3
REMARK    2  A    between atoms: O_3  and  C_15
REMARK    3  A    between atoms: O_14  and  C_35
REMARK    4  A    between atoms: C_17  and  C_20
REMARK    5  A    between atoms: C_19  and  C_21
REMARK    6  A    between atoms: C_28  and  C_30
REMARK                            x       y       z     vdW  Elec       q    Type
REMARK                         _______ _______ _______ _____ _____    ______ ____
ROOT
ATOM      1  O   UNL     1     104.788 127.852 141.380  0.00  0.00    +0.000 OA
ATOM      2  O   UNL     1     105.437 128.608 144.059  0.00  0.00    +0.000 OA
ATOM      3  O   UNL     1     103.509 130.154 142.579  0.00  0.00    +0.000 OA
ATOM      4  O   UNL     1     103.828 128.600 140.605  0.00  0.00    +0.000 OA
ATOM      5  C   UNL     1     105.113 128.229 142.719  0.00  0.00    +0.000 A 
ATOM      6  C   UNL     1     104.686 128.357 142.024  0.00  0.00    +0.000 A 
ATOM      7  C   UNL     1     105.011 128.734 143.364  0.00  0.00    +0.000 A 
ATOM      8  C   UNL     1     104.158 128.988 141.974  0.00  0.00    +0.000 A 
ATOM      9  C   UNL     1     104.482 129.366 143.314  0.00  0.00    +0.000 A 
ATOM     10  C   UNL     1     104.056 129.493 142.619  0.00  0.00    +0.000 A 
ATOM     11  C   UNL     1     103.720 129.110 141.245  0.00  0.00    +0.000 A 
ATOM     12  C   UNL     1     103.062 130.291 141.858  0.00  0.00    +0.000 A 
ATOM     13  C   UNL     1     103.168 129.766 141.187  0.00  0.00    +0.000 A 
ENDROOT
BRANCH   5  19
ATOM     14  O   UNL     1     105.374 126.854 143.005  0.00  0.00    +0.000 OA
ATOM     15  O   UNL     1     107.762 127.191 142.448  0.00  0.00    +0.000 OA
ATOM     16  O   UNL     1     107.227 125.704 142.920  0.00  0.00    +0.000 OA
ATOM     17  C   UNL     1     106.437 127.711 142.584  0.00  0.00    +0.000 C 
ATOM     18  C   UNL     1     106.966 127.079 142.634  0.00  0.00    +0.000 C 
ATOM     19  C   UNL     1     105.641 127.598 142.769  0.00  0.00    +0.000 C 
ATOM     20  C   UNL     1     106.698 126.335 142.870  0.00  0.00    +0.000 C 
ATOM     21  C   UNL     1     105.902 126.223 143.055  0.00  0.00    +0.000 C 
BRANCH  21  23
ATOM     22  O   UNL     1     105.191 125.399 143.982  0.00  0.00    +0.000 OA
ATOM     23  C   UNL     1     105.635 125.479 143.291  0.00  0.00    +0.000 C 
ENDBRANCH  21  23
BRANCH  17  24
ATOM     24  O   UNL     1     106.705 128.454 142.348  0.00  0.00    +0.000 OA
BRANCH  24  25
ATOM     25  S   UNL     1     107.490 128.556 142.116  0.00  0.00    +0.000 S 
ATOM     26  O   UNL     1     108.275 128.658 141.884  0.00  0.00    +0.000 OA
ATOM     27  O   UNL     1     107.694 128.752 142.891  0.00  0.00    +0.000 OA
ATOM     28  O   UNL     1     107.287 128.360 141.341  0.00  0.00    +0.000 OA
ENDBRANCH  24  25
ENDBRANCH  17  24
ENDBRANCH   5  19
BRANCH  12  29
ATOM     29  C   UNL     1     102.534 130.924 141.811  0.00  0.00    +0.000 A 
ATOM     30  C   UNL     1     102.798 131.663 141.554  0.00  0.00    +0.000 A 
ATOM     31  C   UNL     1     101.744 130.819 142.022  0.00  0.00    +0.000 A 
ATOM     32  C   UNL     1     102.271 132.296 141.507  0.00  0.00    +0.000 A 
ATOM     33  C   UNL     1     101.217 131.453 141.975  0.00  0.00    +0.000 A 
ATOM     34  C   UNL     1     101.481 132.191 141.717  0.00  0.00    +0.000 A 
BRANCH  34  35
ATOM     35  O   UNL     1     100.953 132.824 141.671  0.00  0.00    +0.000 OA
ATOM     36  C   UNL     1     101.058 133.484 142.155  0.00  0.00    +0.000 C 
ENDBRANCH  34  35
ENDBRANCH  12  29
TORSDOF 6
ENDMDL
MODEL 4
REMARK VINA RESULT:      -9.1      7.802     11.099
REMARK  Name = 131833486
REMARK  6 active torsions:
REMARK  status: ('A' for Active; 'I' for Inactive)
REMARK    1  A    between atoms: S_1  and  O_3
REMARK    2  A    between atoms: O_3  and  C_15
REMARK    3  A    between atoms: O_14  and  C_35
REMARK    4  A    between atoms: C_17  and  C_20
REMARK    5  A    between atoms: C_19  and  C_21
REMARK    6  A    between atoms: C_28  and  C_30
REMARK                            x       y       z     vdW  Elec       q    Type
REMARK                         _______ _______ _______ _____ _____    ______ ____
ROOT
ATOM      1  O   UNL     1     111.755 132.325 142.585  0.00  0.00    +0.000 OA
ATOM      2  O   UNL     1     111.150 129.611 143.243  0.00  0.00    +0.000 OA
ATOM      3  O   UNL     1     111.900 131.442 145.337  0.00  0.00    +0.000 OA
ATOM      4  O   UNL     1     112.135 133.273 143.604  0.00  0.00    +0.000 OA
ATOM      5  C   UNL     1     111.452 130.968 142.913  0.00  0.00    +0.000 A 
ATOM      6  C   UNL     1     111.678 131.727 143.148  0.00  0.00    +0.000 A 
ATOM      7  C   UNL     1     111.375 130.369 143.476  0.00  0.00    +0.000 A 
ATOM      8  C   UNL     1     111.826 131.886 143.943  0.00  0.00    +0.000 A 
ATOM      9  C   UNL     1     111.523 130.529 144.272  0.00  0.00    +0.000 A 
ATOM     10  C   UNL     1     111.749 131.288 144.505  0.00  0.00    +0.000 A 
ATOM     11  C   UNL     1     112.060 132.681 144.174  0.00  0.00    +0.000 A 
ATOM     12  C   UNL     1     112.135 132.229 145.586  0.00  0.00    +0.000 A 
ATOM     13  C   UNL     1     112.216 132.853 145.001  0.00  0.00    +0.000 A 
ENDROOT
BRANCH   5  19
ATOM     14  O   UNL     1     110.546 130.911 141.810  0.00  0.00    +0.000 OA
ATOM     15  O   UNL     1     112.378 130.123 140.345  0.00  0.00    +0.000 OA
ATOM     16  O   UNL     1     110.861 130.328 139.731  0.00  0.00    +0.000 OA
ATOM     17  C   UNL     1     111.915 130.545 141.630  0.00  0.00    +0.000 C 
ATOM     18  C   UNL     1     111.767 130.385 140.834  0.00  0.00    +0.000 C 
ATOM     19  C   UNL     1     111.304 130.808 142.118  0.00  0.00    +0.000 C 
ATOM     20  C   UNL     1     111.008 130.488 140.527  0.00  0.00    +0.000 C 
ATOM     21  C   UNL     1     110.398 130.751 141.015  0.00  0.00    +0.000 C 
BRANCH  21  23
ATOM     22  O   UNL     1     109.055 131.217 141.163  0.00  0.00    +0.000 OA
ATOM     23  C   UNL     1     109.640 130.854 140.708  0.00  0.00    +0.000 C 
ENDBRANCH  21  23
BRANCH  17  24
ATOM     24  O   UNL     1     112.674 130.442 141.937  0.00  0.00    +0.000 OA
BRANCH  24  25
ATOM     25  S   UNL     1     113.291 130.209 141.441  0.00  0.00    +0.000 S 
ATOM     26  O   UNL     1     113.909 129.976 140.946  0.00  0.00    +0.000 OA
ATOM     27  O   UNL     1     113.453 131.000 141.271  0.00  0.00    +0.000 OA
ATOM     28  O   UNL     1     113.130 129.419 141.612  0.00  0.00    +0.000 OA
ENDBRANCH  24  25
ENDBRANCH  17  24
ENDBRANCH   5  19
BRANCH  12  29
ATOM     29  C   UNL     1     112.283 132.386 146.383  0.00  0.00    +0.000 A 
ATOM     30  C   UNL     1     111.735 132.814 146.827  0.00  0.00    +0.000 A 
ATOM     31  C   UNL     1     112.977 132.114 146.736  0.00  0.00    +0.000 A 
ATOM     32  C   UNL     1     111.882 132.971 147.624  0.00  0.00    +0.000 A 
ATOM     33  C   UNL     1     113.124 132.270 147.532  0.00  0.00    +0.000 A 
ATOM     34  C   UNL     1     112.576 132.699 147.976  0.00  0.00    +0.000 A 
BRANCH  34  35
ATOM     35  O   UNL     1     112.723 132.855 148.773  0.00  0.00    +0.000 OA
ATOM     36  C   UNL     1     112.097 133.026 149.282  0.00  0.00    +0.000 C 
ENDBRANCH  34  35
ENDBRANCH  12  29
TORSDOF 6
ENDMDL
MODEL 5
REMARK VINA RESULT:      -9.0      4.552      6.431
REMARK  Name = 131833486
REMARK  6 active torsions:
REMARK  status: ('A' for Active; 'I' for Inactive)
REMARK    1  A    between atoms: S_1  and  O_3
REMARK    2  A    between atoms: O_3  and  C_15
REMARK    3  A    between atoms: O_14  and  C_35
REMARK    4  A    between atoms: C_17  and  C_20
REMARK    5  A    between atoms: C_19  and  C_21
REMARK    6  A    between atoms: C_28  and  C_30
REMARK                            x       y       z     vdW  Elec       q    Type
REMARK                         _______ _______ _______ _____ _____    ______ ____
ROOT
ATOM      1  O   UNL     1     106.281 127.069 146.850  0.00  0.00    +0.000 OA
ATOM      2  O   UNL     1     106.313 124.509 145.581  0.00  0.00    +0.000 OA
ATOM      3  O   UNL     1     105.515 126.829 144.070  0.00  0.00    +0.000 OA
ATOM      4  O   UNL     1     105.888 128.255 146.129  0.00  0.00    +0.000 OA
ATOM      5  C   UNL     1     106.297 125.789 146.216  0.00  0.00    +0.000 A 
ATOM      6  C   UNL     1     106.160 126.602 146.181  0.00  0.00    +0.000 A 
ATOM      7  C   UNL     1     106.176 125.322 145.547  0.00  0.00    +0.000 A 
ATOM      8  C   UNL     1     105.903 126.948 145.478  0.00  0.00    +0.000 A 
ATOM      9  C   UNL     1     105.919 125.668 144.843  0.00  0.00    +0.000 A 
ATOM     10  C   UNL     1     105.783 126.480 144.809  0.00  0.00    +0.000 A 
ATOM     11  C   UNL     1     105.765 127.796 145.455  0.00  0.00    +0.000 A 
ATOM     12  C   UNL     1     105.371 127.675 144.028  0.00  0.00    +0.000 A 
ATOM     13  C   UNL     1     105.497 128.161 144.725  0.00  0.00    +0.000 A 
ENDROOT
BRANCH   5  19
ATOM     14  O   UNL     1     107.360 125.410 147.093  0.00  0.00    +0.000 OA
ATOM     15  O   UNL     1     105.712 124.472 148.685  0.00  0.00    +0.000 OA
ATOM     16  O   UNL     1     107.324 124.406 149.030  0.00  0.00    +0.000 OA
ATOM     17  C   UNL     1     106.005 125.131 147.450  0.00  0.00    +0.000 C 
ATOM     18  C   UNL     1     106.262 124.785 148.154  0.00  0.00    +0.000 C 
ATOM     19  C   UNL     1     106.554 125.444 146.919  0.00  0.00    +0.000 C 
ATOM     20  C   UNL     1     107.067 124.752 148.327  0.00  0.00    +0.000 C 
ATOM     21  C   UNL     1     107.617 125.065 147.796  0.00  0.00    +0.000 C 
BRANCH  21  23
ATOM     22  O   UNL     1     108.978 125.082 147.362  0.00  0.00    +0.000 OA
ATOM     23  C   UNL     1     108.422 125.031 147.969  0.00  0.00    +0.000 C 
ENDBRANCH  21  23
BRANCH  17  24
ATOM     24  O   UNL     1     105.199 125.164 147.277  0.00  0.00    +0.000 OA
BRANCH  24  25
ATOM     25  S   UNL     1     104.648 124.882 147.823  0.00  0.00    +0.000 S 
ATOM     26  O   UNL     1     104.097 124.601 148.369  0.00  0.00    +0.000 OA
ATOM     27  O   UNL     1     104.627 125.624 148.184  0.00  0.00    +0.000 OA
ATOM     28  O   UNL     1     104.669 124.141 147.462  0.00  0.00    +0.000 OA
ENDBRANCH  24  25
ENDBRANCH  17  24
ENDBRANCH   5  19
BRANCH  12  29
ATOM     29  C   UNL     1     105.114 128.017 143.323  0.00  0.00    +0.000 A 
ATOM     30  C   UNL     1     105.340 127.690 142.600  0.00  0.00    +0.000 A 
ATOM     31  C   UNL     1     104.631 128.686 143.340  0.00  0.00    +0.000 A 
ATOM     32  C   UNL     1     105.084 128.032 141.894  0.00  0.00    +0.000 A 
ATOM     33  C   UNL     1     104.375 129.028 142.634  0.00  0.00    +0.000 A 
ATOM     34  C   UNL     1     104.601 128.701 141.911  0.00  0.00    +0.000 A 
BRANCH  34  35
ATOM     35  O   UNL     1     104.344 129.043 141.205  0.00  0.00    +0.000 OA
ATOM     36  C   UNL     1     103.550 128.992 140.988  0.00  0.00    +0.000 C 
ENDBRANCH  34  35
ENDBRANCH  12  29
TORSDOF 6
ENDMDL
MODEL 6
REMARK VINA RESULT:      -9.0      7.724      9.498
REMARK  Name = 131833486
REMARK  6 active torsions:
REMARK  status: ('A' for Active; 'I' for Inactive)
REMARK    1  A    between atoms: S_1  and  O_3
REMARK    2  A    between atoms: O_3  and  C_15
REMARK    3  A    between atoms: O_14  and  C_35
REMARK    4  A    between atoms: C_17  and  C_20
REMARK    5  A    between atoms: C_19  and  C_21
REMARK    6  A    between atoms: C_28  and  C_30
REMARK                            x       y       z     vdW  Elec       q    Type
REMARK                         _______ _______ _______ _____ _____    ______ ____
ROOT
ATOM      1  O   UNL     1     113.027 127.431 135.773  0.00  0.00    +0.000 OA
ATOM      2  O   UNL     1     111.966 126.723 138.331  0.00  0.00    +0.000 OA
ATOM      3  O   UNL     1     111.650 129.418 137.363  0.00  0.00    +0.000 OA
ATOM      4  O   UNL     1     112.890 128.770 135.253  0.00  0.00    +0.000 OA
ATOM      5  C   UNL     1     112.497 127.077 137.052  0.00  0.00    +0.000 A 
ATOM      6  C   UNL     1     112.624 127.640 136.462  0.00  0.00    +0.000 A 
ATOM      7  C   UNL     1     112.093 127.285 137.740  0.00  0.00    +0.000 A 
ATOM      8  C   UNL     1     112.347 128.410 136.560  0.00  0.00    +0.000 A 
ATOM      9  C   UNL     1     111.816 128.057 137.839  0.00  0.00    +0.000 A 
ATOM     10  C   UNL     1     111.943 128.618 137.249  0.00  0.00    +0.000 A 
ATOM     11  C   UNL     1     112.485 128.987 135.938  0.00  0.00    +0.000 A 
ATOM     12  C   UNL     1     111.779 130.008 136.752  0.00  0.00    +0.000 A 
ATOM     13  C   UNL     1     112.199 129.791 136.035  0.00  0.00    +0.000 A 
ENDROOT
BRANCH   5  19
ATOM     14  O   UNL     1     113.540 126.110 137.186  0.00  0.00    +0.000 OA
ATOM     15  O   UNL     1     112.071 124.385 136.191  0.00  0.00    +0.000 OA
ATOM     16  O   UNL     1     113.603 123.994 136.658  0.00  0.00    +0.000 OA
ATOM     17  C   UNL     1     112.284 125.731 136.622  0.00  0.00    +0.000 C 
ATOM     18  C   UNL     1     112.561 124.960 136.523  0.00  0.00    +0.000 C 
ATOM     19  C   UNL     1     112.774 126.306 136.953  0.00  0.00    +0.000 C 
ATOM     20  C   UNL     1     113.327 124.765 136.756  0.00  0.00    +0.000 C 
ATOM     21  C   UNL     1     113.817 125.339 137.088  0.00  0.00    +0.000 C 
BRANCH  21  23
ATOM     22  O   UNL     1     114.856 125.361 138.069  0.00  0.00    +0.000 OA
ATOM     23  C   UNL     1     114.583 125.143 137.321  0.00  0.00    +0.000 C 
ENDBRANCH  21  23
BRANCH  17  24
ATOM     24  O   UNL     1     111.517 125.927 136.388  0.00  0.00    +0.000 OA
BRANCH  24  25
ATOM     25  S   UNL     1     111.052 125.372 135.992  0.00  0.00    +0.000 S 
ATOM     26  O   UNL     1     110.587 124.818 135.596  0.00  0.00    +0.000 OA
ATOM     27  O   UNL     1     110.742 125.117 136.713  0.00  0.00    +0.000 OA
ATOM     28  O   UNL     1     111.362 125.627 135.271  0.00  0.00    +0.000 OA
ENDBRANCH  24  25
ENDBRANCH  17  24
ENDBRANCH   5  19
BRANCH  12  29
ATOM     29  C   UNL     1     111.500 130.779 136.854  0.00  0.00    +0.000 A 
ATOM     30  C   UNL     1     110.716 130.961 136.672  0.00  0.00    +0.000 A 
ATOM     31  C   UNL     1     112.005 131.366 137.138  0.00  0.00    +0.000 A 
ATOM     32  C   UNL     1     110.437 131.730 136.773  0.00  0.00    +0.000 A 
ATOM     33  C   UNL     1     111.726 132.136 137.240  0.00  0.00    +0.000 A 
ATOM     34  C   UNL     1     110.942 132.318 137.057  0.00  0.00    +0.000 A 
BRANCH  34  35
ATOM     35  O   UNL     1     110.663 133.088 137.159  0.00  0.00    +0.000 OA
ATOM     36  C   UNL     1     110.571 133.583 136.505  0.00  0.00    +0.000 C 
ENDBRANCH  34  35
ENDBRANCH  12  29
TORSDOF 6
ENDMDL
MODEL 7
REMARK VINA RESULT:      -9.0      7.361      8.619
REMARK  Name = 131833486
REMARK  6 active torsions:
REMARK  status: ('A' for Active; 'I' for Inactive)
REMARK    1  A    between atoms: S_1  and  O_3
REMARK    2  A    between atoms: O_3  and  C_15
REMARK    3  A    between atoms: O_14  and  C_35
REMARK    4  A    between atoms: C_17  and  C_20
REMARK    5  A    between atoms: C_19  and  C_21
REMARK    6  A    between atoms: C_28  and  C_30
REMARK                            x       y       z     vdW  Elec       q    Type
REMARK                         _______ _______ _______ _____ _____    ______ ____
ROOT
ATOM      1  O   UNL     1     110.990 129.867 135.118  0.00  0.00    +0.000 OA
ATOM      2  O   UNL     1     108.953 129.651 137.112  0.00  0.00    +0.000 OA
ATOM      3  O   UNL     1     110.491 127.321 136.400  0.00  0.00    +0.000 OA
ATOM      4  O   UNL     1     111.781 128.724 134.734  0.00  0.00    +0.000 OA
ATOM      5  C   UNL     1     109.972 129.760 136.115  0.00  0.00    +0.000 A 
ATOM      6  C   UNL     1     110.567 129.412 135.662  0.00  0.00    +0.000 A 
ATOM      7  C   UNL     1     109.549 129.305 136.659  0.00  0.00    +0.000 A 
ATOM      8  C   UNL     1     110.741 128.612 135.753  0.00  0.00    +0.000 A 
ATOM      9  C   UNL     1     109.723 128.503 136.750  0.00  0.00    +0.000 A 
ATOM     10  C   UNL     1     110.319 128.157 136.297  0.00  0.00    +0.000 A 
ATOM     11  C   UNL     1     111.364 128.262 135.275  0.00  0.00    +0.000 A 
ATOM     12  C   UNL     1     111.110 126.954 135.931  0.00  0.00    +0.000 A 
ATOM     13  C   UNL     1     111.550 127.428 135.365  0.00  0.00    +0.000 A 
ENDROOT
BRANCH   5  19
ATOM     14  O   UNL     1     109.252 130.803 135.455  0.00  0.00    +0.000 OA
ATOM     15  O   UNL     1     110.367 132.481 136.893  0.00  0.00    +0.000 OA
ATOM     16  O   UNL     1     109.277 132.965 135.754  0.00  0.00    +0.000 OA
ATOM     17  C   UNL     1     110.169 131.120 136.504  0.00  0.00    +0.000 C 
ATOM     18  C   UNL     1     109.995 131.922 136.414  0.00  0.00    +0.000 C 
ATOM     19  C   UNL     1     109.798 130.561 136.025  0.00  0.00    +0.000 C 
ATOM     20  C   UNL     1     109.450 132.163 135.844  0.00  0.00    +0.000 C 
ATOM     21  C   UNL     1     109.079 131.604 135.364  0.00  0.00    +0.000 C 
BRANCH  21  23
ATOM     22  O   UNL     1     107.887 131.368 134.612  0.00  0.00    +0.000 OA
ATOM     23  C   UNL     1     108.534 131.846 134.795  0.00  0.00    +0.000 C 
ENDBRANCH  21  23
BRANCH  17  24
ATOM     24  O   UNL     1     110.714 130.878 137.074  0.00  0.00    +0.000 OA
BRANCH  24  25
ATOM     25  S   UNL     1     111.104 131.439 137.536  0.00  0.00    +0.000 S 
ATOM     26  O   UNL     1     111.494 132.000 137.999  0.00  0.00    +0.000 OA
ATOM     27  O   UNL     1     110.507 131.387 138.103  0.00  0.00    +0.000 OA
ATOM     28  O   UNL     1     111.702 131.491 136.970  0.00  0.00    +0.000 OA
ENDBRANCH  24  25
ENDBRANCH  17  24
ENDBRANCH   5  19
BRANCH  12  29
ATOM     29  C   UNL     1     111.281 126.152 136.025  0.00  0.00    +0.000 A 
ATOM     30  C   UNL     1     110.848 125.588 135.607  0.00  0.00    +0.000 A 
ATOM     31  C   UNL     1     111.885 125.915 136.535  0.00  0.00    +0.000 A 
ATOM     32  C   UNL     1     111.019 124.786 135.700  0.00  0.00    +0.000 A 
ATOM     33  C   UNL     1     112.055 125.114 136.628  0.00  0.00    +0.000 A 
ATOM     34  C   UNL     1     111.622 124.549 136.210  0.00  0.00    +0.000 A 
BRANCH  34  35
ATOM     35  O   UNL     1     111.793 123.747 136.304  0.00  0.00    +0.000 OA
ATOM     36  C   UNL     1     111.974 123.448 137.051  0.00  0.00    +0.000 C 
ENDBRANCH  34  35
ENDBRANCH  12  29
TORSDOF 6
ENDMDL
MODEL 8
REMARK VINA RESULT:      -8.9      7.402      8.634
REMARK  Name = 131833486
REMARK  6 active torsions:
REMARK  status: ('A' for Active; 'I' for Inactive)
REMARK    1  A    between atoms: S_1  and  O_3
REMARK    2  A    between atoms: O_3  and  C_15
REMARK    3  A    between atoms: O_14  and  C_35
REMARK    4  A    between atoms: C_17  and  C_20
REMARK    5  A    between atoms: C_19  and  C_21
REMARK    6  A    between atoms: C_28  and  C_30
REMARK                            x       y       z     vdW  Elec       q    Type
REMARK                         _______ _______ _______ _____ _____    ______ ____
ROOT
ATOM      1  O   UNL     1     112.832 129.225 139.104  0.00  0.00    +0.000 OA
ATOM      2  O   UNL     1     114.221 127.858 141.194  0.00  0.00    +0.000 OA
ATOM      3  O   UNL     1     113.222 126.362 138.944  0.00  0.00    +0.000 OA
ATOM      4  O   UNL     1     112.317 128.512 137.960  0.00  0.00    +0.000 OA
ATOM      5  C   UNL     1     113.526 128.542 140.149  0.00  0.00    +0.000 A 
ATOM      6  C   UNL     1     113.128 128.526 139.427  0.00  0.00    +0.000 A 
ATOM      7  C   UNL     1     113.822 127.843 140.472  0.00  0.00    +0.000 A 
ATOM      8  C   UNL     1     113.026 127.812 139.027  0.00  0.00    +0.000 A 
ATOM      9  C   UNL     1     113.721 127.128 140.073  0.00  0.00    +0.000 A 
ATOM     10  C   UNL     1     113.322 127.113 139.350  0.00  0.00    +0.000 A 
ATOM     11  C   UNL     1     112.610 127.808 138.275  0.00  0.00    +0.000 A 
ATOM     12  C   UNL     1     112.809 126.339 138.191  0.00  0.00    +0.000 A 
ATOM     13  C   UNL     1     112.500 127.067 137.855  0.00  0.00    +0.000 A 
ENDROOT
BRANCH   5  19
ATOM     14  O   UNL     1     114.285 129.730 140.388  0.00  0.00    +0.000 OA
ATOM     15  O   UNL     1     112.621 130.455 142.070  0.00  0.00    +0.000 OA
ATOM     16  O   UNL     1     113.933 131.400 141.748  0.00  0.00    +0.000 OA
ATOM     17  C   UNL     1     113.073 129.498 141.109  0.00  0.00    +0.000 C 
ATOM     18  C   UNL     1     113.175 130.213 141.509  0.00  0.00    +0.000 C 
ATOM     19  C   UNL     1     113.628 129.256 140.548  0.00  0.00    +0.000 C 
ATOM     20  C   UNL     1     113.832 130.685 141.348  0.00  0.00    +0.000 C 
ATOM     21  C   UNL     1     114.387 130.444 140.787  0.00  0.00    +0.000 C 
BRANCH  21  23
ATOM     22  O   UNL     1     115.708 130.590 140.264  0.00  0.00    +0.000 OA
ATOM     23  C   UNL     1     115.043 130.916 140.626  0.00  0.00    +0.000 C 
ENDBRANCH  21  23
BRANCH  17  24
ATOM     24  O   UNL     1     112.417 129.026 141.271  0.00  0.00    +0.000 OA
BRANCH  24  25
ATOM     25  S   UNL     1     111.850 129.278 141.814  0.00  0.00    +0.000 S 
ATOM     26  O   UNL     1     111.283 129.531 142.358  0.00  0.00    +0.000 OA
ATOM     27  O   UNL     1     111.437 129.656 141.208  0.00  0.00    +0.000 OA
ATOM     28  O   UNL     1     112.263 128.900 142.421  0.00  0.00    +0.000 OA
ENDBRANCH  24  25
ENDBRANCH  17  24
ENDBRANCH   5  19
BRANCH  12  29
ATOM     29  C   UNL     1     112.709 125.623 137.794  0.00  0.00    +0.000 A 
ATOM     30  C   UNL     1     111.974 125.248 137.801  0.00  0.00    +0.000 A 
ATOM     31  C   UNL     1     113.343 125.281 137.392  0.00  0.00    +0.000 A 
ATOM     32  C   UNL     1     111.873 124.531 137.404  0.00  0.00    +0.000 A 
ATOM     33  C   UNL     1     113.242 124.565 136.995  0.00  0.00    +0.000 A 
ATOM     34  C   UNL     1     112.507 124.190 137.002  0.00  0.00    +0.000 A 
BRANCH  34  35
ATOM     35  O   UNL     1     112.407 123.473 136.605  0.00  0.00    +0.000 OA
ATOM     36  C   UNL     1     111.978 122.863 136.958  0.00  0.00    +0.000 C 
ENDBRANCH  34  35
ENDBRANCH  12  29
TORSDOF 6
ENDMDL
MODEL 9
REMARK VINA RESULT:      -8.8      6.868      8.597
REMARK  Name = 131833486
REMARK  6 active torsions:
REMARK  status: ('A' for Active; 'I' for Inactive)
REMARK    1  A    between atoms: S_1  and  O_3
REMARK    2  A    between atoms: O_3  and  C_15
REMARK    3  A    between atoms: O_14  and  C_35
REMARK    4  A    between atoms: C_17  and  C_20
REMARK    5  A    between atoms: C_19  and  C_21
REMARK    6  A    between atoms: C_28  and  C_30
REMARK                            x       y       z     vdW  Elec       q    Type
REMARK                         _______ _______ _______ _____ _____    ______ ____
ROOT
ATOM      1  O   UNL     1     111.107 130.281 136.912  0.00  0.00    +0.000 OA
ATOM      2  O   UNL     1     109.138 128.831 138.391  0.00  0.00    +0.000 OA
ATOM      3  O   UNL     1     111.708 127.627 137.897  0.00  0.00    +0.000 OA
ATOM      4  O   UNL     1     112.406 129.713 136.643  0.00  0.00    +0.000 OA
ATOM      5  C   UNL     1     110.122 129.557 137.651  0.00  0.00    +0.000 A 
ATOM      6  C   UNL     1     110.877 129.602 137.321  0.00  0.00    +0.000 A 
ATOM      7  C   UNL     1     109.892 128.878 138.061  0.00  0.00    +0.000 A 
ATOM      8  C   UNL     1     111.401 128.971 137.399  0.00  0.00    +0.000 A 
ATOM      9  C   UNL     1     110.417 128.245 138.139  0.00  0.00    +0.000 A 
ATOM     10  C   UNL     1     111.171 128.292 137.808  0.00  0.00    +0.000 A 
ATOM     11  C   UNL     1     112.184 129.031 137.050  0.00  0.00    +0.000 A 
ATOM     12  C   UNL     1     112.495 127.669 137.555  0.00  0.00    +0.000 A 
ATOM     13  C   UNL     1     112.735 128.376 137.128  0.00  0.00    +0.000 A 
ENDROOT
BRANCH   5  19
ATOM     14  O   UNL     1     109.106 130.238 136.912  0.00  0.00    +0.000 OA
ATOM     15  O   UNL     1     109.008 131.987 138.660  0.00  0.00    +0.000 OA
ATOM     16  O   UNL     1     108.026 132.085 137.339  0.00  0.00    +0.000 OA
ATOM     17  C   UNL     1     109.566 130.771 138.156  0.00  0.00    +0.000 C 
ATOM     18  C   UNL     1     109.041 131.404 138.077  0.00  0.00    +0.000 C 
ATOM     19  C   UNL     1     109.598 130.188 137.573  0.00  0.00    +0.000 C 
ATOM     20  C   UNL     1     108.550 131.452 137.417  0.00  0.00    +0.000 C 
ATOM     21  C   UNL     1     108.583 130.869 136.834  0.00  0.00    +0.000 C 
BRANCH  21  23
ATOM     22  O   UNL     1     107.687 130.249 135.909  0.00  0.00    +0.000 OA
ATOM     23  C   UNL     1     108.091 130.918 136.174  0.00  0.00    +0.000 C 
ENDBRANCH  21  23
BRANCH  17  24
ATOM     24  O   UNL     1     110.057 130.723 138.816  0.00  0.00    +0.000 OA
BRANCH  24  25
ATOM     25  S   UNL     1     110.065 131.334 139.371  0.00  0.00    +0.000 S 
ATOM     26  O   UNL     1     110.073 131.945 139.925  0.00  0.00    +0.000 OA
ATOM     27  O   UNL     1     109.473 130.952 139.801  0.00  0.00    +0.000 OA
ATOM     28  O   UNL     1     110.656 131.716 138.941  0.00  0.00    +0.000 OA
ENDBRANCH  24  25
ENDBRANCH  17  24
ENDBRANCH   5  19
BRANCH  12  29
ATOM     29  C   UNL     1     113.017 127.035 137.635  0.00  0.00    +0.000 A 
ATOM     30  C   UNL     1     113.278 126.629 136.966  0.00  0.00    +0.000 A 
ATOM     31  C   UNL     1     113.278 126.807 138.384  0.00  0.00    +0.000 A 
ATOM     32  C   UNL     1     113.799 125.995 137.045  0.00  0.00    +0.000 A 
ATOM     33  C   UNL     1     113.799 126.173 138.463  0.00  0.00    +0.000 A 
ATOM     34  C   UNL     1     114.060 125.767 137.794  0.00  0.00    +0.000 A 
BRANCH  34  35
ATOM     35  O   UNL     1     114.582 125.132 137.875  0.00  0.00    +0.000 OA
ATOM     36  C   UNL     1     114.604 124.542 137.299  0.00  0.00    +0.000 C 
ENDBRANCH  34  35
ENDBRANCH  12  29
TORSDOF 6
ENDMDL
MODEL 10
REMARK VINA RESULT:      -8.8      4.245      6.849
REMARK  Name = 131833486
REMARK  6 active torsions:
REMARK  status: ('A' for Active; 'I' for Inactive)
REMARK    1  A    between atoms: S_1  and  O_3
REMARK    2  A    between atoms: O_3  and  C_15
REMARK    3  A    between atoms: O_14  and  C_35
REMARK    4  A    between atoms: C_17  and  C_20
REMARK    5  A    between atoms: C_19  and  C_21
REMARK    6  A    between atoms: C_28  and  C_30
REMARK                            x       y       z     vdW  Elec       q    Type
REMARK                         _______ _______ _______ _____ _____    ______ ____
ROOT
ATOM      1  O   UNL     1     105.254 126.406 143.870  0.00  0.00    +0.000 OA
ATOM      2  O   UNL     1     106.801 128.762 144.340  0.00  0.00    +0.000 OA
ATOM      3  O   UNL     1     106.821 126.642 146.291  0.00  0.00    +0.000 OA
ATOM      4  O   UNL     1     105.237 125.322 144.822  0.00  0.00    +0.000 OA
ATOM      5  C   UNL     1     106.027 127.584 144.105  0.00  0.00    +0.000 A 
ATOM      6  C   UNL     1     105.770 126.839 144.347  0.00  0.00    +0.000 A 
ATOM      7  C   UNL     1     106.543 128.017 144.581  0.00  0.00    +0.000 A 
ATOM      8  C   UNL     1     106.028 126.525 145.064  0.00  0.00    +0.000 A 
ATOM      9  C   UNL     1     106.802 127.704 145.300  0.00  0.00    +0.000 A 
ATOM     10  C   UNL     1     106.544 126.958 145.541  0.00  0.00    +0.000 A 
ATOM     11  C   UNL     1     105.753 125.747 145.305  0.00  0.00    +0.000 A 
ATOM     12  C   UNL     1     106.556 125.867 146.548  0.00  0.00    +0.000 A 
ATOM     13  C   UNL     1     106.019 125.416 146.052  0.00  0.00    +0.000 A 
ENDROOT
BRANCH   5  19
ATOM     14  O   UNL     1     105.063 128.323 143.352  0.00  0.00    +0.000 OA
ATOM     15  O   UNL     1     106.406 127.986 141.301  0.00  0.00    +0.000 OA
ATOM     16  O   UNL     1     104.995 128.837 141.232  0.00  0.00    +0.000 OA
ATOM     17  C   UNL     1     106.217 127.785 142.703  0.00  0.00    +0.000 C 
ATOM     18  C   UNL     1     105.958 128.098 141.984  0.00  0.00    +0.000 C 
ATOM     19  C   UNL     1     105.769 127.897 143.387  0.00  0.00    +0.000 C 
ATOM     20  C   UNL     1     105.252 128.524 141.951  0.00  0.00    +0.000 C 
ATOM     21  C   UNL     1     104.805 128.636 142.634  0.00  0.00    +0.000 C 
BRANCH  21  23
ATOM     22  O   UNL     1     103.893 129.571 143.215  0.00  0.00    +0.000 OA
ATOM     23  C   UNL     1     104.099 129.061 142.600  0.00  0.00    +0.000 C 
ENDBRANCH  21  23
BRANCH  17  24
ATOM     24  O   UNL     1     106.922 127.360 142.737  0.00  0.00    +0.000 OA
BRANCH  24  25
ATOM     25  S   UNL     1     107.354 127.220 142.048  0.00  0.00    +0.000 S 
ATOM     26  O   UNL     1     107.785 127.080 141.359  0.00  0.00    +0.000 OA
ATOM     27  O   UNL     1     106.928 126.524 141.922  0.00  0.00    +0.000 OA
ATOM     28  O   UNL     1     107.779 127.916 142.173  0.00  0.00    +0.000 OA
ENDBRANCH  24  25
ENDBRANCH  17  24
ENDBRANCH   5  19
BRANCH  12  29
ATOM     29  C   UNL     1     106.817 125.556 147.267  0.00  0.00    +0.000 A 
ATOM     30  C   UNL     1     107.567 125.217 147.321  0.00  0.00    +0.000 A 
ATOM     31  C   UNL     1     106.328 125.586 147.931  0.00  0.00    +0.000 A 
ATOM     32  C   UNL     1     107.828 124.907 148.040  0.00  0.00    +0.000 A 
ATOM     33  C   UNL     1     106.589 125.276 148.650  0.00  0.00    +0.000 A 
ATOM     34  C   UNL     1     107.339 124.936 148.704  0.00  0.00    +0.000 A 
BRANCH  34  35
ATOM     35  O   UNL     1     107.600 124.626 149.423  0.00  0.00    +0.000 OA
ATOM     36  C   UNL     1     107.445 123.838 149.612  0.00  0.00    +0.000 C 
ENDBRANCH  34  35
ENDBRANCH  12  29
TORSDOF 6
ENDMDL
