MODEL 1
REMARK VINA RESULT:      -7.6      0.000      0.000
REMARK  Name = 42607620
REMARK  10 active torsions:
REMARK  status: ('A' for Active; 'I' for Inactive)
REMARK    1  A    between atoms: O_2  and  C_16
REMARK    2  A    between atoms: O_2  and  C_18
REMARK    3  A    between atoms: O_7  and  C_21
REMARK    4  A    between atoms: O_8  and  C_22
REMARK    5  A    between atoms: O_10  and  C_30
REMARK    6  A    between atoms: O_11  and  C_34
REMARK    7  A    between atoms: C_14  and  C_17
REMARK    8  A    between atoms: C_19  and  C_24
REMARK    9  A    between atoms: C_24  and  C_25
REMARK   10  A    between atoms: C_26  and  C_29
REMARK                            x       y       z     vdW  Elec       q    Type
REMARK                         _______ _______ _______ _____ _____    ______ ____
ROOT
ATOM      1  C   UNL     1     111.659 129.396 136.906  0.00  0.00    +0.000 A 
ATOM      2  C   UNL     1     112.159 129.082 136.329  0.00  0.00    +0.000 A 
ATOM      3  C   UNL     1     111.946 129.959 137.437  0.00  0.00    +0.000 A 
ATOM      4  C   UNL     1     112.944 129.332 136.283  0.00  0.00    +0.000 A 
ATOM      5  C   UNL     1     112.731 130.208 137.391  0.00  0.00    +0.000 A 
ATOM      6  C   UNL     1     113.229 129.895 136.814  0.00  0.00    +0.000 A 
ENDROOT
BRANCH   4   7
ATOM      7  O   UNL     1     113.443 129.018 135.706  0.00  0.00    +0.000 OA
ATOM      8  C   UNL     1     114.194 129.341 135.591  0.00  0.00    +0.000 C 
ENDBRANCH   4   7
BRANCH   5   9
ATOM      9  O   UNL     1     113.016 130.771 137.921  0.00  0.00    +0.000 OA
ATOM     10  C   UNL     1     113.333 130.533 138.645  0.00  0.00    +0.000 C 
ENDBRANCH   5   9
BRANCH   2  12
ATOM     11  O   UNL     1     111.571 128.755 135.068  0.00  0.00    +0.000 OA
ATOM     12  C   UNL     1     111.873 128.519 135.798  0.00  0.00    +0.000 C 
BRANCH  12  13
ATOM     13  C   UNL     1     111.890 127.718 135.999  0.00  0.00    +0.000 C 
ATOM     14  C   UNL     1     111.507 127.166 135.520  0.00  0.00    +0.000 C 
BRANCH  14  15
ATOM     15  C   UNL     1     111.524 126.365 135.721  0.00  0.00    +0.000 A 
ATOM     16  C   UNL     1     110.901 125.872 135.498  0.00  0.00    +0.000 A 
ATOM     17  C   UNL     1     112.163 126.059 136.143  0.00  0.00    +0.000 A 
ATOM     18  C   UNL     1     110.918 125.071 135.698  0.00  0.00    +0.000 A 
ATOM     19  C   UNL     1     112.179 125.259 136.343  0.00  0.00    +0.000 A 
ATOM     20  C   UNL     1     111.557 124.764 136.121  0.00  0.00    +0.000 A 
BRANCH  16  21
ATOM     21  O   UNL     1     110.262 126.178 135.075  0.00  0.00    +0.000 OA
ATOM     22  C   UNL     1     109.688 125.670 134.771  0.00  0.00    +0.000 C 
ENDBRANCH  16  21
BRANCH  20  23
ATOM     23  O   UNL     1     111.574 123.965 136.320  0.00  0.00    +0.000 OA
ATOM     24  C   UNL     1     111.920 123.723 137.029  0.00  0.00    +0.000 C 
ENDBRANCH  20  23
ENDBRANCH  14  15
ENDBRANCH  12  13
ENDBRANCH   2  12
BRANCH   1  25
ATOM     25  O   UNL     1     110.874 129.146 136.952  0.00  0.00    +0.000 OA
BRANCH  25  34
ATOM     26  O   UNL     1     110.173 130.371 136.738  0.00  0.00    +0.000 OA
ATOM     27  O   UNL     1     108.738 129.892 138.698  0.00  0.00    +0.000 OA
ATOM     28  O   UNL     1     108.514 131.278 137.830  0.00  0.00    +0.000 OA
ATOM     29  O   UNL     1     109.918 128.826 138.258  0.00  0.00    +0.000 OA
ATOM     30  C   UNL     1     109.105 130.745 137.610  0.00  0.00    +0.000 C 
ATOM     31  C   UNL     1     109.217 130.052 138.044  0.00  0.00    +0.000 C 
ATOM     32  C   UNL     1     109.583 130.905 136.957  0.00  0.00    +0.000 C 
ATOM     33  C   UNL     1     109.807 129.519 137.825  0.00  0.00    +0.000 C 
ATOM     34  C   UNL     1     110.285 129.679 137.172  0.00  0.00    +0.000 C 
BRANCH  32  36
ATOM     35  O   UNL     1     109.499 131.578 135.700  0.00  0.00    +0.000 OA
ATOM     36  C   UNL     1     109.471 131.597 136.524  0.00  0.00    +0.000 C 
ENDBRANCH  32  36
ENDBRANCH  25  34
ENDBRANCH   1  25
TORSDOF 10
ENDMDL
MODEL 2
REMARK VINA RESULT:      -7.5      2.122      4.835
REMARK  Name = 42607620
REMARK  10 active torsions:
REMARK  status: ('A' for Active; 'I' for Inactive)
REMARK    1  A    between atoms: O_2  and  C_16
REMARK    2  A    between atoms: O_2  and  C_18
REMARK    3  A    between atoms: O_7  and  C_21
REMARK    4  A    between atoms: O_8  and  C_22
REMARK    5  A    between atoms: O_10  and  C_30
REMARK    6  A    between atoms: O_11  and  C_34
REMARK    7  A    between atoms: C_14  and  C_17
REMARK    8  A    between atoms: C_19  and  C_24
REMARK    9  A    between atoms: C_24  and  C_25
REMARK   10  A    between atoms: C_26  and  C_29
REMARK                            x       y       z     vdW  Elec       q    Type
REMARK                         _______ _______ _______ _____ _____    ______ ____
ROOT
ATOM      1  C   UNL     1     111.665 126.417 137.267  0.00  0.00    +0.000 A 
ATOM      2  C   UNL     1     111.484 126.742 136.530  0.00  0.00    +0.000 A 
ATOM      3  C   UNL     1     111.627 125.600 137.377  0.00  0.00    +0.000 A 
ATOM      4  C   UNL     1     111.265 126.251 135.905  0.00  0.00    +0.000 A 
ATOM      5  C   UNL     1     111.408 125.109 136.751  0.00  0.00    +0.000 A 
ATOM      6  C   UNL     1     111.227 125.434 136.016  0.00  0.00    +0.000 A 
ENDROOT
BRANCH   4   7
ATOM      7  O   UNL     1     111.083 126.577 135.169  0.00  0.00    +0.000 OA
ATOM      8  C   UNL     1     110.667 126.132 134.613  0.00  0.00    +0.000 C 
ENDBRANCH   4   7
BRANCH   5   9
ATOM      9  O   UNL     1     111.371 124.293 136.862  0.00  0.00    +0.000 OA
ATOM     10  C   UNL     1     112.052 123.834 136.782  0.00  0.00    +0.000 C 
ENDBRANCH   5   9
BRANCH   2  12
ATOM     11  O   UNL     1     110.844 128.020 136.513  0.00  0.00    +0.000 OA
ATOM     12  C   UNL     1     111.521 127.559 136.421  0.00  0.00    +0.000 C 
BRANCH  12  13
ATOM     13  C   UNL     1     112.239 127.915 136.218  0.00  0.00    +0.000 C 
ATOM     14  C   UNL     1     112.304 128.737 136.215  0.00  0.00    +0.000 C 
BRANCH  14  15
ATOM     15  C   UNL     1     113.021 129.093 136.012  0.00  0.00    +0.000 A 
ATOM     16  C   UNL     1     113.223 129.824 136.336  0.00  0.00    +0.000 A 
ATOM     17  C   UNL     1     113.534 128.717 135.486  0.00  0.00    +0.000 A 
ATOM     18  C   UNL     1     113.940 130.180 136.133  0.00  0.00    +0.000 A 
ATOM     19  C   UNL     1     114.249 129.073 135.284  0.00  0.00    +0.000 A 
ATOM     20  C   UNL     1     114.453 129.804 135.608  0.00  0.00    +0.000 A 
BRANCH  16  21
ATOM     21  O   UNL     1     112.710 130.199 136.862  0.00  0.00    +0.000 OA
ATOM     22  C   UNL     1     112.910 130.936 137.177  0.00  0.00    +0.000 C 
ENDBRANCH  16  21
BRANCH  20  23
ATOM     23  O   UNL     1     115.169 130.160 135.406  0.00  0.00    +0.000 OA
ATOM     24  C   UNL     1     115.386 130.231 134.613  0.00  0.00    +0.000 C 
ENDBRANCH  20  23
ENDBRANCH  14  15
ENDBRANCH  12  13
ENDBRANCH   2  12
BRANCH   1  25
ATOM     25  O   UNL     1     111.884 126.908 137.893  0.00  0.00    +0.000 OA
BRANCH  25  34
ATOM     26  O   UNL     1     110.816 126.675 138.811  0.00  0.00    +0.000 OA
ATOM     27  O   UNL     1     112.453 126.385 140.644  0.00  0.00    +0.000 OA
ATOM     28  O   UNL     1     110.838 126.249 140.952  0.00  0.00    +0.000 OA
ATOM     29  O   UNL     1     112.976 126.715 139.115  0.00  0.00    +0.000 OA
ATOM     30  C   UNL     1     111.099 126.413 140.187  0.00  0.00    +0.000 C 
ATOM     31  C   UNL     1     111.907 126.482 140.033  0.00  0.00    +0.000 C 
ATOM     32  C   UNL     1     110.553 126.510 139.576  0.00  0.00    +0.000 C 
ATOM     33  C   UNL     1     112.168 126.647 139.268  0.00  0.00    +0.000 C 
ATOM     34  C   UNL     1     111.622 126.743 138.657  0.00  0.00    +0.000 C 
BRANCH  32  36
ATOM     35  O   UNL     1     109.212 126.961 139.374  0.00  0.00    +0.000 OA
ATOM     36  C   UNL     1     109.746 126.442 139.730  0.00  0.00    +0.000 C 
ENDBRANCH  32  36
ENDBRANCH  25  34
ENDBRANCH   1  25
TORSDOF 10
ENDMDL
MODEL 3
REMARK VINA RESULT:      -7.4      1.824      5.628
REMARK  Name = 42607620
REMARK  10 active torsions:
REMARK  status: ('A' for Active; 'I' for Inactive)
REMARK    1  A    between atoms: O_2  and  C_16
REMARK    2  A    between atoms: O_2  and  C_18
REMARK    3  A    between atoms: O_7  and  C_21
REMARK    4  A    between atoms: O_8  and  C_22
REMARK    5  A    between atoms: O_10  and  C_30
REMARK    6  A    between atoms: O_11  and  C_34
REMARK    7  A    between atoms: C_14  and  C_17
REMARK    8  A    between atoms: C_19  and  C_24
REMARK    9  A    between atoms: C_24  and  C_25
REMARK   10  A    between atoms: C_26  and  C_29
REMARK                            x       y       z     vdW  Elec       q    Type
REMARK                         _______ _______ _______ _____ _____    ______ ____
ROOT
ATOM      1  C   UNL     1     111.818 126.867 136.021  0.00  0.00    +0.000 A 
ATOM      2  C   UNL     1     111.550 127.645 136.088  0.00  0.00    +0.000 A 
ATOM      3  C   UNL     1     111.422 126.336 135.530  0.00  0.00    +0.000 A 
ATOM      4  C   UNL     1     110.886 127.891 135.664  0.00  0.00    +0.000 A 
ATOM      5  C   UNL     1     110.758 126.581 135.106  0.00  0.00    +0.000 A 
ATOM      6  C   UNL     1     110.491 127.358 135.173  0.00  0.00    +0.000 A 
ENDROOT
BRANCH   4   7
ATOM      7  O   UNL     1     110.619 128.668 135.730  0.00  0.00    +0.000 OA
ATOM      8  C   UNL     1     109.933 128.903 135.337  0.00  0.00    +0.000 C 
ENDBRANCH   4   7
BRANCH   5   9
ATOM      9  O   UNL     1     110.363 126.050 134.616  0.00  0.00    +0.000 OA
ATOM     10  C   UNL     1     109.611 125.778 134.823  0.00  0.00    +0.000 C 
ENDBRANCH   5   9
BRANCH   2  12
ATOM     11  O   UNL     1     111.708 128.271 137.363  0.00  0.00    +0.000 OA
ATOM     12  C   UNL     1     111.946 128.176 136.579  0.00  0.00    +0.000 C 
BRANCH  12  13
ATOM     13  C   UNL     1     112.582 128.614 136.284  0.00  0.00    +0.000 C 
ATOM     14  C   UNL     1     113.006 129.113 136.786  0.00  0.00    +0.000 C 
BRANCH  14  15
ATOM     15  C   UNL     1     113.641 129.550 136.492  0.00  0.00    +0.000 A 
ATOM     16  C   UNL     1     114.057 130.059 136.991  0.00  0.00    +0.000 A 
ATOM     17  C   UNL     1     113.860 129.479 135.700  0.00  0.00    +0.000 A 
ATOM     18  C   UNL     1     114.693 130.496 136.697  0.00  0.00    +0.000 A 
ATOM     19  C   UNL     1     114.494 129.916 135.406  0.00  0.00    +0.000 A 
ATOM     20  C   UNL     1     114.911 130.425 135.905  0.00  0.00    +0.000 A 
BRANCH  16  21
ATOM     21  O   UNL     1     113.839 130.130 137.783  0.00  0.00    +0.000 OA
ATOM     22  C   UNL     1     114.249 130.646 138.279  0.00  0.00    +0.000 C 
ENDBRANCH  16  21
BRANCH  20  23
ATOM     23  O   UNL     1     115.546 130.862 135.611  0.00  0.00    +0.000 OA
ATOM     24  C   UNL     1     115.511 131.182 134.852  0.00  0.00    +0.000 C 
ENDBRANCH  20  23
ENDBRANCH  14  15
ENDBRANCH  12  13
ENDBRANCH   2  12
BRANCH   1  25
ATOM     25  O   UNL     1     112.482 126.621 136.445  0.00  0.00    +0.000 OA
BRANCH  25  34
ATOM     26  O   UNL     1     111.980 125.456 137.100  0.00  0.00    +0.000 OA
ATOM     27  O   UNL     1     113.992 124.196 136.399  0.00  0.00    +0.000 OA
ATOM     28  O   UNL     1     112.820 123.450 137.288  0.00  0.00    +0.000 OA
ATOM     29  O   UNL     1     113.823 125.782 135.978  0.00  0.00    +0.000 OA
ATOM     30  C   UNL     1     112.735 124.242 137.077  0.00  0.00    +0.000 C 
ATOM     31  C   UNL     1     113.322 124.616 136.633  0.00  0.00    +0.000 C 
ATOM     32  C   UNL     1     112.064 124.662 137.311  0.00  0.00    +0.000 C 
ATOM     33  C   UNL     1     113.237 125.409 136.422  0.00  0.00    +0.000 C 
ATOM     34  C   UNL     1     112.566 125.829 136.656  0.00  0.00    +0.000 C 
BRANCH  32  36
ATOM     35  O   UNL     1     111.123 124.685 138.386  0.00  0.00    +0.000 OA
ATOM     36  C   UNL     1     111.479 124.289 137.755  0.00  0.00    +0.000 C 
ENDBRANCH  32  36
ENDBRANCH  25  34
ENDBRANCH   1  25
TORSDOF 10
ENDMDL
MODEL 4
REMARK VINA RESULT:      -7.4      2.332      4.866
REMARK  Name = 42607620
REMARK  10 active torsions:
REMARK  status: ('A' for Active; 'I' for Inactive)
REMARK    1  A    between atoms: O_2  and  C_16
REMARK    2  A    between atoms: O_2  and  C_18
REMARK    3  A    between atoms: O_7  and  C_21
REMARK    4  A    between atoms: O_8  and  C_22
REMARK    5  A    between atoms: O_10  and  C_30
REMARK    6  A    between atoms: O_11  and  C_34
REMARK    7  A    between atoms: C_14  and  C_17
REMARK    8  A    between atoms: C_19  and  C_24
REMARK    9  A    between atoms: C_24  and  C_25
REMARK   10  A    between atoms: C_26  and  C_29
REMARK                            x       y       z     vdW  Elec       q    Type
REMARK                         _______ _______ _______ _____ _____    ______ ____
ROOT
ATOM      1  C   UNL     1     112.112 126.184 136.820  0.00  0.00    +0.000 A 
ATOM      2  C   UNL     1     112.924 126.258 136.954  0.00  0.00    +0.000 A 
ATOM      3  C   UNL     1     111.804 125.469 136.548  0.00  0.00    +0.000 A 
ATOM      4  C   UNL     1     113.425 125.617 136.817  0.00  0.00    +0.000 A 
ATOM      5  C   UNL     1     112.305 124.828 136.411  0.00  0.00    +0.000 A 
ATOM      6  C   UNL     1     113.115 124.902 136.546  0.00  0.00    +0.000 A 
ENDROOT
BRANCH   4   7
ATOM      7  O   UNL     1     114.235 125.691 136.952  0.00  0.00    +0.000 OA
ATOM      8  C   UNL     1     114.714 125.020 136.962  0.00  0.00    +0.000 C 
ENDBRANCH   4   7
BRANCH   5   9
ATOM      9  O   UNL     1     111.995 124.114 136.139  0.00  0.00    +0.000 OA
ATOM     10  C   UNL     1     111.951 123.464 136.646  0.00  0.00    +0.000 C 
ENDBRANCH   5   9
BRANCH   2  12
ATOM     11  O   UNL     1     113.295 127.114 138.037  0.00  0.00    +0.000 OA
ATOM     12  C   UNL     1     113.233 126.973 137.226  0.00  0.00    +0.000 C 
BRANCH  12  13
ATOM     13  C   UNL     1     113.480 127.547 136.686  0.00  0.00    +0.000 C 
ATOM     14  C   UNL     1     113.624 128.317 136.942  0.00  0.00    +0.000 C 
BRANCH  14  15
ATOM     15  C   UNL     1     113.871 128.891 136.402  0.00  0.00    +0.000 A 
ATOM     16  C   UNL     1     113.784 129.691 136.584  0.00  0.00    +0.000 A 
ATOM     17  C   UNL     1     114.204 128.665 135.682  0.00  0.00    +0.000 A 
ATOM     18  C   UNL     1     114.031 130.265 136.044  0.00  0.00    +0.000 A 
ATOM     19  C   UNL     1     114.450 129.238 135.144  0.00  0.00    +0.000 A 
ATOM     20  C   UNL     1     114.364 130.039 135.324  0.00  0.00    +0.000 A 
BRANCH  16  21
ATOM     21  O   UNL     1     113.451 129.918 137.304  0.00  0.00    +0.000 OA
ATOM     22  C   UNL     1     113.343 130.718 137.474  0.00  0.00    +0.000 C 
ENDBRANCH  16  21
BRANCH  20  23
ATOM     23  O   UNL     1     114.611 130.612 134.785  0.00  0.00    +0.000 OA
ATOM     24  C   UNL     1     115.413 130.699 134.612  0.00  0.00    +0.000 C 
ENDBRANCH  20  23
ENDBRANCH  14  15
ENDBRANCH  12  13
ENDBRANCH   2  12
BRANCH   1  25
ATOM     25  O   UNL     1     111.611 126.825 136.957  0.00  0.00    +0.000 OA
BRANCH  25  34
ATOM     26  O   UNL     1     110.810 126.369 138.047  0.00  0.00    +0.000 OA
ATOM     27  O   UNL     1     108.764 127.007 136.809  0.00  0.00    +0.000 OA
ATOM     28  O   UNL     1     108.644 126.337 138.313  0.00  0.00    +0.000 OA
ATOM     29  O   UNL     1     110.247 127.250 136.132  0.00  0.00    +0.000 OA
ATOM     30  C   UNL     1     109.386 126.459 137.974  0.00  0.00    +0.000 C 
ATOM     31  C   UNL     1     109.446 126.794 137.222  0.00  0.00    +0.000 C 
ATOM     32  C   UNL     1     110.068 126.246 138.387  0.00  0.00    +0.000 C 
ATOM     33  C   UNL     1     110.188 126.916 136.883  0.00  0.00    +0.000 C 
ATOM     34  C   UNL     1     110.870 126.703 137.296  0.00  0.00    +0.000 C 
BRANCH  32  36
ATOM     35  O   UNL     1     110.564 125.357 139.389  0.00  0.00    +0.000 OA
ATOM     36  C   UNL     1     110.008 125.912 139.138  0.00  0.00    +0.000 C 
ENDBRANCH  32  36
ENDBRANCH  25  34
ENDBRANCH   1  25
TORSDOF 10
ENDMDL
MODEL 5
REMARK VINA RESULT:      -7.4      2.494      4.693
REMARK  Name = 42607620
REMARK  10 active torsions:
REMARK  status: ('A' for Active; 'I' for Inactive)
REMARK    1  A    between atoms: O_2  and  C_16
REMARK    2  A    between atoms: O_2  and  C_18
REMARK    3  A    between atoms: O_7  and  C_21
REMARK    4  A    between atoms: O_8  and  C_22
REMARK    5  A    between atoms: O_10  and  C_30
REMARK    6  A    between atoms: O_11  and  C_34
REMARK    7  A    between atoms: C_14  and  C_17
REMARK    8  A    between atoms: C_19  and  C_24
REMARK    9  A    between atoms: C_24  and  C_25
REMARK   10  A    between atoms: C_26  and  C_29
REMARK                            x       y       z     vdW  Elec       q    Type
REMARK                         _______ _______ _______ _____ _____    ______ ____
ROOT
ATOM      1  C   UNL     1     112.179 126.502 136.479  0.00  0.00    +0.000 A 
ATOM      2  C   UNL     1     112.304 125.868 136.993  0.00  0.00    +0.000 A 
ATOM      3  C   UNL     1     111.681 126.412 135.828  0.00  0.00    +0.000 A 
ATOM      4  C   UNL     1     111.932 125.145 136.855  0.00  0.00    +0.000 A 
ATOM      5  C   UNL     1     111.309 125.689 135.689  0.00  0.00    +0.000 A 
ATOM      6  C   UNL     1     111.434 125.056 136.203  0.00  0.00    +0.000 A 
ENDROOT
BRANCH   4   7
ATOM      7  O   UNL     1     112.057 124.512 137.368  0.00  0.00    +0.000 OA
ATOM      8  C   UNL     1     111.833 123.750 137.145  0.00  0.00    +0.000 C 
ENDBRANCH   4   7
BRANCH   5   9
ATOM      9  O   UNL     1     110.812 125.599 135.038  0.00  0.00    +0.000 OA
ATOM     10  C   UNL     1     109.994 125.651 135.133  0.00  0.00    +0.000 C 
ENDBRANCH   5   9
BRANCH   2  12
ATOM     11  O   UNL     1     113.610 125.809 137.571  0.00  0.00    +0.000 OA
ATOM     12  C   UNL     1     112.802 125.958 137.645  0.00  0.00    +0.000 C 
BRANCH  12  13
ATOM     13  C   UNL     1     112.491 126.197 138.371  0.00  0.00    +0.000 C 
ATOM     14  C   UNL     1     112.995 126.344 139.007  0.00  0.00    +0.000 C 
BRANCH  14  15
ATOM     15  C   UNL     1     112.684 126.583 139.733  0.00  0.00    +0.000 A 
ATOM     16  C   UNL     1     113.187 126.854 140.328  0.00  0.00    +0.000 A 
ATOM     17  C   UNL     1     111.870 126.550 139.864  0.00  0.00    +0.000 A 
ATOM     18  C   UNL     1     112.876 127.093 141.054  0.00  0.00    +0.000 A 
ATOM     19  C   UNL     1     111.560 126.789 140.590  0.00  0.00    +0.000 A 
ATOM     20  C   UNL     1     112.062 127.061 141.185  0.00  0.00    +0.000 A 
BRANCH  16  21
ATOM     21  O   UNL     1     114.001 126.886 140.197  0.00  0.00    +0.000 OA
ATOM     22  C   UNL     1     114.503 127.165 140.790  0.00  0.00    +0.000 C 
ENDBRANCH  16  21
BRANCH  20  23
ATOM     23  O   UNL     1     111.752 127.299 141.911  0.00  0.00    +0.000 OA
ATOM     24  C   UNL     1     111.108 127.816 141.935  0.00  0.00    +0.000 C 
ENDBRANCH  20  23
ENDBRANCH  14  15
ENDBRANCH  12  13
ENDBRANCH   2  12
BRANCH   1  25
ATOM     25  O   UNL     1     112.552 127.225 136.618  0.00  0.00    +0.000 OA
BRANCH  25  34
ATOM     26  O   UNL     1     111.459 128.143 136.675  0.00  0.00    +0.000 OA
ATOM     27  O   UNL     1     112.595 129.597 135.026  0.00  0.00    +0.000 OA
ATOM     28  O   UNL     1     111.123 130.031 135.633  0.00  0.00    +0.000 OA
ATOM     29  O   UNL     1     113.309 128.195 135.518  0.00  0.00    +0.000 OA
ATOM     30  C   UNL     1     111.480 129.329 135.880  0.00  0.00    +0.000 C 
ATOM     31  C   UNL     1     112.216 129.113 135.576  0.00  0.00    +0.000 C 
ATOM     32  C   UNL     1     111.101 128.844 136.429  0.00  0.00    +0.000 C 
ATOM     33  C   UNL     1     112.573 128.411 135.822  0.00  0.00    +0.000 C 
ATOM     34  C   UNL     1     112.195 127.926 136.372  0.00  0.00    +0.000 C 
BRANCH  32  36
ATOM     35  O   UNL     1     110.181 128.901 137.521  0.00  0.00    +0.000 OA
ATOM     36  C   UNL     1     110.366 129.061 136.733  0.00  0.00    +0.000 C 
ENDBRANCH  32  36
ENDBRANCH  25  34
ENDBRANCH   1  25
TORSDOF 10
ENDMDL
MODEL 6
REMARK VINA RESULT:      -7.4      1.418      3.199
REMARK  Name = 42607620
REMARK  10 active torsions:
REMARK  status: ('A' for Active; 'I' for Inactive)
REMARK    1  A    between atoms: O_2  and  C_16
REMARK    2  A    between atoms: O_2  and  C_18
REMARK    3  A    between atoms: O_7  and  C_21
REMARK    4  A    between atoms: O_8  and  C_22
REMARK    5  A    between atoms: O_10  and  C_30
REMARK    6  A    between atoms: O_11  and  C_34
REMARK    7  A    between atoms: C_14  and  C_17
REMARK    8  A    between atoms: C_19  and  C_24
REMARK    9  A    between atoms: C_24  and  C_25
REMARK   10  A    between atoms: C_26  and  C_29
REMARK                            x       y       z     vdW  Elec       q    Type
REMARK                         _______ _______ _______ _____ _____    ______ ____
ROOT
ATOM      1  C   UNL     1     112.038 128.582 137.084  0.00  0.00    +0.000 A 
ATOM      2  C   UNL     1     111.960 128.177 136.369  0.00  0.00    +0.000 A 
ATOM      3  C   UNL     1     111.482 129.152 137.298  0.00  0.00    +0.000 A 
ATOM      4  C   UNL     1     111.326 128.342 135.869  0.00  0.00    +0.000 A 
ATOM      5  C   UNL     1     110.847 129.317 136.797  0.00  0.00    +0.000 A 
ATOM      6  C   UNL     1     110.769 128.912 136.083  0.00  0.00    +0.000 A 
ENDROOT
BRANCH   4   7
ATOM      7  O   UNL     1     111.248 127.937 135.155  0.00  0.00    +0.000 OA
ATOM      8  C   UNL     1     110.669 128.165 134.612  0.00  0.00    +0.000 C 
ENDBRANCH   4   7
BRANCH   5   9
ATOM      9  O   UNL     1     110.291 129.886 137.011  0.00  0.00    +0.000 OA
ATOM     10  C   UNL     1     109.658 129.682 137.499  0.00  0.00    +0.000 C 
ENDBRANCH   5   9
BRANCH   2  12
ATOM     11  O   UNL     1     113.189 127.825 135.730  0.00  0.00    +0.000 OA
ATOM     12  C   UNL     1     112.517 127.607 136.156  0.00  0.00    +0.000 C 
BRANCH  12  13
ATOM     13  C   UNL     1     112.402 126.818 136.369  0.00  0.00    +0.000 C 
ATOM     14  C   UNL     1     113.017 126.275 136.287  0.00  0.00    +0.000 C 
BRANCH  14  15
ATOM     15  C   UNL     1     112.902 125.485 136.500  0.00  0.00    +0.000 A 
ATOM     16  C   UNL     1     113.530 125.043 136.799  0.00  0.00    +0.000 A 
ATOM     17  C   UNL     1     112.158 125.139 136.413  0.00  0.00    +0.000 A 
ATOM     18  C   UNL     1     113.415 124.254 137.012  0.00  0.00    +0.000 A 
ATOM     19  C   UNL     1     112.042 124.351 136.626  0.00  0.00    +0.000 A 
ATOM     20  C   UNL     1     112.671 123.908 136.926  0.00  0.00    +0.000 A 
BRANCH  16  21
ATOM     21  O   UNL     1     114.274 125.389 136.886  0.00  0.00    +0.000 OA
ATOM     22  C   UNL     1     114.889 124.963 137.234  0.00  0.00    +0.000 C 
ENDBRANCH  16  21
BRANCH  20  23
ATOM     23  O   UNL     1     112.556 123.120 137.138  0.00  0.00    +0.000 OA
ATOM     24  C   UNL     1     111.792 122.810 137.178  0.00  0.00    +0.000 C 
ENDBRANCH  20  23
ENDBRANCH  14  15
ENDBRANCH  12  13
ENDBRANCH   2  12
BRANCH   1  25
ATOM     25  O   UNL     1     112.673 128.417 137.585  0.00  0.00    +0.000 OA
BRANCH  25  34
ATOM     26  O   UNL     1     113.327 129.685 137.642  0.00  0.00    +0.000 OA
ATOM     27  O   UNL     1     113.446 129.513 140.108  0.00  0.00    +0.000 OA
ATOM     28  O   UNL     1     114.060 130.839 139.343  0.00  0.00    +0.000 OA
ATOM     29  O   UNL     1     112.753 128.302 139.229  0.00  0.00    +0.000 OA
ATOM     30  C   UNL     1     113.714 130.234 138.903  0.00  0.00    +0.000 C 
ATOM     31  C   UNL     1     113.406 129.570 139.286  0.00  0.00    +0.000 C 
ATOM     32  C   UNL     1     113.674 130.292 138.081  0.00  0.00    +0.000 C 
ATOM     33  C   UNL     1     113.060 128.965 138.846  0.00  0.00    +0.000 C 
ATOM     34  C   UNL     1     113.020 129.022 138.024  0.00  0.00    +0.000 C 
BRANCH  32  36
ATOM     35  O   UNL     1     114.368 130.872 136.975  0.00  0.00    +0.000 OA
ATOM     36  C   UNL     1     113.981 130.955 137.699  0.00  0.00    +0.000 C 
ENDBRANCH  32  36
ENDBRANCH  25  34
ENDBRANCH   1  25
TORSDOF 10
ENDMDL
MODEL 7
REMARK VINA RESULT:      -7.3      1.680      2.355
REMARK  Name = 42607620
REMARK  10 active torsions:
REMARK  status: ('A' for Active; 'I' for Inactive)
REMARK    1  A    between atoms: O_2  and  C_16
REMARK    2  A    between atoms: O_2  and  C_18
REMARK    3  A    between atoms: O_7  and  C_21
REMARK    4  A    between atoms: O_8  and  C_22
REMARK    5  A    between atoms: O_10  and  C_30
REMARK    6  A    between atoms: O_11  and  C_34
REMARK    7  A    between atoms: C_14  and  C_17
REMARK    8  A    between atoms: C_19  and  C_24
REMARK    9  A    between atoms: C_24  and  C_25
REMARK   10  A    between atoms: C_26  and  C_29
REMARK                            x       y       z     vdW  Elec       q    Type
REMARK                         _______ _______ _______ _____ _____    ______ ____
ROOT
ATOM      1  C   UNL     1     110.867 128.546 137.607  0.00  0.00    +0.000 A 
ATOM      2  C   UNL     1     111.647 128.331 137.772  0.00  0.00    +0.000 A 
ATOM      3  C   UNL     1     110.427 128.961 138.168  0.00  0.00    +0.000 A 
ATOM      4  C   UNL     1     111.986 128.531 138.498  0.00  0.00    +0.000 A 
ATOM      5  C   UNL     1     110.766 129.161 138.893  0.00  0.00    +0.000 A 
ATOM      6  C   UNL     1     111.544 128.946 139.058  0.00  0.00    +0.000 A 
ENDROOT
BRANCH   4   7
ATOM      7  O   UNL     1     112.764 128.316 138.662  0.00  0.00    +0.000 OA
ATOM      8  C   UNL     1     113.134 128.597 139.344  0.00  0.00    +0.000 C 
ENDBRANCH   4   7
BRANCH   5   9
ATOM      9  O   UNL     1     110.325 129.576 139.453  0.00  0.00    +0.000 OA
ATOM     10  C   UNL     1     109.839 129.168 139.980  0.00  0.00    +0.000 C 
ENDBRANCH   5   9
BRANCH   2  12
ATOM     11  O   UNL     1     112.557 128.325 136.671  0.00  0.00    +0.000 OA
ATOM     12  C   UNL     1     112.087 127.916 137.212  0.00  0.00    +0.000 C 
BRANCH  12  13
ATOM     13  C   UNL     1     112.057 127.091 137.192  0.00  0.00    +0.000 C 
ATOM     14  C   UNL     1     112.577 126.671 136.709  0.00  0.00    +0.000 C 
BRANCH  14  15
ATOM     15  C   UNL     1     112.547 125.847 136.689  0.00  0.00    +0.000 A 
ATOM     16  C   UNL     1     113.244 125.410 136.629  0.00  0.00    +0.000 A 
ATOM     17  C   UNL     1     111.820 125.459 136.730  0.00  0.00    +0.000 A 
ATOM     18  C   UNL     1     113.214 124.585 136.610  0.00  0.00    +0.000 A 
ATOM     19  C   UNL     1     111.790 124.636 136.710  0.00  0.00    +0.000 A 
ATOM     20  C   UNL     1     112.487 124.198 136.650  0.00  0.00    +0.000 A 
BRANCH  16  21
ATOM     21  O   UNL     1     113.972 125.797 136.589  0.00  0.00    +0.000 OA
ATOM     22  C   UNL     1     114.666 125.361 136.497  0.00  0.00    +0.000 C 
ENDBRANCH  16  21
BRANCH  20  23
ATOM     23  O   UNL     1     112.457 123.375 136.631  0.00  0.00    +0.000 OA
ATOM     24  C   UNL     1     112.025 122.963 137.201  0.00  0.00    +0.000 C 
ENDBRANCH  20  23
ENDBRANCH  14  15
ENDBRANCH  12  13
ENDBRANCH   2  12
BRANCH   1  25
ATOM     25  O   UNL     1     110.529 128.347 136.882  0.00  0.00    +0.000 OA
BRANCH  25  34
ATOM     26  O   UNL     1     110.165 129.634 136.382  0.00  0.00    +0.000 OA
ATOM     27  O   UNL     1     107.919 128.773 135.799  0.00  0.00    +0.000 OA
ATOM     28  O   UNL     1     108.304 130.348 135.493  0.00  0.00    +0.000 OA
ATOM     29  O   UNL     1     109.032 127.773 136.493  0.00  0.00    +0.000 OA
ATOM     30  C   UNL     1     108.861 129.848 135.840  0.00  0.00    +0.000 C 
ATOM     31  C   UNL     1     108.668 129.060 135.993  0.00  0.00    +0.000 C 
ATOM     32  C   UNL     1     109.609 130.135 136.034  0.00  0.00    +0.000 C 
ATOM     33  C   UNL     1     109.224 128.560 136.340  0.00  0.00    +0.000 C 
ATOM     34  C   UNL     1     109.973 128.847 136.535  0.00  0.00    +0.000 C 
BRANCH  32  36
ATOM     35  O   UNL     1     110.592 131.154 135.842  0.00  0.00    +0.000 OA
ATOM     36  C   UNL     1     109.801 130.922 135.881  0.00  0.00    +0.000 C 
ENDBRANCH  32  36
ENDBRANCH  25  34
ENDBRANCH   1  25
TORSDOF 10
ENDMDL
MODEL 8
REMARK VINA RESULT:      -7.3      2.043      3.095
REMARK  Name = 42607620
REMARK  10 active torsions:
REMARK  status: ('A' for Active; 'I' for Inactive)
REMARK    1  A    between atoms: O_2  and  C_16
REMARK    2  A    between atoms: O_2  and  C_18
REMARK    3  A    between atoms: O_7  and  C_21
REMARK    4  A    between atoms: O_8  and  C_22
REMARK    5  A    between atoms: O_10  and  C_30
REMARK    6  A    between atoms: O_11  and  C_34
REMARK    7  A    between atoms: C_14  and  C_17
REMARK    8  A    between atoms: C_19  and  C_24
REMARK    9  A    between atoms: C_24  and  C_25
REMARK   10  A    between atoms: C_26  and  C_29
REMARK                            x       y       z     vdW  Elec       q    Type
REMARK                         _______ _______ _______ _____ _____    ______ ____
ROOT
ATOM      1  C   UNL     1     113.030 128.862 137.648  0.00  0.00    +0.000 A 
ATOM      2  C   UNL     1     113.340 128.470 136.991  0.00  0.00    +0.000 A 
ATOM      3  C   UNL     1     113.140 129.675 137.733  0.00  0.00    +0.000 A 
ATOM      4  C   UNL     1     113.760 128.891 136.420  0.00  0.00    +0.000 A 
ATOM      5  C   UNL     1     113.560 130.096 137.161  0.00  0.00    +0.000 A 
ATOM      6  C   UNL     1     113.870 129.704 136.505  0.00  0.00    +0.000 A 
ENDROOT
BRANCH   4   7
ATOM      7  O   UNL     1     114.070 128.499 135.764  0.00  0.00    +0.000 OA
ATOM      8  C   UNL     1     114.543 128.907 135.225  0.00  0.00    +0.000 C 
ENDBRANCH   4   7
BRANCH   5   9
ATOM      9  O   UNL     1     113.670 130.909 137.246  0.00  0.00    +0.000 OA
ATOM     10  C   UNL     1     113.092 131.433 136.978  0.00  0.00    +0.000 C 
ENDBRANCH   5   9
BRANCH   2  12
ATOM     11  O   UNL     1     113.777 127.130 137.230  0.00  0.00    +0.000 OA
ATOM     12  C   UNL     1     113.230 127.657 136.907  0.00  0.00    +0.000 C 
BRANCH  12  13
ATOM     13  C   UNL     1     112.572 127.370 136.499  0.00  0.00    +0.000 C 
ATOM     14  C   UNL     1     112.438 126.557 136.453  0.00  0.00    +0.000 C 
BRANCH  14  15
ATOM     15  C   UNL     1     111.780 126.271 136.045  0.00  0.00    +0.000 A 
ATOM     16  C   UNL     1     111.574 125.474 136.104  0.00  0.00    +0.000 A 
ATOM     17  C   UNL     1     111.329 126.780 135.579  0.00  0.00    +0.000 A 
ATOM     18  C   UNL     1     110.916 125.187 135.696  0.00  0.00    +0.000 A 
ATOM     19  C   UNL     1     110.672 126.494 135.172  0.00  0.00    +0.000 A 
ATOM     20  C   UNL     1     110.465 125.697 135.230  0.00  0.00    +0.000 A 
BRANCH  16  21
ATOM     21  O   UNL     1     112.025 124.964 136.570  0.00  0.00    +0.000 OA
ATOM     22  C   UNL     1     111.875 124.153 136.557  0.00  0.00    +0.000 C 
ENDBRANCH  16  21
BRANCH  20  23
ATOM     23  O   UNL     1     109.808 125.411 134.823  0.00  0.00    +0.000 OA
ATOM     24  C   UNL     1     109.122 125.866 134.773  0.00  0.00    +0.000 C 
ENDBRANCH  20  23
ENDBRANCH  14  15
ENDBRANCH  12  13
ENDBRANCH   2  12
BRANCH   1  25
ATOM     25  O   UNL     1     112.610 128.441 138.220  0.00  0.00    +0.000 OA
BRANCH  25  34
ATOM     26  O   UNL     1     113.347 128.724 139.410  0.00  0.00    +0.000 OA
ATOM     27  O   UNL     1     111.245 129.332 140.567  0.00  0.00    +0.000 OA
ATOM     28  O   UNL     1     112.684 129.413 141.372  0.00  0.00    +0.000 OA
ATOM     29  O   UNL     1     111.209 128.845 138.992  0.00  0.00    +0.000 OA
ATOM     30  C   UNL     1     112.666 129.170 140.584  0.00  0.00    +0.000 C 
ATOM     31  C   UNL     1     111.946 129.129 140.181  0.00  0.00    +0.000 C 
ATOM     32  C   UNL     1     113.366 128.967 140.198  0.00  0.00    +0.000 C 
ATOM     33  C   UNL     1     111.928 128.886 139.393  0.00  0.00    +0.000 C 
ATOM     34  C   UNL     1     112.628 128.683 139.007  0.00  0.00    +0.000 C 
BRANCH  32  36
ATOM     35  O   UNL     1     114.568 128.341 140.651  0.00  0.00    +0.000 OA
ATOM     36  C   UNL     1     114.085 129.008 140.600  0.00  0.00    +0.000 C 
ENDBRANCH  32  36
ENDBRANCH  25  34
ENDBRANCH   1  25
TORSDOF 10
ENDMDL
MODEL 9
REMARK VINA RESULT:      -7.2      2.123      4.999
REMARK  Name = 42607620
REMARK  10 active torsions:
REMARK  status: ('A' for Active; 'I' for Inactive)
REMARK    1  A    between atoms: O_2  and  C_16
REMARK    2  A    between atoms: O_2  and  C_18
REMARK    3  A    between atoms: O_7  and  C_21
REMARK    4  A    between atoms: O_8  and  C_22
REMARK    5  A    between atoms: O_10  and  C_30
REMARK    6  A    between atoms: O_11  and  C_34
REMARK    7  A    between atoms: C_14  and  C_17
REMARK    8  A    between atoms: C_19  and  C_24
REMARK    9  A    between atoms: C_24  and  C_25
REMARK   10  A    between atoms: C_26  and  C_29
REMARK                            x       y       z     vdW  Elec       q    Type
REMARK                         _______ _______ _______ _____ _____    ______ ____
ROOT
ATOM      1  C   UNL     1     110.703 126.044 137.300  0.00  0.00    +0.000 A 
ATOM      2  C   UNL     1     110.181 126.198 136.678  0.00  0.00    +0.000 A 
ATOM      3  C   UNL     1     111.311 125.496 137.200  0.00  0.00    +0.000 A 
ATOM      4  C   UNL     1     110.268 125.803 135.959  0.00  0.00    +0.000 A 
ATOM      5  C   UNL     1     111.398 125.101 136.481  0.00  0.00    +0.000 A 
ATOM      6  C   UNL     1     110.877 125.255 135.861  0.00  0.00    +0.000 A 
ENDROOT
BRANCH   4   7
ATOM      7  O   UNL     1     109.747 125.957 135.339  0.00  0.00    +0.000 OA
ATOM      8  C   UNL     1     109.846 125.576 134.614  0.00  0.00    +0.000 C 
ENDBRANCH   4   7
BRANCH   5   9
ATOM      9  O   UNL     1     112.007 124.554 136.383  0.00  0.00    +0.000 OA
ATOM     10  C   UNL     1     111.916 123.782 136.661  0.00  0.00    +0.000 C 
ENDBRANCH   5   9
BRANCH   2  12
ATOM     11  O   UNL     1     108.887 126.533 137.184  0.00  0.00    +0.000 OA
ATOM     12  C   UNL     1     109.573 126.746 136.777  0.00  0.00    +0.000 C 
BRANCH  12  13
ATOM     13  C   UNL     1     109.651 127.508 136.470  0.00  0.00    +0.000 C 
ATOM     14  C   UNL     1     109.151 128.110 136.731  0.00  0.00    +0.000 C 
BRANCH  14  15
ATOM     15  C   UNL     1     109.229 128.873 136.423  0.00  0.00    +0.000 A 
ATOM     16  C   UNL     1     109.231 129.523 136.931  0.00  0.00    +0.000 A 
ATOM     17  C   UNL     1     109.305 128.983 135.609  0.00  0.00    +0.000 A 
ATOM     18  C   UNL     1     109.309 130.285 136.623  0.00  0.00    +0.000 A 
ATOM     19  C   UNL     1     109.382 129.745 135.303  0.00  0.00    +0.000 A 
ATOM     20  C   UNL     1     109.385 130.396 135.809  0.00  0.00    +0.000 A 
BRANCH  16  21
ATOM     21  O   UNL     1     109.156 129.412 137.745  0.00  0.00    +0.000 OA
ATOM     22  C   UNL     1     109.232 130.055 138.257  0.00  0.00    +0.000 C 
ENDBRANCH  16  21
BRANCH  20  23
ATOM     23  O   UNL     1     109.463 131.157 135.502  0.00  0.00    +0.000 OA
ATOM     24  C   UNL     1     109.024 131.383 134.841  0.00  0.00    +0.000 C 
ENDBRANCH  20  23
ENDBRANCH  14  15
ENDBRANCH  12  13
ENDBRANCH   2  12
BRANCH   1  25
ATOM     25  O   UNL     1     110.615 126.438 138.019  0.00  0.00    +0.000 OA
BRANCH  25  34
ATOM     26  O   UNL     1     111.859 127.128 138.152  0.00  0.00    +0.000 OA
ATOM     27  O   UNL     1     112.119 126.219 140.439  0.00  0.00    +0.000 OA
ATOM     28  O   UNL     1     113.276 127.212 139.809  0.00  0.00    +0.000 OA
ATOM     29  O   UNL     1     110.789 125.832 139.544  0.00  0.00    +0.000 OA
ATOM     30  C   UNL     1     112.611 127.019 139.361  0.00  0.00    +0.000 C 
ATOM     31  C   UNL     1     112.032 126.522 139.677  0.00  0.00    +0.000 C 
ATOM     32  C   UNL     1     112.525 127.322 138.599  0.00  0.00    +0.000 C 
ATOM     33  C   UNL     1     111.367 126.329 139.228  0.00  0.00    +0.000 C 
ATOM     34  C   UNL     1     111.280 126.632 138.466  0.00  0.00    +0.000 C 
BRANCH  32  36
ATOM     35  O   UNL     1     112.885 128.479 137.842  0.00  0.00    +0.000 OA
ATOM     36  C   UNL     1     113.103 127.818 138.285  0.00  0.00    +0.000 C 
ENDBRANCH  32  36
ENDBRANCH  25  34
ENDBRANCH   1  25
TORSDOF 10
ENDMDL
MODEL 10
REMARK VINA RESULT:      -7.2      1.549      2.299
REMARK  Name = 42607620
REMARK  10 active torsions:
REMARK  status: ('A' for Active; 'I' for Inactive)
REMARK    1  A    between atoms: O_2  and  C_16
REMARK    2  A    between atoms: O_2  and  C_18
REMARK    3  A    between atoms: O_7  and  C_21
REMARK    4  A    between atoms: O_8  and  C_22
REMARK    5  A    between atoms: O_10  and  C_30
REMARK    6  A    between atoms: O_11  and  C_34
REMARK    7  A    between atoms: C_14  and  C_17
REMARK    8  A    between atoms: C_19  and  C_24
REMARK    9  A    between atoms: C_24  and  C_25
REMARK   10  A    between atoms: C_26  and  C_29
REMARK                            x       y       z     vdW  Elec       q    Type
REMARK                         _______ _______ _______ _____ _____    ______ ____
ROOT
ATOM      1  C   UNL     1     111.157 128.937 136.788  0.00  0.00    +0.000 A 
ATOM      2  C   UNL     1     111.856 128.684 136.428  0.00  0.00    +0.000 A 
ATOM      3  C   UNL     1     110.668 129.477 136.401  0.00  0.00    +0.000 A 
ATOM      4  C   UNL     1     112.064 128.970 135.683  0.00  0.00    +0.000 A 
ATOM      5  C   UNL     1     110.876 129.764 135.656  0.00  0.00    +0.000 A 
ATOM      6  C   UNL     1     111.574 129.510 135.298  0.00  0.00    +0.000 A 
ENDROOT
BRANCH   4   7
ATOM      7  O   UNL     1     112.762 128.717 135.324  0.00  0.00    +0.000 OA
ATOM      8  C   UNL     1     113.067 129.130 134.678  0.00  0.00    +0.000 C 
ENDBRANCH   4   7
BRANCH   5   9
ATOM      9  O   UNL     1     110.386 130.303 135.271  0.00  0.00    +0.000 OA
ATOM     10  C   UNL     1     109.763 130.033 134.803  0.00  0.00    +0.000 C 
ENDBRANCH   5   9
BRANCH   2  12
ATOM     11  O   UNL     1     112.956 128.413 137.300  0.00  0.00    +0.000 OA
ATOM     12  C   UNL     1     112.346 128.144 136.814  0.00  0.00    +0.000 C 
BRANCH  12  13
ATOM     13  C   UNL     1     112.224 127.333 136.715  0.00  0.00    +0.000 C 
ATOM     14  C   UNL     1     112.807 126.798 136.949  0.00  0.00    +0.000 C 
BRANCH  14  15
ATOM     15  C   UNL     1     112.685 125.987 136.850  0.00  0.00    +0.000 A 
ATOM     16  C   UNL     1     113.330 125.485 136.736  0.00  0.00    +0.000 A 
ATOM     17  C   UNL     1     111.920 125.679 136.865  0.00  0.00    +0.000 A 
ATOM     18  C   UNL     1     113.209 124.675 136.636  0.00  0.00    +0.000 A 
ATOM     19  C   UNL     1     111.799 124.870 136.766  0.00  0.00    +0.000 A 
ATOM     20  C   UNL     1     112.443 124.367 136.652  0.00  0.00    +0.000 A 
BRANCH  16  21
ATOM     21  O   UNL     1     114.095 125.793 136.721  0.00  0.00    +0.000 OA
ATOM     22  C   UNL     1     114.743 125.285 136.663  0.00  0.00    +0.000 C 
ENDBRANCH  16  21
BRANCH  20  23
ATOM     23  O   UNL     1     112.323 123.558 136.552  0.00  0.00    +0.000 OA
ATOM     24  C   UNL     1     111.889 123.133 137.112  0.00  0.00    +0.000 C 
ENDBRANCH  20  23
ENDBRANCH  14  15
ENDBRANCH  12  13
ENDBRANCH   2  12
BRANCH   1  25
ATOM     25  O   UNL     1     110.949 128.650 137.533  0.00  0.00    +0.000 OA
BRANCH  25  34
ATOM     26  O   UNL     1     110.949 129.845 138.315  0.00  0.00    +0.000 OA
ATOM     27  O   UNL     1     108.732 129.242 139.235  0.00  0.00    +0.000 OA
ATOM     28  O   UNL     1     109.471 130.638 139.711  0.00  0.00    +0.000 OA
ATOM     29  O   UNL     1     109.471 128.248 138.146  0.00  0.00    +0.000 OA
ATOM     30  C   UNL     1     109.841 130.141 139.167  0.00  0.00    +0.000 C 
ATOM     31  C   UNL     1     109.471 129.443 138.928  0.00  0.00    +0.000 C 
ATOM     32  C   UNL     1     110.580 130.342 138.860  0.00  0.00    +0.000 C 
ATOM     33  C   UNL     1     109.841 128.946 138.384  0.00  0.00    +0.000 C 
ATOM     34  C   UNL     1     110.580 129.147 138.077  0.00  0.00    +0.000 C 
BRANCH  32  36
ATOM     35  O   UNL     1     111.757 131.044 139.265  0.00  0.00    +0.000 OA
ATOM     36  C   UNL     1     110.949 131.040 139.098  0.00  0.00    +0.000 C 
ENDBRANCH  32  36
ENDBRANCH  25  34
ENDBRANCH   1  25
TORSDOF 10
ENDMDL
