MODEL 1
REMARK VINA RESULT:      -8.0      0.000      0.000
REMARK  Name = 14887327
REMARK  5 active torsions:
REMARK  status: ('A' for Active; 'I' for Inactive)
REMARK    1  A    between atoms: O_2  and  C_11
REMARK    2  A    between atoms: O_3  and  C_13
REMARK    3  A    between atoms: O_4  and  C_16
REMARK    4  A    between atoms: O_7  and  C_18
REMARK    5  A    between atoms: C_10  and  C_14
REMARK                            x       y       z     vdW  Elec       q    Type
REMARK                         _______ _______ _______ _____ _____    ______ ____
ROOT
ATOM      1  O   UNL     1     112.428 126.514 136.293  0.00  0.00    +0.000 OA
ATOM      2  O   UNL     1     109.982 125.588 135.064  0.00  0.00    +0.000 OA
ATOM      3  O   UNL     1     110.883 124.669 135.715  0.00  0.00    +0.000 OA
ATOM      4  C   UNL     1     111.219 126.058 135.685  0.00  0.00    +0.000 A 
ATOM      5  C   UNL     1     111.734 126.673 135.878  0.00  0.00    +0.000 A 
ATOM      6  C   UNL     1     112.609 125.740 136.516  0.00  0.00    +0.000 A 
ATOM      7  C   UNL     1     112.094 125.125 136.323  0.00  0.00    +0.000 A 
ATOM      8  C   UNL     1     111.398 125.284 135.908  0.00  0.00    +0.000 A 
ATOM      9  C   UNL     1     111.557 127.483 135.651  0.00  0.00    +0.000 A 
ATOM     10  C   UNL     1     110.491 126.210 135.253  0.00  0.00    +0.000 A 
ATOM     11  C   UNL     1     110.835 127.654 135.219  0.00  0.00    +0.000 A 
ATOM     12  C   UNL     1     110.298 127.013 135.018  0.00  0.00    +0.000 A 
ENDROOT
BRANCH   6  13
ATOM     13  C   UNL     1     113.303 125.582 136.931  0.00  0.00    +0.000 A 
ATOM     14  C   UNL     1     113.355 125.765 137.733  0.00  0.00    +0.000 A 
ATOM     15  C   UNL     1     113.947 125.239 136.544  0.00  0.00    +0.000 A 
ATOM     16  C   UNL     1     114.050 125.606 138.149  0.00  0.00    +0.000 A 
ATOM     17  C   UNL     1     114.641 125.081 136.959  0.00  0.00    +0.000 A 
ATOM     18  C   UNL     1     114.693 125.264 137.762  0.00  0.00    +0.000 A 
BRANCH  14  19
ATOM     19  O   UNL     1     112.712 126.107 138.121  0.00  0.00    +0.000 OA
ATOM     20  C   UNL     1     112.775 126.321 138.915  0.00  0.00    +0.000 C 
ENDBRANCH  14  19
ENDBRANCH   6  13
BRANCH   7  21
ATOM     21  O   UNL     1     112.273 124.351 136.545  0.00  0.00    +0.000 OA
ATOM     22  C   UNL     1     111.760 123.736 136.350  0.00  0.00    +0.000 C 
ENDBRANCH   7  21
BRANCH   9  23
ATOM     23  O   UNL     1     112.078 128.091 135.848  0.00  0.00    +0.000 OA
ATOM     24  C   UNL     1     112.505 128.476 135.256  0.00  0.00    +0.000 C 
ENDBRANCH   9  23
BRANCH  11  25
ATOM     25  O   UNL     1     110.658 128.429 134.998  0.00  0.00    +0.000 OA
ATOM     26  C   UNL     1     109.891 128.626 134.765  0.00  0.00    +0.000 C 
ENDBRANCH  11  25
TORSDOF 5
ENDMDL
MODEL 2
REMARK VINA RESULT:      -7.7     12.055     13.565
REMARK  Name = 14887327
REMARK  5 active torsions:
REMARK  status: ('A' for Active; 'I' for Inactive)
REMARK    1  A    between atoms: O_2  and  C_11
REMARK    2  A    between atoms: O_3  and  C_13
REMARK    3  A    between atoms: O_4  and  C_16
REMARK    4  A    between atoms: O_7  and  C_18
REMARK    5  A    between atoms: C_10  and  C_14
REMARK                            x       y       z     vdW  Elec       q    Type
REMARK                         _______ _______ _______ _____ _____    ______ ____
ROOT
ATOM      1  O   UNL     1     105.127 124.387 147.192  0.00  0.00    +0.000 OA
ATOM      2  O   UNL     1     102.429 125.103 147.940  0.00  0.00    +0.000 OA
ATOM      3  O   UNL     1     103.564 125.608 148.673  0.00  0.00    +0.000 OA
ATOM      4  C   UNL     1     103.793 124.740 147.561  0.00  0.00    +0.000 A 
ATOM      5  C   UNL     1     104.314 124.333 147.067  0.00  0.00    +0.000 A 
ATOM      6  C   UNL     1     105.420 124.848 147.811  0.00  0.00    +0.000 A 
ATOM      7  C   UNL     1     104.899 125.254 148.305  0.00  0.00    +0.000 A 
ATOM      8  C   UNL     1     104.085 125.201 148.180  0.00  0.00    +0.000 A 
ATOM      9  C   UNL     1     104.021 123.850 146.419  0.00  0.00    +0.000 A 
ATOM     10  C   UNL     1     102.942 124.693 147.441  0.00  0.00    +0.000 A 
ATOM     11  C   UNL     1     103.174 123.791 146.284  0.00  0.00    +0.000 A 
ATOM     12  C   UNL     1     102.631 124.215 146.799  0.00  0.00    +0.000 A 
ENDROOT
BRANCH   6  13
ATOM     13  C   UNL     1     106.233 124.901 147.936  0.00  0.00    +0.000 A 
ATOM     14  C   UNL     1     106.690 125.402 147.466  0.00  0.00    +0.000 A 
ATOM     15  C   UNL     1     106.590 124.454 148.531  0.00  0.00    +0.000 A 
ATOM     16  C   UNL     1     107.505 125.456 147.591  0.00  0.00    +0.000 A 
ATOM     17  C   UNL     1     107.403 124.508 148.656  0.00  0.00    +0.000 A 
ATOM     18  C   UNL     1     107.861 125.009 148.186  0.00  0.00    +0.000 A 
BRANCH  14  19
ATOM     19  O   UNL     1     106.335 125.849 146.871  0.00  0.00    +0.000 OA
ATOM     20  C   UNL     1     106.792 126.344 146.397  0.00  0.00    +0.000 C 
ENDBRANCH  14  19
ENDBRANCH   6  13
BRANCH   7  21
ATOM     21  O   UNL     1     105.191 125.715 148.923  0.00  0.00    +0.000 OA
ATOM     22  C   UNL     1     104.691 125.949 149.536  0.00  0.00    +0.000 C 
ENDBRANCH   7  21
BRANCH   9  23
ATOM     23  O   UNL     1     104.549 123.448 145.931  0.00  0.00    +0.000 OA
ATOM     24  C   UNL     1     104.583 123.625 145.126  0.00  0.00    +0.000 C 
ENDBRANCH   9  23
BRANCH  11  25
ATOM     25  O   UNL     1     102.884 123.330 145.664  0.00  0.00    +0.000 OA
ATOM     26  C   UNL     1     102.112 123.041 145.691  0.00  0.00    +0.000 C 
ENDBRANCH  11  25
TORSDOF 5
ENDMDL
MODEL 3
REMARK VINA RESULT:      -7.6      2.154      3.856
REMARK  Name = 14887327
REMARK  5 active torsions:
REMARK  status: ('A' for Active; 'I' for Inactive)
REMARK    1  A    between atoms: O_2  and  C_11
REMARK    2  A    between atoms: O_3  and  C_13
REMARK    3  A    between atoms: O_4  and  C_16
REMARK    4  A    between atoms: O_7  and  C_18
REMARK    5  A    between atoms: C_10  and  C_14
REMARK                            x       y       z     vdW  Elec       q    Type
REMARK                         _______ _______ _______ _____ _____    ______ ____
ROOT
ATOM      1  O   UNL     1     113.444 126.401 138.838  0.00  0.00    +0.000 OA
ATOM      2  O   UNL     1     110.824 126.138 140.028  0.00  0.00    +0.000 OA
ATOM      3  O   UNL     1     111.145 125.485 138.783  0.00  0.00    +0.000 OA
ATOM      4  C   UNL     1     112.149 126.272 139.427  0.00  0.00    +0.000 A 
ATOM      5  C   UNL     1     112.916 126.577 139.445  0.00  0.00    +0.000 A 
ATOM      6  C   UNL     1     113.208 125.919 138.211  0.00  0.00    +0.000 A 
ATOM      7  C   UNL     1     112.441 125.614 138.193  0.00  0.00    +0.000 A 
ATOM      8  C   UNL     1     111.912 125.790 138.801  0.00  0.00    +0.000 A 
ATOM      9  C   UNL     1     113.175 127.080 140.093  0.00  0.00    +0.000 A 
ATOM     10  C   UNL     1     111.588 126.448 140.055  0.00  0.00    +0.000 A 
ATOM     11  C   UNL     1     112.628 127.267 140.729  0.00  0.00    +0.000 A 
ATOM     12  C   UNL     1     111.830 126.949 140.709  0.00  0.00    +0.000 A 
ENDROOT
BRANCH   6  13
ATOM     13  C   UNL     1     113.736 125.742 137.604  0.00  0.00    +0.000 A 
ATOM     14  C   UNL     1     113.865 126.288 136.998  0.00  0.00    +0.000 A 
ATOM     15  C   UNL     1     114.136 125.020 137.600  0.00  0.00    +0.000 A 
ATOM     16  C   UNL     1     114.395 126.111 136.390  0.00  0.00    +0.000 A 
ATOM     17  C   UNL     1     114.664 124.844 136.993  0.00  0.00    +0.000 A 
ATOM     18  C   UNL     1     114.794 125.389 136.387  0.00  0.00    +0.000 A 
BRANCH  14  19
ATOM     19  O   UNL     1     113.466 127.010 137.001  0.00  0.00    +0.000 OA
ATOM     20  C   UNL     1     113.619 127.568 136.414  0.00  0.00    +0.000 C 
ENDBRANCH  14  19
ENDBRANCH   6  13
BRANCH   7  21
ATOM     21  O   UNL     1     112.204 125.132 137.567  0.00  0.00    +0.000 OA
ATOM     22  C   UNL     1     111.510 124.689 137.627  0.00  0.00    +0.000 C 
ENDBRANCH   7  21
BRANCH   9  23
ATOM     23  O   UNL     1     113.942 127.380 140.103  0.00  0.00    +0.000 OA
ATOM     24  C   UNL     1     114.481 127.117 140.670  0.00  0.00    +0.000 C 
ENDBRANCH   9  23
BRANCH  11  25
ATOM     25  O   UNL     1     112.868 127.749 141.354  0.00  0.00    +0.000 OA
ATOM     26  C   UNL     1     112.305 128.098 141.846  0.00  0.00    +0.000 C 
ENDBRANCH  11  25
TORSDOF 5
ENDMDL
MODEL 4
REMARK VINA RESULT:      -7.6     11.563     13.411
REMARK  Name = 14887327
REMARK  5 active torsions:
REMARK  status: ('A' for Active; 'I' for Inactive)
REMARK    1  A    between atoms: O_2  and  C_11
REMARK    2  A    between atoms: O_3  and  C_13
REMARK    3  A    between atoms: O_4  and  C_16
REMARK    4  A    between atoms: O_7  and  C_18
REMARK    5  A    between atoms: C_10  and  C_14
REMARK                            x       y       z     vdW  Elec       q    Type
REMARK                         _______ _______ _______ _____ _____    ______ ____
ROOT
ATOM      1  O   UNL     1     105.110 124.328 147.411  0.00  0.00    +0.000 OA
ATOM      2  O   UNL     1     107.507 125.582 146.396  0.00  0.00    +0.000 OA
ATOM      3  O   UNL     1     106.359 125.376 145.549  0.00  0.00    +0.000 OA
ATOM      4  C   UNL     1     106.295 124.948 146.911  0.00  0.00    +0.000 A 
ATOM      5  C   UNL     1     105.879 124.599 147.532  0.00  0.00    +0.000 A 
ATOM      6  C   UNL     1     104.755 124.406 146.670  0.00  0.00    +0.000 A 
ATOM      7  C   UNL     1     105.172 124.756 146.050  0.00  0.00    +0.000 A 
ATOM      8  C   UNL     1     105.942 125.027 146.170  0.00  0.00    +0.000 A 
ATOM      9  C   UNL     1     106.237 124.511 148.309  0.00  0.00    +0.000 A 
ATOM     10  C   UNL     1     107.099 125.234 147.023  0.00  0.00    +0.000 A 
ATOM     11  C   UNL     1     107.039 124.791 148.440  0.00  0.00    +0.000 A 
ATOM     12  C   UNL     1     107.472 125.155 147.793  0.00  0.00    +0.000 A 
ENDROOT
BRANCH   6  13
ATOM     13  C   UNL     1     103.986 124.136 146.550  0.00  0.00    +0.000 A 
ATOM     14  C   UNL     1     103.346 124.575 146.829  0.00  0.00    +0.000 A 
ATOM     15  C   UNL     1     103.855 123.426 146.150  0.00  0.00    +0.000 A 
ATOM     16  C   UNL     1     102.575 124.305 146.709  0.00  0.00    +0.000 A 
ATOM     17  C   UNL     1     103.086 123.156 146.030  0.00  0.00    +0.000 A 
ATOM     18  C   UNL     1     102.446 123.595 146.309  0.00  0.00    +0.000 A 
BRANCH  14  19
ATOM     19  O   UNL     1     103.476 125.285 147.229  0.00  0.00    +0.000 OA
ATOM     20  C   UNL     1     102.842 125.692 147.564  0.00  0.00    +0.000 C 
ENDBRANCH  14  19
ENDBRANCH   6  13
BRANCH   7  21
ATOM     21  O   UNL     1     104.819 124.834 145.308  0.00  0.00    +0.000 OA
ATOM     22  C   UNL     1     105.287 124.880 144.630  0.00  0.00    +0.000 C 
ENDBRANCH   7  21
BRANCH   9  23
ATOM     23  O   UNL     1     105.814 124.161 148.923  0.00  0.00    +0.000 OA
ATOM     24  C   UNL     1     105.658 124.588 149.612  0.00  0.00    +0.000 C 
ENDBRANCH   9  23
BRANCH  11  25
ATOM     25  O   UNL     1     107.390 124.711 149.182  0.00  0.00    +0.000 OA
ATOM     26  C   UNL     1     108.190 124.519 149.241  0.00  0.00    +0.000 C 
ENDBRANCH  11  25
TORSDOF 5
ENDMDL
MODEL 5
REMARK VINA RESULT:      -7.3      1.187      3.243
REMARK  Name = 14887327
REMARK  5 active torsions:
REMARK  status: ('A' for Active; 'I' for Inactive)
REMARK    1  A    between atoms: O_2  and  C_11
REMARK    2  A    between atoms: O_3  and  C_13
REMARK    3  A    between atoms: O_4  and  C_16
REMARK    4  A    between atoms: O_7  and  C_18
REMARK    5  A    between atoms: C_10  and  C_14
REMARK                            x       y       z     vdW  Elec       q    Type
REMARK                         _______ _______ _______ _____ _____    ______ ____
ROOT
ATOM      1  O   UNL     1     112.833 126.692 136.502  0.00  0.00    +0.000 OA
ATOM      2  O   UNL     1     110.494 125.308 135.520  0.00  0.00    +0.000 OA
ATOM      3  O   UNL     1     110.662 126.726 135.315  0.00  0.00    +0.000 OA
ATOM      4  C   UNL     1     111.677 126.007 136.017  0.00  0.00    +0.000 A 
ATOM      5  C   UNL     1     112.401 125.995 136.413  0.00  0.00    +0.000 A 
ATOM      6  C   UNL     1     112.542 127.401 136.196  0.00  0.00    +0.000 A 
ATOM      7  C   UNL     1     111.818 127.412 135.801  0.00  0.00    +0.000 A 
ATOM      8  C   UNL     1     111.385 126.714 135.711  0.00  0.00    +0.000 A 
ATOM      9  C   UNL     1     112.715 125.263 136.736  0.00  0.00    +0.000 A 
ATOM     10  C   UNL     1     111.217 125.287 135.917  0.00  0.00    +0.000 A 
ATOM     11  C   UNL     1     112.270 124.534 136.646  0.00  0.00    +0.000 A 
ATOM     12  C   UNL     1     111.516 124.546 136.234  0.00  0.00    +0.000 A 
ENDROOT
BRANCH   6  13
ATOM     13  C   UNL     1     112.974 128.097 136.286  0.00  0.00    +0.000 A 
ATOM     14  C   UNL     1     112.963 128.499 137.006  0.00  0.00    +0.000 A 
ATOM     15  C   UNL     1     113.416 128.393 135.655  0.00  0.00    +0.000 A 
ATOM     16  C   UNL     1     113.396 129.197 137.096  0.00  0.00    +0.000 A 
ATOM     17  C   UNL     1     113.848 129.090 135.745  0.00  0.00    +0.000 A 
ATOM     18  C   UNL     1     113.838 129.491 136.465  0.00  0.00    +0.000 A 
BRANCH  14  19
ATOM     19  O   UNL     1     112.521 128.204 137.637  0.00  0.00    +0.000 OA
ATOM     20  C   UNL     1     112.543 128.583 138.369  0.00  0.00    +0.000 C 
ENDBRANCH  14  19
ENDBRANCH   6  13
BRANCH   7  21
ATOM     21  O   UNL     1     111.526 128.120 135.494  0.00  0.00    +0.000 OA
ATOM     22  C   UNL     1     110.949 128.108 134.905  0.00  0.00    +0.000 C 
ENDBRANCH   7  21
BRANCH   9  23
ATOM     23  O   UNL     1     113.439 125.262 137.130  0.00  0.00    +0.000 OA
ATOM     24  C   UNL     1     114.099 124.911 136.779  0.00  0.00    +0.000 C 
ENDBRANCH   9  23
BRANCH  11  25
ATOM     25  O   UNL     1     112.564 123.827 136.953  0.00  0.00    +0.000 OA
ATOM     26  C   UNL     1     112.052 123.197 137.101  0.00  0.00    +0.000 C 
ENDBRANCH  11  25
TORSDOF 5
ENDMDL
MODEL 6
REMARK VINA RESULT:      -7.3     12.470     13.849
REMARK  Name = 14887327
REMARK  5 active torsions:
REMARK  status: ('A' for Active; 'I' for Inactive)
REMARK    1  A    between atoms: O_2  and  C_11
REMARK    2  A    between atoms: O_3  and  C_13
REMARK    3  A    between atoms: O_4  and  C_16
REMARK    4  A    between atoms: O_7  and  C_18
REMARK    5  A    between atoms: C_10  and  C_14
REMARK                            x       y       z     vdW  Elec       q    Type
REMARK                         _______ _______ _______ _____ _____    ______ ____
ROOT
ATOM      1  O   UNL     1     103.934 124.357 147.545  0.00  0.00    +0.000 OA
ATOM      2  O   UNL     1     103.107 123.117 145.070  0.00  0.00    +0.000 OA
ATOM      3  O   UNL     1     104.389 123.768 145.185  0.00  0.00    +0.000 OA
ATOM      4  C   UNL     1     103.524 123.744 146.322  0.00  0.00    +0.000 A 
ATOM      5  C   UNL     1     103.372 123.940 147.109  0.00  0.00    +0.000 A 
ATOM      6  C   UNL     1     104.648 124.578 147.196  0.00  0.00    +0.000 A 
ATOM      7  C   UNL     1     104.800 124.382 146.409  0.00  0.00    +0.000 A 
ATOM      8  C   UNL     1     104.237 123.964 145.972  0.00  0.00    +0.000 A 
ATOM      9  C   UNL     1     102.632 123.716 147.485  0.00  0.00    +0.000 A 
ATOM     10  C   UNL     1     102.946 123.309 145.856  0.00  0.00    +0.000 A 
ATOM     11  C   UNL     1     102.043 123.282 147.035  0.00  0.00    +0.000 A 
ATOM     12  C   UNL     1     102.201 123.077 146.215  0.00  0.00    +0.000 A 
ENDROOT
BRANCH   6  13
ATOM     13  C   UNL     1     105.210 124.995 147.632  0.00  0.00    +0.000 A 
ATOM     14  C   UNL     1     105.091 125.794 147.801  0.00  0.00    +0.000 A 
ATOM     15  C   UNL     1     105.891 124.614 147.900  0.00  0.00    +0.000 A 
ATOM     16  C   UNL     1     105.654 126.212 148.238  0.00  0.00    +0.000 A 
ATOM     17  C   UNL     1     106.453 125.031 148.336  0.00  0.00    +0.000 A 
ATOM     18  C   UNL     1     106.334 125.830 148.505  0.00  0.00    +0.000 A 
BRANCH  14  19
ATOM     19  O   UNL     1     104.411 126.176 147.533  0.00  0.00    +0.000 OA
ATOM     20  C   UNL     1     104.272 126.962 147.737  0.00  0.00    +0.000 C 
ENDBRANCH  14  19
ENDBRANCH   6  13
BRANCH   7  21
ATOM     21  O   UNL     1     105.513 124.602 146.058  0.00  0.00    +0.000 OA
ATOM     22  C   UNL     1     105.585 124.608 145.237  0.00  0.00    +0.000 C 
ENDBRANCH   7  21
BRANCH   9  23
ATOM     23  O   UNL     1     102.490 123.917 148.272  0.00  0.00    +0.000 OA
ATOM     24  C   UNL     1     102.448 123.326 148.847  0.00  0.00    +0.000 C 
ENDBRANCH   9  23
BRANCH  11  25
ATOM     25  O   UNL     1     101.331 123.062 147.388  0.00  0.00    +0.000 OA
ATOM     26  C   UNL     1     100.714 122.769 146.924  0.00  0.00    +0.000 C 
ENDBRANCH  11  25
TORSDOF 5
ENDMDL
MODEL 7
REMARK VINA RESULT:      -7.3      1.934      3.068
REMARK  Name = 14887327
REMARK  5 active torsions:
REMARK  status: ('A' for Active; 'I' for Inactive)
REMARK    1  A    between atoms: O_2  and  C_11
REMARK    2  A    between atoms: O_3  and  C_13
REMARK    3  A    between atoms: O_4  and  C_16
REMARK    4  A    between atoms: O_7  and  C_18
REMARK    5  A    between atoms: C_10  and  C_14
REMARK                            x       y       z     vdW  Elec       q    Type
REMARK                         _______ _______ _______ _____ _____    ______ ____
ROOT
ATOM      1  O   UNL     1     111.746 125.642 138.122  0.00  0.00    +0.000 OA
ATOM      2  O   UNL     1     109.013 126.477 137.689  0.00  0.00    +0.000 OA
ATOM      3  O   UNL     1     109.834 126.015 136.596  0.00  0.00    +0.000 OA
ATOM      4  C   UNL     1     110.395 126.055 137.909  0.00  0.00    +0.000 A 
ATOM      5  C   UNL     1     111.032 125.931 138.418  0.00  0.00    +0.000 A 
ATOM      6  C   UNL     1     111.823 125.478 137.318  0.00  0.00    +0.000 A 
ATOM      7  C   UNL     1     111.186 125.602 136.809  0.00  0.00    +0.000 A 
ATOM      8  C   UNL     1     110.471 125.891 137.105  0.00  0.00    +0.000 A 
ATOM      9  C   UNL     1     110.965 126.098 139.259  0.00  0.00    +0.000 A 
ATOM     10  C   UNL     1     109.645 126.356 138.205  0.00  0.00    +0.000 A 
ATOM     11  C   UNL     1     110.224 126.399 139.573  0.00  0.00    +0.000 A 
ATOM     12  C   UNL     1     109.559 126.528 139.042  0.00  0.00    +0.000 A 
ENDROOT
BRANCH   6  13
ATOM     13  C   UNL     1     112.536 125.189 137.022  0.00  0.00    +0.000 A 
ATOM     14  C   UNL     1     113.152 125.710 136.850  0.00  0.00    +0.000 A 
ATOM     15  C   UNL     1     112.635 124.379 136.897  0.00  0.00    +0.000 A 
ATOM     16  C   UNL     1     113.867 125.422 136.553  0.00  0.00    +0.000 A 
ATOM     17  C   UNL     1     113.348 124.091 136.602  0.00  0.00    +0.000 A 
ATOM     18  C   UNL     1     113.964 124.612 136.430  0.00  0.00    +0.000 A 
BRANCH  14  19
ATOM     19  O   UNL     1     113.055 126.520 136.973  0.00  0.00    +0.000 OA
ATOM     20  C   UNL     1     113.675 127.039 136.816  0.00  0.00    +0.000 C 
ENDBRANCH  14  19
ENDBRANCH   6  13
BRANCH   7  21
ATOM     21  O   UNL     1     111.262 125.438 136.004  0.00  0.00    +0.000 OA
ATOM     22  C   UNL     1     110.589 125.360 135.533  0.00  0.00    +0.000 C 
ENDBRANCH   7  21
BRANCH   9  23
ATOM     23  O   UNL     1     111.607 125.971 139.759  0.00  0.00    +0.000 OA
ATOM     24  C   UNL     1     111.966 126.609 140.140  0.00  0.00    +0.000 C 
ENDBRANCH   9  23
BRANCH  11  25
ATOM     25  O   UNL     1     110.150 126.562 140.378  0.00  0.00    +0.000 OA
ATOM     26  C   UNL     1     109.401 126.615 140.721  0.00  0.00    +0.000 C 
ENDBRANCH  11  25
TORSDOF 5
ENDMDL
MODEL 8
REMARK VINA RESULT:      -7.2      0.996      2.261
REMARK  Name = 14887327
REMARK  5 active torsions:
REMARK  status: ('A' for Active; 'I' for Inactive)
REMARK    1  A    between atoms: O_2  and  C_11
REMARK    2  A    between atoms: O_3  and  C_13
REMARK    3  A    between atoms: O_4  and  C_16
REMARK    4  A    between atoms: O_7  and  C_18
REMARK    5  A    between atoms: C_10  and  C_14
REMARK                            x       y       z     vdW  Elec       q    Type
REMARK                         _______ _______ _______ _____ _____    ______ ____
ROOT
ATOM      1  O   UNL     1     112.203 126.389 136.426  0.00  0.00    +0.000 OA
ATOM      2  O   UNL     1     111.481 128.968 135.341  0.00  0.00    +0.000 OA
ATOM      3  O   UNL     1     112.840 128.676 135.727  0.00  0.00    +0.000 OA
ATOM      4  C   UNL     1     111.845 127.663 135.890  0.00  0.00    +0.000 A 
ATOM      5  C   UNL     1     111.633 126.901 136.123  0.00  0.00    +0.000 A 
ATOM      6  C   UNL     1     112.987 126.638 136.497  0.00  0.00    +0.000 A 
ATOM      7  C   UNL     1     113.199 127.401 136.264  0.00  0.00    +0.000 A 
ATOM      8  C   UNL     1     112.628 127.914 135.960  0.00  0.00    +0.000 A 
ATOM      9  C   UNL     1     110.820 126.629 136.054  0.00  0.00    +0.000 A 
ATOM     10  C   UNL     1     111.260 128.207 135.571  0.00  0.00    +0.000 A 
ATOM     11  C   UNL     1     110.222 127.158 135.738  0.00  0.00    +0.000 A 
ATOM     12  C   UNL     1     110.443 127.952 135.495  0.00  0.00    +0.000 A 
ENDROOT
BRANCH   6  13
ATOM     13  C   UNL     1     113.557 126.127 136.801  0.00  0.00    +0.000 A 
ATOM     14  C   UNL     1     113.616 126.011 137.616  0.00  0.00    +0.000 A 
ATOM     15  C   UNL     1     114.070 125.730 136.291  0.00  0.00    +0.000 A 
ATOM     16  C   UNL     1     114.187 125.498 137.920  0.00  0.00    +0.000 A 
ATOM     17  C   UNL     1     114.640 125.218 136.594  0.00  0.00    +0.000 A 
ATOM     18  C   UNL     1     114.699 125.102 137.409  0.00  0.00    +0.000 A 
BRANCH  14  19
ATOM     19  O   UNL     1     113.104 126.407 138.127  0.00  0.00    +0.000 OA
ATOM     20  C   UNL     1     113.149 126.276 138.939  0.00  0.00    +0.000 C 
ENDBRANCH  14  19
ENDBRANCH   6  13
BRANCH   7  21
ATOM     21  O   UNL     1     113.982 127.651 136.335  0.00  0.00    +0.000 OA
ATOM     22  C   UNL     1     114.250 128.297 135.897  0.00  0.00    +0.000 C 
ENDBRANCH   7  21
BRANCH   9  23
ATOM     23  O   UNL     1     110.618 125.865 136.289  0.00  0.00    +0.000 OA
ATOM     24  C   UNL     1     110.475 125.283 135.722  0.00  0.00    +0.000 C 
ENDBRANCH   9  23
BRANCH  11  25
ATOM     25  O   UNL     1     109.439 126.905 135.669  0.00  0.00    +0.000 OA
ATOM     26  C   UNL     1     108.824 127.452 135.714  0.00  0.00    +0.000 C 
ENDBRANCH  11  25
TORSDOF 5
ENDMDL
MODEL 9
REMARK VINA RESULT:      -7.1      1.575      2.856
REMARK  Name = 14887327
REMARK  5 active torsions:
REMARK  status: ('A' for Active; 'I' for Inactive)
REMARK    1  A    between atoms: O_2  and  C_11
REMARK    2  A    between atoms: O_3  and  C_13
REMARK    3  A    between atoms: O_4  and  C_16
REMARK    4  A    between atoms: O_7  and  C_18
REMARK    5  A    between atoms: C_10  and  C_14
REMARK                            x       y       z     vdW  Elec       q    Type
REMARK                         _______ _______ _______ _____ _____    ______ ____
ROOT
ATOM      1  O   UNL     1     112.910 127.286 136.794  0.00  0.00    +0.000 OA
ATOM      2  O   UNL     1     112.443 129.099 138.995  0.00  0.00    +0.000 OA
ATOM      3  O   UNL     1     112.967 127.774 139.219  0.00  0.00    +0.000 OA
ATOM      4  C   UNL     1     112.679 128.183 137.881  0.00  0.00    +0.000 A 
ATOM      5  C   UNL     1     112.660 128.021 137.072  0.00  0.00    +0.000 A 
ATOM      6  C   UNL     1     113.180 126.713 137.323  0.00  0.00    +0.000 A 
ATOM      7  C   UNL     1     113.199 126.876 138.131  0.00  0.00    +0.000 A 
ATOM      8  C   UNL     1     112.948 127.612 138.411  0.00  0.00    +0.000 A 
ATOM      9  C   UNL     1     112.381 128.609 136.510  0.00  0.00    +0.000 A 
ATOM     10  C   UNL     1     112.420 128.946 138.184  0.00  0.00    +0.000 A 
ATOM     11  C   UNL     1     112.119 129.376 136.795  0.00  0.00    +0.000 A 
ATOM     12  C   UNL     1     112.139 129.545 137.638  0.00  0.00    +0.000 A 
ENDROOT
BRANCH   6  13
ATOM     13  C   UNL     1     113.430 125.979 137.044  0.00  0.00    +0.000 A 
ATOM     14  C   UNL     1     112.874 125.409 136.828  0.00  0.00    +0.000 A 
ATOM     15  C   UNL     1     114.236 125.814 136.981  0.00  0.00    +0.000 A 
ATOM     16  C   UNL     1     113.125 124.673 136.549  0.00  0.00    +0.000 A 
ATOM     17  C   UNL     1     114.486 125.079 136.703  0.00  0.00    +0.000 A 
ATOM     18  C   UNL     1     113.931 124.509 136.487  0.00  0.00    +0.000 A 
BRANCH  14  19
ATOM     19  O   UNL     1     112.068 125.573 136.891  0.00  0.00    +0.000 OA
ATOM     20  C   UNL     1     111.513 125.015 136.645  0.00  0.00    +0.000 C 
ENDBRANCH  14  19
ENDBRANCH   6  13
BRANCH   7  21
ATOM     21  O   UNL     1     113.468 126.305 138.662  0.00  0.00    +0.000 OA
ATOM     22  C   UNL     1     113.662 126.517 139.435  0.00  0.00    +0.000 C 
ENDBRANCH   7  21
BRANCH   9  23
ATOM     23  O   UNL     1     112.365 128.437 135.704  0.00  0.00    +0.000 OA
ATOM     24  C   UNL     1     112.889 128.817 135.192  0.00  0.00    +0.000 C 
ENDBRANCH   9  23
BRANCH  11  25
ATOM     25  O   UNL     1     111.850 129.946 136.263  0.00  0.00    +0.000 OA
ATOM     26  C   UNL     1     111.406 130.586 136.534  0.00  0.00    +0.000 C 
ENDBRANCH  11  25
TORSDOF 5
ENDMDL
MODEL 10
REMARK VINA RESULT:      -7.1     13.145     14.601
REMARK  Name = 14887327
REMARK  5 active torsions:
REMARK  status: ('A' for Active; 'I' for Inactive)
REMARK    1  A    between atoms: O_2  and  C_11
REMARK    2  A    between atoms: O_3  and  C_13
REMARK    3  A    between atoms: O_4  and  C_16
REMARK    4  A    between atoms: O_7  and  C_18
REMARK    5  A    between atoms: C_10  and  C_14
REMARK                            x       y       z     vdW  Elec       q    Type
REMARK                         _______ _______ _______ _____ _____    ______ ____
ROOT
ATOM      1  O   UNL     1     103.511 124.265 147.885  0.00  0.00    +0.000 OA
ATOM      2  O   UNL     1     104.322 124.116 145.115  0.00  0.00    +0.000 OA
ATOM      3  O   UNL     1     103.009 123.689 145.531  0.00  0.00    +0.000 OA
ATOM      4  C   UNL     1     103.913 124.192 146.516  0.00  0.00    +0.000 A 
ATOM      5  C   UNL     1     104.080 124.384 147.301  0.00  0.00    +0.000 A 
ATOM      6  C   UNL     1     102.773 123.954 147.685  0.00  0.00    +0.000 A 
ATOM      7  C   UNL     1     102.606 123.762 146.900  0.00  0.00    +0.000 A 
ATOM      8  C   UNL     1     103.176 123.881 146.315  0.00  0.00    +0.000 A 
ATOM      9  C   UNL     1     104.845 124.709 147.522  0.00  0.00    +0.000 A 
ATOM     10  C   UNL     1     104.499 124.311 145.897  0.00  0.00    +0.000 A 
ATOM     11  C   UNL     1     105.443 124.835 146.918  0.00  0.00    +0.000 A 
ATOM     12  C   UNL     1     105.268 124.635 146.100  0.00  0.00    +0.000 A 
ENDROOT
BRANCH   6  13
ATOM     13  C   UNL     1     102.203 123.835 148.269  0.00  0.00    +0.000 A 
ATOM     14  C   UNL     1     101.781 124.476 148.570  0.00  0.00    +0.000 A 
ATOM     15  C   UNL     1     102.055 123.074 148.553  0.00  0.00    +0.000 A 
ATOM     16  C   UNL     1     101.210 124.357 149.154  0.00  0.00    +0.000 A 
ATOM     17  C   UNL     1     101.485 122.955 149.136  0.00  0.00    +0.000 A 
ATOM     18  C   UNL     1     101.063 123.597 149.437  0.00  0.00    +0.000 A 
BRANCH  14  19
ATOM     19  O   UNL     1     101.928 125.237 148.287  0.00  0.00    +0.000 OA
ATOM     20  C   UNL     1     101.564 125.886 148.640  0.00  0.00    +0.000 C 
ENDBRANCH  14  19
ENDBRANCH   6  13
BRANCH   7  21
ATOM     21  O   UNL     1     101.869 123.451 146.699  0.00  0.00    +0.000 OA
ATOM     22  C   UNL     1     101.744 123.137 145.947  0.00  0.00    +0.000 C 
ENDBRANCH   7  21
BRANCH   9  23
ATOM     23  O   UNL     1     105.003 124.897 148.308  0.00  0.00    +0.000 OA
ATOM     24  C   UNL     1     105.567 124.467 148.731  0.00  0.00    +0.000 C 
ENDBRANCH   9  23
BRANCH  11  25
ATOM     25  O   UNL     1     106.179 125.146 147.121  0.00  0.00    +0.000 OA
ATOM     26  C   UNL     1     106.699 125.395 146.531  0.00  0.00    +0.000 C 
ENDBRANCH  11  25
TORSDOF 5
ENDMDL
