MODEL 1
REMARK VINA RESULT:     -10.1      0.000      0.000
REMARK  Name = 85228900
REMARK  10 active torsions:
REMARK  status: ('A' for Active; 'I' for Inactive)
REMARK    1  A    between atoms: O_3  and  C_23
REMARK    2  A    between atoms: O_3  and  C_34
REMARK    3  A    between atoms: O_4  and  C_24
REMARK    4  A    between atoms: O_4  and  C_35
REMARK    5  A    between atoms: O_14  and  C_42
REMARK    6  A    between atoms: C_21  and  C_30
REMARK    7  A    between atoms: C_22  and  C_32
REMARK    8  A    between atoms: C_25  and  C_31
REMARK    9  A    between atoms: C_33  and  C_38
REMARK   10  A    between atoms: C_38  and  C_43
REMARK                            x       y       z     vdW  Elec       q    Type
REMARK                         _______ _______ _______ _____ _____    ______ ____
ROOT
ATOM      1  O   UNL     1     111.188 128.729 135.794  0.00  0.00    +0.000 OA
ATOM      2  C   UNL     1     111.120 129.576 135.668  0.00  0.00    +0.000 C 
ATOM      3  C   UNL     1     111.828 130.064 135.683  0.00  0.00    +0.000 C 
ATOM      4  C   UNL     1     112.593 129.698 135.823  0.00  0.00    +0.000 C 
ATOM      5  C   UNL     1     112.640 128.850 135.946  0.00  0.00    +0.000 A 
ATOM      6  C   UNL     1     111.962 128.381 135.932  0.00  0.00    +0.000 A 
ATOM      7  C   UNL     1     112.019 127.566 136.052  0.00  0.00    +0.000 A 
ATOM      8  C   UNL     1     112.757 127.221 136.186  0.00  0.00    +0.000 A 
ATOM      9  C   UNL     1     113.377 128.503 136.080  0.00  0.00    +0.000 A 
ATOM     10  C   UNL     1     113.435 127.690 136.200  0.00  0.00    +0.000 A 
ENDROOT
BRANCH   2  11
ATOM     11  C   UNL     1     110.382 129.918 135.535  0.00  0.00    +0.000 A 
ATOM     12  C   UNL     1     109.876 130.069 136.168  0.00  0.00    +0.000 A 
ATOM     13  C   UNL     1     110.150 130.111 134.767  0.00  0.00    +0.000 A 
ATOM     14  C   UNL     1     109.138 130.411 136.034  0.00  0.00    +0.000 A 
ATOM     15  C   UNL     1     109.411 130.454 134.632  0.00  0.00    +0.000 A 
ATOM     16  C   UNL     1     108.906 130.604 135.267  0.00  0.00    +0.000 A 
BRANCH  16  17
ATOM     17  O   UNL     1     108.167 130.947 135.132  0.00  0.00    +0.000 OA
ATOM     18  C   UNL     1     108.116 131.722 134.855  0.00  0.00    +0.000 C 
ENDBRANCH  16  17
BRANCH  12  19
ATOM     19  O   UNL     1     110.108 129.876 136.936  0.00  0.00    +0.000 OA
BRANCH  19  28
ATOM     20  O   UNL     1     109.981 131.110 137.645  0.00  0.00    +0.000 OA
ATOM     21  O   UNL     1     108.596 129.983 139.359  0.00  0.00    +0.000 OA
ATOM     22  O   UNL     1     108.932 131.593 139.497  0.00  0.00    +0.000 OA
ATOM     23  O   UNL     1     109.184 129.125 138.079  0.00  0.00    +0.000 OA
ATOM     24  C   UNL     1     109.058 130.359 138.788  0.00  0.00    +0.000 C 
ATOM     25  C   UNL     1     109.225 131.163 138.857  0.00  0.00    +0.000 C 
ATOM     26  C   UNL     1     109.352 129.929 138.148  0.00  0.00    +0.000 C 
ATOM     27  C   UNL     1     109.687 131.538 138.286  0.00  0.00    +0.000 C 
ATOM     28  C   UNL     1     109.813 130.304 137.576  0.00  0.00    +0.000 C 
BRANCH  27  30
ATOM     29  O   UNL     1     110.592 132.632 138.121  0.00  0.00    +0.000 OA
ATOM     30  C   UNL     1     109.855 132.344 138.354  0.00  0.00    +0.000 C 
ENDBRANCH  27  30
ENDBRANCH  19  28
ENDBRANCH  12  19
ENDBRANCH   2  11
BRANCH   8  31
ATOM     31  O   UNL     1     112.815 126.407 136.306  0.00  0.00    +0.000 OA
BRANCH  31  40
ATOM     32  O   UNL     1     113.283 126.370 137.656  0.00  0.00    +0.000 OA
ATOM     33  O   UNL     1     114.995 124.700 137.015  0.00  0.00    +0.000 OA
ATOM     34  O   UNL     1     114.892 125.219 138.578  0.00  0.00    +0.000 OA
ATOM     35  O   UNL     1     113.956 125.294 135.879  0.00  0.00    +0.000 OA
ATOM     36  C   UNL     1     114.424 125.256 137.228  0.00  0.00    +0.000 C 
ATOM     37  C   UNL     1     114.373 125.516 138.010  0.00  0.00    +0.000 C 
ATOM     38  C   UNL     1     113.905 125.553 136.660  0.00  0.00    +0.000 C 
ATOM     39  C   UNL     1     113.803 126.072 138.223  0.00  0.00    +0.000 C 
ATOM     40  C   UNL     1     113.335 126.110 136.874  0.00  0.00    +0.000 C 
BRANCH  39  42
ATOM     41  O   UNL     1     113.016 126.399 139.371  0.00  0.00    +0.000 OA
ATOM     42  C   UNL     1     113.752 126.331 139.005  0.00  0.00    +0.000 C 
ENDBRANCH  39  42
ENDBRANCH  31  40
ENDBRANCH   8  31
BRANCH   7  43
ATOM     43  C   UNL     1     111.341 127.097 136.038  0.00  0.00    +0.000 C 
BRANCH  43  44
ATOM     44  C   UNL     1     111.103 126.737 135.335  0.00  0.00    +0.000 C 
ATOM     45  C   UNL     1     110.410 126.289 135.315  0.00  0.00    +0.000 C 
ATOM     46  C   UNL     1     110.172 125.929 134.612  0.00  0.00    +0.000 C 
ATOM     47  C   UNL     1     109.956 126.201 135.998  0.00  0.00    +0.000 C 
ENDBRANCH  43  44
ENDBRANCH   7  43
TORSDOF 10
ENDMDL
MODEL 2
REMARK VINA RESULT:     -10.1      1.210      5.559
REMARK  Name = 85228900
REMARK  10 active torsions:
REMARK  status: ('A' for Active; 'I' for Inactive)
REMARK    1  A    between atoms: O_3  and  C_23
REMARK    2  A    between atoms: O_3  and  C_34
REMARK    3  A    between atoms: O_4  and  C_24
REMARK    4  A    between atoms: O_4  and  C_35
REMARK    5  A    between atoms: O_14  and  C_42
REMARK    6  A    between atoms: C_21  and  C_30
REMARK    7  A    between atoms: C_22  and  C_32
REMARK    8  A    between atoms: C_25  and  C_31
REMARK    9  A    between atoms: C_33  and  C_38
REMARK   10  A    between atoms: C_38  and  C_43
REMARK                            x       y       z     vdW  Elec       q    Type
REMARK                         _______ _______ _______ _____ _____    ______ ____
ROOT
ATOM      1  O   UNL     1     112.212 127.824 136.619  0.00  0.00    +0.000 OA
ATOM      2  C   UNL     1     113.027 127.804 136.888  0.00  0.00    +0.000 C 
ATOM      3  C   UNL     1     113.478 128.536 136.926  0.00  0.00    +0.000 C 
ATOM      4  C   UNL     1     113.107 129.275 136.695  0.00  0.00    +0.000 C 
ATOM      5  C   UNL     1     112.290 129.274 136.429  0.00  0.00    +0.000 A 
ATOM      6  C   UNL     1     111.857 128.573 136.392  0.00  0.00    +0.000 A 
ATOM      7  C   UNL     1     111.073 128.584 136.135  0.00  0.00    +0.000 A 
ATOM      8  C   UNL     1     110.722 129.297 135.914  0.00  0.00    +0.000 A 
ATOM      9  C   UNL     1     111.938 129.987 136.207  0.00  0.00    +0.000 A 
ATOM     10  C   UNL     1     111.155 129.999 135.950  0.00  0.00    +0.000 A 
ENDROOT
BRANCH   2  11
ATOM     11  C   UNL     1     113.375 127.090 137.108  0.00  0.00    +0.000 A 
ATOM     12  C   UNL     1     113.239 126.778 137.860  0.00  0.00    +0.000 A 
ATOM     13  C   UNL     1     113.860 126.687 136.576  0.00  0.00    +0.000 A 
ATOM     14  C   UNL     1     113.588 126.064 138.080  0.00  0.00    +0.000 A 
ATOM     15  C   UNL     1     114.209 125.971 136.796  0.00  0.00    +0.000 A 
ATOM     16  C   UNL     1     114.072 125.661 137.548  0.00  0.00    +0.000 A 
BRANCH  16  17
ATOM     17  O   UNL     1     114.421 124.945 137.768  0.00  0.00    +0.000 OA
ATOM     18  C   UNL     1     114.647 124.401 137.191  0.00  0.00    +0.000 C 
ENDBRANCH  16  17
BRANCH  12  19
ATOM     19  O   UNL     1     112.755 127.182 138.392  0.00  0.00    +0.000 OA
BRANCH  19  28
ATOM     20  O   UNL     1     113.557 127.298 139.568  0.00  0.00    +0.000 OA
ATOM     21  O   UNL     1     111.734 126.297 140.911  0.00  0.00    +0.000 OA
ATOM     22  O   UNL     1     113.145 126.746 141.640  0.00  0.00    +0.000 OA
ATOM     23  O   UNL     1     111.539 126.515 139.287  0.00  0.00    +0.000 OA
ATOM     24  C   UNL     1     112.342 126.631 140.463  0.00  0.00    +0.000 C 
ATOM     25  C   UNL     1     113.047 126.855 140.828  0.00  0.00    +0.000 C 
ATOM     26  C   UNL     1     112.244 126.739 139.651  0.00  0.00    +0.000 C 
ATOM     27  C   UNL     1     113.654 127.188 140.380  0.00  0.00    +0.000 C 
ATOM     28  C   UNL     1     112.852 127.073 139.204  0.00  0.00    +0.000 C 
BRANCH  27  30
ATOM     29  O   UNL     1     114.665 128.169 140.620  0.00  0.00    +0.000 OA
ATOM     30  C   UNL     1     114.360 127.413 140.745  0.00  0.00    +0.000 C 
ENDBRANCH  27  30
ENDBRANCH  19  28
ENDBRANCH  12  19
ENDBRANCH   2  11
BRANCH   8  31
ATOM     31  O   UNL     1     109.939 129.309 135.656  0.00  0.00    +0.000 OA
BRANCH  31  40
ATOM     32  O   UNL     1     109.364 130.013 136.760  0.00  0.00    +0.000 OA
ATOM     33  O   UNL     1     107.962 131.321 135.194  0.00  0.00    +0.000 OA
ATOM     34  O   UNL     1     107.854 131.588 136.819  0.00  0.00    +0.000 OA
ATOM     35  O   UNL     1     109.004 130.182 134.613  0.00  0.00    +0.000 OA
ATOM     36  C   UNL     1     108.429 130.885 135.716  0.00  0.00    +0.000 C 
ATOM     37  C   UNL     1     108.376 131.018 136.528  0.00  0.00    +0.000 C 
ATOM     38  C   UNL     1     108.950 130.315 135.425  0.00  0.00    +0.000 C 
ATOM     39  C   UNL     1     108.843 130.582 137.050  0.00  0.00    +0.000 C 
ATOM     40  C   UNL     1     109.418 129.879 135.947  0.00  0.00    +0.000 C 
BRANCH  39  42
ATOM     41  O   UNL     1     108.709 130.081 138.382  0.00  0.00    +0.000 OA
ATOM     42  C   UNL     1     108.789 130.717 137.862  0.00  0.00    +0.000 C 
ENDBRANCH  39  42
ENDBRANCH  31  40
ENDBRANCH   8  31
BRANCH   7  43
ATOM     43  C   UNL     1     110.640 127.883 136.098  0.00  0.00    +0.000 C 
BRANCH  43  44
ATOM     44  C   UNL     1     110.619 127.447 135.398  0.00  0.00    +0.000 C 
ATOM     45  C   UNL     1     110.215 126.728 135.371  0.00  0.00    +0.000 C 
ATOM     46  C   UNL     1     110.194 126.293 134.671  0.00  0.00    +0.000 C 
ATOM     47  C   UNL     1     109.833 126.445 136.045  0.00  0.00    +0.000 C 
ENDBRANCH  43  44
ENDBRANCH   7  43
TORSDOF 10
ENDMDL
MODEL 3
REMARK VINA RESULT:      -9.7      1.691      5.899
REMARK  Name = 85228900
REMARK  10 active torsions:
REMARK  status: ('A' for Active; 'I' for Inactive)
REMARK    1  A    between atoms: O_3  and  C_23
REMARK    2  A    between atoms: O_3  and  C_34
REMARK    3  A    between atoms: O_4  and  C_24
REMARK    4  A    between atoms: O_4  and  C_35
REMARK    5  A    between atoms: O_14  and  C_42
REMARK    6  A    between atoms: C_21  and  C_30
REMARK    7  A    between atoms: C_22  and  C_32
REMARK    8  A    between atoms: C_25  and  C_31
REMARK    9  A    between atoms: C_33  and  C_38
REMARK   10  A    between atoms: C_38  and  C_43
REMARK                            x       y       z     vdW  Elec       q    Type
REMARK                         _______ _______ _______ _____ _____    ______ ____
ROOT
ATOM      1  O   UNL     1     112.513 128.405 137.104  0.00  0.00    +0.000 OA
ATOM      2  C   UNL     1     112.324 127.571 137.022  0.00  0.00    +0.000 C 
ATOM      3  C   UNL     1     111.546 127.340 136.737  0.00  0.00    +0.000 C 
ATOM      4  C   UNL     1     110.970 127.945 136.538  0.00  0.00    +0.000 C 
ATOM      5  C   UNL     1     111.178 128.773 136.627  0.00  0.00    +0.000 A 
ATOM      6  C   UNL     1     111.923 128.996 136.901  0.00  0.00    +0.000 A 
ATOM      7  C   UNL     1     112.112 129.796 136.982  0.00  0.00    +0.000 A 
ATOM      8  C   UNL     1     111.554 130.372 136.789  0.00  0.00    +0.000 A 
ATOM      9  C   UNL     1     110.620 129.351 136.434  0.00  0.00    +0.000 A 
ATOM     10  C   UNL     1     110.808 130.149 136.516  0.00  0.00    +0.000 A 
ENDROOT
BRANCH   2  11
ATOM     11  C   UNL     1     112.883 126.997 137.215  0.00  0.00    +0.000 A 
ATOM     12  C   UNL     1     112.905 126.682 137.978  0.00  0.00    +0.000 A 
ATOM     13  C   UNL     1     113.421 126.737 136.646  0.00  0.00    +0.000 A 
ATOM     14  C   UNL     1     113.465 126.108 138.171  0.00  0.00    +0.000 A 
ATOM     15  C   UNL     1     113.981 126.162 136.839  0.00  0.00    +0.000 A 
ATOM     16  C   UNL     1     114.003 125.848 137.601  0.00  0.00    +0.000 A 
BRANCH  16  17
ATOM     17  O   UNL     1     114.563 125.273 137.795  0.00  0.00    +0.000 OA
ATOM     18  C   UNL     1     114.667 124.618 137.305  0.00  0.00    +0.000 C 
ENDBRANCH  16  17
BRANCH  12  19
ATOM     19  O   UNL     1     112.368 126.942 138.547  0.00  0.00    +0.000 OA
BRANCH  19  28
ATOM     20  O   UNL     1     113.245 127.381 139.586  0.00  0.00    +0.000 OA
ATOM     21  O   UNL     1     111.904 126.129 141.247  0.00  0.00    +0.000 OA
ATOM     22  O   UNL     1     113.228 126.986 141.732  0.00  0.00    +0.000 OA
ATOM     23  O   UNL     1     111.474 126.106 139.654  0.00  0.00    +0.000 OA
ATOM     24  C   UNL     1     112.351 126.546 140.693  0.00  0.00    +0.000 C 
ATOM     25  C   UNL     1     113.012 126.975 140.936  0.00  0.00    +0.000 C 
ATOM     26  C   UNL     1     112.135 126.535 139.897  0.00  0.00    +0.000 C 
ATOM     27  C   UNL     1     113.459 127.392 140.382  0.00  0.00    +0.000 C 
ATOM     28  C   UNL     1     112.582 126.952 139.343  0.00  0.00    +0.000 C 
BRANCH  27  30
ATOM     29  O   UNL     1     114.175 128.627 140.455  0.00  0.00    +0.000 OA
ATOM     30  C   UNL     1     114.121 127.821 140.625  0.00  0.00    +0.000 C 
ENDBRANCH  27  30
ENDBRANCH  19  28
ENDBRANCH  12  19
ENDBRANCH   2  11
BRANCH   8  31
ATOM     31  O   UNL     1     111.742 131.171 136.871  0.00  0.00    +0.000 OA
BRANCH  31  40
ATOM     32  O   UNL     1     110.886 131.472 137.975  0.00  0.00    +0.000 OA
ATOM     33  O   UNL     1     110.297 133.637 136.928  0.00  0.00    +0.000 OA
ATOM     34  O   UNL     1     109.638 133.216 138.381  0.00  0.00    +0.000 OA
ATOM     35  O   UNL     1     111.350 132.615 136.173  0.00  0.00    +0.000 OA
ATOM     36  C   UNL     1     110.494 132.915 137.277  0.00  0.00    +0.000 C 
ATOM     37  C   UNL     1     110.164 132.705 138.003  0.00  0.00    +0.000 C 
ATOM     38  C   UNL     1     111.020 132.404 136.899  0.00  0.00    +0.000 C 
ATOM     39  C   UNL     1     110.360 131.983 138.351  0.00  0.00    +0.000 C 
ATOM     40  C   UNL     1     111.216 131.682 137.248  0.00  0.00    +0.000 C 
BRANCH  39  42
ATOM     41  O   UNL     1     110.518 131.570 139.711  0.00  0.00    +0.000 OA
ATOM     42  C   UNL     1     110.030 131.774 139.078  0.00  0.00    +0.000 C 
ENDBRANCH  39  42
ENDBRANCH  31  40
ENDBRANCH   8  31
BRANCH   7  43
ATOM     43  C   UNL     1     112.858 130.018 137.256  0.00  0.00    +0.000 C 
BRANCH  43  44
ATOM     44  C   UNL     1     113.467 130.167 136.719  0.00  0.00    +0.000 C 
ATOM     45  C   UNL     1     114.208 130.405 136.992  0.00  0.00    +0.000 C 
ATOM     46  C   UNL     1     114.817 130.553 136.456  0.00  0.00    +0.000 C 
ATOM     47  C   UNL     1     114.340 130.495 137.802  0.00  0.00    +0.000 C 
ENDBRANCH  43  44
ENDBRANCH   7  43
TORSDOF 10
ENDMDL
MODEL 4
REMARK VINA RESULT:      -9.5      1.393      5.720
REMARK  Name = 85228900
REMARK  10 active torsions:
REMARK  status: ('A' for Active; 'I' for Inactive)
REMARK    1  A    between atoms: O_3  and  C_23
REMARK    2  A    between atoms: O_3  and  C_34
REMARK    3  A    between atoms: O_4  and  C_24
REMARK    4  A    between atoms: O_4  and  C_35
REMARK    5  A    between atoms: O_14  and  C_42
REMARK    6  A    between atoms: C_21  and  C_30
REMARK    7  A    between atoms: C_22  and  C_32
REMARK    8  A    between atoms: C_25  and  C_31
REMARK    9  A    between atoms: C_33  and  C_38
REMARK   10  A    between atoms: C_38  and  C_43
REMARK                            x       y       z     vdW  Elec       q    Type
REMARK                         _______ _______ _______ _____ _____    ______ ____
ROOT
ATOM      1  O   UNL     1     111.223 127.302 136.497  0.00  0.00    +0.000 OA
ATOM      2  C   UNL     1     111.181 126.468 136.697  0.00  0.00    +0.000 C 
ATOM      3  C   UNL     1     110.423 126.062 136.660  0.00  0.00    +0.000 C 
ATOM      4  C   UNL     1     109.721 126.495 136.422  0.00  0.00    +0.000 C 
ATOM      5  C   UNL     1     109.784 127.329 136.226  0.00  0.00    +0.000 A 
ATOM      6  C   UNL     1     110.510 127.719 136.262  0.00  0.00    +0.000 A 
ATOM      7  C   UNL     1     110.559 128.521 136.070  0.00  0.00    +0.000 A 
ATOM      8  C   UNL     1     109.880 128.931 135.843  0.00  0.00    +0.000 A 
ATOM      9  C   UNL     1     109.106 127.741 135.998  0.00  0.00    +0.000 A 
ATOM     10  C   UNL     1     109.154 128.541 135.807  0.00  0.00    +0.000 A 
ENDROOT
BRANCH   2  11
ATOM     11  C   UNL     1     111.860 126.059 136.924  0.00  0.00    +0.000 A 
ATOM     12  C   UNL     1     112.066 126.011 137.721  0.00  0.00    +0.000 A 
ATOM     13  C   UNL     1     112.334 125.698 136.353  0.00  0.00    +0.000 A 
ATOM     14  C   UNL     1     112.746 125.603 137.948  0.00  0.00    +0.000 A 
ATOM     15  C   UNL     1     113.014 125.289 136.580  0.00  0.00    +0.000 A 
ATOM     16  C   UNL     1     113.219 125.242 137.377  0.00  0.00    +0.000 A 
BRANCH  16  17
ATOM     17  O   UNL     1     113.900 124.833 137.604  0.00  0.00    +0.000 OA
ATOM     18  C   UNL     1     114.592 124.904 137.160  0.00  0.00    +0.000 C 
ENDBRANCH  16  17
BRANCH  12  19
ATOM     19  O   UNL     1     111.592 126.372 138.292  0.00  0.00    +0.000 OA
BRANCH  19  28
ATOM     20  O   UNL     1     112.538 127.168 139.009  0.00  0.00    +0.000 OA
ATOM     21  O   UNL     1     111.682 126.260 141.147  0.00  0.00    +0.000 OA
ATOM     22  O   UNL     1     112.913 127.359 141.151  0.00  0.00    +0.000 OA
ATOM     23  O   UNL     1     111.022 125.766 139.717  0.00  0.00    +0.000 OA
ATOM     24  C   UNL     1     111.967 126.563 140.434  0.00  0.00    +0.000 C 
ATOM     25  C   UNL     1     112.582 127.112 140.437  0.00  0.00    +0.000 C 
ATOM     26  C   UNL     1     111.637 126.316 139.720  0.00  0.00    +0.000 C 
ATOM     27  C   UNL     1     112.867 127.415 139.724  0.00  0.00    +0.000 C 
ATOM     28  C   UNL     1     111.922 126.618 139.007  0.00  0.00    +0.000 C 
BRANCH  27  30
ATOM     29  O   UNL     1     113.426 128.649 139.269  0.00  0.00    +0.000 OA
ATOM     30  C   UNL     1     113.483 127.965 139.726  0.00  0.00    +0.000 C 
ENDBRANCH  27  30
ENDBRANCH  19  28
ENDBRANCH  12  19
ENDBRANCH   2  11
BRANCH   8  31
ATOM     31  O   UNL     1     109.928 129.733 135.652  0.00  0.00    +0.000 OA
BRANCH  31  40
ATOM     32  O   UNL     1     109.285 130.363 136.762  0.00  0.00    +0.000 OA
ATOM     33  O   UNL     1     107.852 131.645 135.203  0.00  0.00    +0.000 OA
ATOM     34  O   UNL     1     107.687 131.848 136.833  0.00  0.00    +0.000 OA
ATOM     35  O   UNL     1     108.972 130.587 134.612  0.00  0.00    +0.000 OA
ATOM     36  C   UNL     1     108.330 131.218 135.722  0.00  0.00    +0.000 C 
ATOM     37  C   UNL     1     108.247 131.319 136.537  0.00  0.00    +0.000 C 
ATOM     38  C   UNL     1     108.890 130.689 135.427  0.00  0.00    +0.000 C 
ATOM     39  C   UNL     1     108.725 130.891 137.056  0.00  0.00    +0.000 C 
ATOM     40  C   UNL     1     109.368 130.261 135.947  0.00  0.00    +0.000 C 
BRANCH  39  42
ATOM     41  O   UNL     1     108.651 130.338 138.372  0.00  0.00    +0.000 OA
ATOM     42  C   UNL     1     108.642 130.993 137.871  0.00  0.00    +0.000 C 
ENDBRANCH  39  42
ENDBRANCH  31  40
ENDBRANCH   8  31
BRANCH   7  43
ATOM     43  C   UNL     1     111.285 128.911 136.106  0.00  0.00    +0.000 C 
BRANCH  43  44
ATOM     44  C   UNL     1     111.766 128.949 135.437  0.00  0.00    +0.000 C 
ATOM     45  C   UNL     1     112.503 129.316 135.480  0.00  0.00    +0.000 C 
ATOM     46  C   UNL     1     112.984 129.354 134.811  0.00  0.00    +0.000 C 
ATOM     47  C   UNL     1     112.760 129.644 136.192  0.00  0.00    +0.000 C 
ENDBRANCH  43  44
ENDBRANCH   7  43
TORSDOF 10
ENDMDL
MODEL 5
REMARK VINA RESULT:      -9.4      6.854      9.487
REMARK  Name = 85228900
REMARK  10 active torsions:
REMARK  status: ('A' for Active; 'I' for Inactive)
REMARK    1  A    between atoms: O_3  and  C_23
REMARK    2  A    between atoms: O_3  and  C_34
REMARK    3  A    between atoms: O_4  and  C_24
REMARK    4  A    between atoms: O_4  and  C_35
REMARK    5  A    between atoms: O_14  and  C_42
REMARK    6  A    between atoms: C_21  and  C_30
REMARK    7  A    between atoms: C_22  and  C_32
REMARK    8  A    between atoms: C_25  and  C_31
REMARK    9  A    between atoms: C_33  and  C_38
REMARK   10  A    between atoms: C_38  and  C_43
REMARK                            x       y       z     vdW  Elec       q    Type
REMARK                         _______ _______ _______ _____ _____    ______ ____
ROOT
ATOM      1  O   UNL     1     103.306 130.454 142.242  0.00  0.00    +0.000 OA
ATOM      2  C   UNL     1     102.709 130.607 141.644  0.00  0.00    +0.000 C 
ATOM      3  C   UNL     1     102.580 130.031 141.018  0.00  0.00    +0.000 C 
ATOM      4  C   UNL     1     103.050 129.312 140.999  0.00  0.00    +0.000 C 
ATOM      5  C   UNL     1     103.642 129.178 141.606  0.00  0.00    +0.000 A 
ATOM      6  C   UNL     1     103.766 129.729 142.207  0.00  0.00    +0.000 A 
ATOM      7  C   UNL     1     104.338 129.589 142.785  0.00  0.00    +0.000 A 
ATOM      8  C   UNL     1     104.786 128.896 142.762  0.00  0.00    +0.000 A 
ATOM      9  C   UNL     1     104.091 128.485 141.584  0.00  0.00    +0.000 A 
ATOM     10  C   UNL     1     104.662 128.345 142.161  0.00  0.00    +0.000 A 
ENDROOT
BRANCH   2  11
ATOM     11  C   UNL     1     102.262 131.299 141.669  0.00  0.00    +0.000 A 
ATOM     12  C   UNL     1     102.542 131.985 141.305  0.00  0.00    +0.000 A 
ATOM     13  C   UNL     1     101.535 131.307 142.059  0.00  0.00    +0.000 A 
ATOM     14  C   UNL     1     102.096 132.677 141.331  0.00  0.00    +0.000 A 
ATOM     15  C   UNL     1     101.088 132.001 142.085  0.00  0.00    +0.000 A 
ATOM     16  C   UNL     1     101.369 132.685 141.721  0.00  0.00    +0.000 A 
BRANCH  16  17
ATOM     17  O   UNL     1     100.921 133.379 141.747  0.00  0.00    +0.000 OA
ATOM     18  C   UNL     1     100.710 133.707 142.474  0.00  0.00    +0.000 C 
ENDBRANCH  16  17
BRANCH  12  19
ATOM     19  O   UNL     1     103.269 131.977 140.916  0.00  0.00    +0.000 OA
BRANCH  19  28
ATOM     20  O   UNL     1     103.896 133.163 141.409  0.00  0.00    +0.000 OA
ATOM     21  O   UNL     1     104.420 133.850 139.089  0.00  0.00    +0.000 OA
ATOM     22  O   UNL     1     104.873 134.806 140.355  0.00  0.00    +0.000 OA
ATOM     23  O   UNL     1     103.618 132.435 139.369  0.00  0.00    +0.000 OA
ATOM     24  C   UNL     1     104.246 133.621 139.862  0.00  0.00    +0.000 C 
ATOM     25  C   UNL     1     104.472 134.099 140.495  0.00  0.00    +0.000 C 
ATOM     26  C   UNL     1     103.845 132.913 140.002  0.00  0.00    +0.000 C 
ATOM     27  C   UNL     1     104.297 133.870 141.268  0.00  0.00    +0.000 C 
ATOM     28  C   UNL     1     103.670 132.684 140.775  0.00  0.00    +0.000 C 
BRANCH  27  30
ATOM     29  O   UNL     1     105.064 134.067 142.458  0.00  0.00    +0.000 OA
ATOM     30  C   UNL     1     104.524 134.348 141.901  0.00  0.00    +0.000 C 
ENDBRANCH  27  30
ENDBRANCH  19  28
ENDBRANCH  12  19
ENDBRANCH   2  11
BRANCH   8  31
ATOM     31  O   UNL     1     105.358 128.755 143.339  0.00  0.00    +0.000 OA
BRANCH  31  40
ATOM     32  O   UNL     1     106.559 128.667 142.570  0.00  0.00    +0.000 OA
ATOM     33  O   UNL     1     107.127 126.540 143.701  0.00  0.00    +0.000 OA
ATOM     34  O   UNL     1     108.138 127.160 142.554  0.00  0.00    +0.000 OA
ATOM     35  O   UNL     1     105.737 127.337 144.094  0.00  0.00    +0.000 OA
ATOM     36  C   UNL     1     106.937 127.249 143.324  0.00  0.00    +0.000 C 
ATOM     37  C   UNL     1     107.443 127.559 142.751  0.00  0.00    +0.000 C 
ATOM     38  C   UNL     1     106.242 127.647 143.521  0.00  0.00    +0.000 C 
ATOM     39  C   UNL     1     107.253 128.268 142.374  0.00  0.00    +0.000 C 
ATOM     40  C   UNL     1     106.053 128.357 143.143  0.00  0.00    +0.000 C 
BRANCH  39  42
ATOM     41  O   UNL     1     107.928 129.385 141.791  0.00  0.00    +0.000 OA
ATOM     42  C   UNL     1     107.760 128.578 141.801  0.00  0.00    +0.000 C 
ENDBRANCH  39  42
ENDBRANCH  31  40
ENDBRANCH   8  31
BRANCH   7  43
ATOM     43  C   UNL     1     104.462 130.140 143.386  0.00  0.00    +0.000 C 
BRANCH  43  44
ATOM     44  C   UNL     1     104.055 130.071 144.100  0.00  0.00    +0.000 C 
ATOM     45  C   UNL     1     104.148 130.644 144.686  0.00  0.00    +0.000 C 
ATOM     46  C   UNL     1     103.741 130.575 145.400  0.00  0.00    +0.000 C 
ATOM     47  C   UNL     1     104.648 131.288 144.557  0.00  0.00    +0.000 C 
ENDBRANCH  43  44
ENDBRANCH   7  43
TORSDOF 10
ENDMDL
MODEL 6
REMARK VINA RESULT:      -9.3      3.044      4.765
REMARK  Name = 85228900
REMARK  10 active torsions:
REMARK  status: ('A' for Active; 'I' for Inactive)
REMARK    1  A    between atoms: O_3  and  C_23
REMARK    2  A    between atoms: O_3  and  C_34
REMARK    3  A    between atoms: O_4  and  C_24
REMARK    4  A    between atoms: O_4  and  C_35
REMARK    5  A    between atoms: O_14  and  C_42
REMARK    6  A    between atoms: C_21  and  C_30
REMARK    7  A    between atoms: C_22  and  C_32
REMARK    8  A    between atoms: C_25  and  C_31
REMARK    9  A    between atoms: C_33  and  C_38
REMARK   10  A    between atoms: C_38  and  C_43
REMARK                            x       y       z     vdW  Elec       q    Type
REMARK                         _______ _______ _______ _____ _____    ______ ____
ROOT
ATOM      1  O   UNL     1     113.288 128.325 139.562  0.00  0.00    +0.000 OA
ATOM      2  C   UNL     1     113.470 128.499 140.383  0.00  0.00    +0.000 C 
ATOM      3  C   UNL     1     113.293 127.914 140.989  0.00  0.00    +0.000 C 
ATOM      4  C   UNL     1     112.938 127.165 140.764  0.00  0.00    +0.000 C 
ATOM      5  C   UNL     1     112.764 127.010 139.938  0.00  0.00    +0.000 A 
ATOM      6  C   UNL     1     112.933 127.570 139.357  0.00  0.00    +0.000 A 
ATOM      7  C   UNL     1     112.761 127.409 138.565  0.00  0.00    +0.000 A 
ATOM      8  C   UNL     1     112.420 126.688 138.356  0.00  0.00    +0.000 A 
ATOM      9  C   UNL     1     112.422 126.288 139.728  0.00  0.00    +0.000 A 
ATOM     10  C   UNL     1     112.250 126.127 138.938  0.00  0.00    +0.000 A 
ENDROOT
BRANCH   2  11
ATOM     11  C   UNL     1     113.811 129.221 140.589  0.00  0.00    +0.000 A 
ATOM     12  C   UNL     1     113.333 129.853 140.820  0.00  0.00    +0.000 A 
ATOM     13  C   UNL     1     114.630 129.311 140.565  0.00  0.00    +0.000 A 
ATOM     14  C   UNL     1     113.674 130.574 141.026  0.00  0.00    +0.000 A 
ATOM     15  C   UNL     1     114.972 130.034 140.772  0.00  0.00    +0.000 A 
ATOM     16  C   UNL     1     114.494 130.665 141.002  0.00  0.00    +0.000 A 
BRANCH  16  17
ATOM     17  O   UNL     1     114.835 131.388 141.208  0.00  0.00    +0.000 OA
ATOM     18  C   UNL     1     115.625 131.538 141.024  0.00  0.00    +0.000 C 
ENDBRANCH  16  17
BRANCH  12  19
ATOM     19  O   UNL     1     112.513 129.762 140.843  0.00  0.00    +0.000 OA
BRANCH  19  28
ATOM     20  O   UNL     1     112.173 130.184 142.166  0.00  0.00    +0.000 OA
ATOM     21  O   UNL     1     110.479 131.731 141.236  0.00  0.00    +0.000 OA
ATOM     22  O   UNL     1     110.703 131.637 142.868  0.00  0.00    +0.000 OA
ATOM     23  O   UNL     1     111.384 130.793 140.224  0.00  0.00    +0.000 OA
ATOM     24  C   UNL     1     111.044 131.215 141.546  0.00  0.00    +0.000 C 
ATOM     25  C   UNL     1     111.156 131.169 142.361  0.00  0.00    +0.000 C 
ATOM     26  C   UNL     1     111.496 130.747 141.039  0.00  0.00    +0.000 C 
ATOM     27  C   UNL     1     111.720 130.653 142.671  0.00  0.00    +0.000 C 
ATOM     28  C   UNL     1     112.061 130.231 141.349  0.00  0.00    +0.000 C 
BRANCH  27  30
ATOM     29  O   UNL     1     111.896 129.869 143.853  0.00  0.00    +0.000 OA
ATOM     30  C   UNL     1     111.832 130.606 143.488  0.00  0.00    +0.000 C 
ENDBRANCH  27  30
ENDBRANCH  19  28
ENDBRANCH  12  19
ENDBRANCH   2  11
BRANCH   8  31
ATOM     31  O   UNL     1     112.247 126.526 137.566  0.00  0.00    +0.000 OA
BRANCH  31  40
ATOM     32  O   UNL     1     113.182 125.474 137.318  0.00  0.00    +0.000 OA
ATOM     33  O   UNL     1     111.419 124.181 136.159  0.00  0.00    +0.000 OA
ATOM     34  O   UNL     1     112.942 123.560 136.298  0.00  0.00    +0.000 OA
ATOM     35  O   UNL     1     111.071 125.664 136.793  0.00  0.00    +0.000 OA
ATOM     36  C   UNL     1     112.006 124.612 136.545  0.00  0.00    +0.000 C 
ATOM     37  C   UNL     1     112.768 124.302 136.615  0.00  0.00    +0.000 C 
ATOM     38  C   UNL     1     111.833 125.354 136.862  0.00  0.00    +0.000 C 
ATOM     39  C   UNL     1     113.355 124.733 137.001  0.00  0.00    +0.000 C 
ATOM     40  C   UNL     1     112.421 125.785 137.249  0.00  0.00    +0.000 C 
BRANCH  39  42
ATOM     41  O   UNL     1     114.771 124.923 137.049  0.00  0.00    +0.000 OA
ATOM     42  C   UNL     1     114.116 124.422 137.070  0.00  0.00    +0.000 C 
ENDBRANCH  39  42
ENDBRANCH  31  40
ENDBRANCH   8  31
BRANCH   7  43
ATOM     43  C   UNL     1     112.930 127.969 137.984  0.00  0.00    +0.000 C 
BRANCH  43  44
ATOM     44  C   UNL     1     112.346 128.498 137.738  0.00  0.00    +0.000 C 
ATOM     45  C   UNL     1     112.525 129.082 137.183  0.00  0.00    +0.000 C 
ATOM     46  C   UNL     1     111.942 129.610 136.937  0.00  0.00    +0.000 C 
ATOM     47  C   UNL     1     113.288 129.137 136.874  0.00  0.00    +0.000 C 
ENDBRANCH  43  44
ENDBRANCH   7  43
TORSDOF 10
ENDMDL
MODEL 7
REMARK VINA RESULT:      -9.3      1.457      2.900
REMARK  Name = 85228900
REMARK  10 active torsions:
REMARK  status: ('A' for Active; 'I' for Inactive)
REMARK    1  A    between atoms: O_3  and  C_23
REMARK    2  A    between atoms: O_3  and  C_34
REMARK    3  A    between atoms: O_4  and  C_24
REMARK    4  A    between atoms: O_4  and  C_35
REMARK    5  A    between atoms: O_14  and  C_42
REMARK    6  A    between atoms: C_21  and  C_30
REMARK    7  A    between atoms: C_22  and  C_32
REMARK    8  A    between atoms: C_25  and  C_31
REMARK    9  A    between atoms: C_33  and  C_38
REMARK   10  A    between atoms: C_38  and  C_43
REMARK                            x       y       z     vdW  Elec       q    Type
REMARK                         _______ _______ _______ _____ _____    ______ ____
ROOT
ATOM      1  O   UNL     1     112.694 129.261 136.998  0.00  0.00    +0.000 OA
ATOM      2  C   UNL     1     112.692 129.923 136.451  0.00  0.00    +0.000 C 
ATOM      3  C   UNL     1     113.116 129.856 135.706  0.00  0.00    +0.000 C 
ATOM      4  C   UNL     1     113.536 129.130 135.519  0.00  0.00    +0.000 C 
ATOM      5  C   UNL     1     113.525 128.479 136.080  0.00  0.00    +0.000 A 
ATOM      6  C   UNL     1     113.119 128.542 136.795  0.00  0.00    +0.000 A 
ATOM      7  C   UNL     1     113.116 127.910 137.326  0.00  0.00    +0.000 A 
ATOM      8  C   UNL     1     113.520 127.215 137.141  0.00  0.00    +0.000 A 
ATOM      9  C   UNL     1     113.929 127.783 135.896  0.00  0.00    +0.000 A 
ATOM     10  C   UNL     1     113.927 127.152 136.426  0.00  0.00    +0.000 A 
ENDROOT
BRANCH   2  11
ATOM     11  C   UNL     1     112.288 130.616 136.638  0.00  0.00    +0.000 A 
ATOM     12  C   UNL     1     111.505 130.716 136.395  0.00  0.00    +0.000 A 
ATOM     13  C   UNL     1     112.665 131.210 137.068  0.00  0.00    +0.000 A 
ATOM     14  C   UNL     1     111.100 131.409 136.582  0.00  0.00    +0.000 A 
ATOM     15  C   UNL     1     112.260 131.905 137.255  0.00  0.00    +0.000 A 
ATOM     16  C   UNL     1     111.478 132.004 137.012  0.00  0.00    +0.000 A 
BRANCH  16  17
ATOM     17  O   UNL     1     111.073 132.698 137.200  0.00  0.00    +0.000 OA
ATOM     18  C   UNL     1     111.003 133.300 136.640  0.00  0.00    +0.000 C 
ENDBRANCH  16  17
BRANCH  12  19
ATOM     19  O   UNL     1     111.128 130.122 135.965  0.00  0.00    +0.000 OA
BRANCH  19  28
ATOM     20  O   UNL     1     109.968 129.868 136.761  0.00  0.00    +0.000 OA
ATOM     21  O   UNL     1     108.547 130.036 134.741  0.00  0.00    +0.000 OA
ATOM     22  O   UNL     1     107.861 129.727 136.210  0.00  0.00    +0.000 OA
ATOM     23  O   UNL     1     110.180 130.233 134.619  0.00  0.00    +0.000 OA
ATOM     24  C   UNL     1     109.021 129.980 135.414  0.00  0.00    +0.000 C 
ATOM     25  C   UNL     1     108.678 129.826 136.148  0.00  0.00    +0.000 C 
ATOM     26  C   UNL     1     109.837 130.079 135.353  0.00  0.00    +0.000 C 
ATOM     27  C   UNL     1     109.151 129.770 136.821  0.00  0.00    +0.000 C 
ATOM     28  C   UNL     1     110.311 130.023 136.026  0.00  0.00    +0.000 C 
BRANCH  27  30
ATOM     29  O   UNL     1     109.171 129.089 138.078  0.00  0.00    +0.000 OA
ATOM     30  C   UNL     1     108.808 129.615 137.556  0.00  0.00    +0.000 C 
ENDBRANCH  27  30
ENDBRANCH  19  28
ENDBRANCH  12  19
ENDBRANCH   2  11
BRANCH   8  31
ATOM     31  O   UNL     1     113.518 126.583 137.671  0.00  0.00    +0.000 OA
BRANCH  31  40
ATOM     32  O   UNL     1     112.674 125.648 136.996  0.00  0.00    +0.000 OA
ATOM     33  O   UNL     1     114.339 123.860 137.393  0.00  0.00    +0.000 OA
ATOM     34  O   UNL     1     112.941 123.521 136.586  0.00  0.00    +0.000 OA
ATOM     35  O   UNL     1     114.628 125.391 137.936  0.00  0.00    +0.000 OA
ATOM     36  C   UNL     1     113.784 124.456 137.261  0.00  0.00    +0.000 C 
ATOM     37  C   UNL     1     113.085 124.286 136.857  0.00  0.00    +0.000 C 
ATOM     38  C   UNL     1     113.929 125.222 137.532  0.00  0.00    +0.000 C 
ATOM     39  C   UNL     1     112.531 124.882 136.725  0.00  0.00    +0.000 C 
ATOM     40  C   UNL     1     113.373 125.817 137.400  0.00  0.00    +0.000 C 
BRANCH  39  42
ATOM     41  O   UNL     1     111.123 125.063 136.555  0.00  0.00    +0.000 OA
ATOM     42  C   UNL     1     111.832 124.712 136.321  0.00  0.00    +0.000 C 
ENDBRANCH  39  42
ENDBRANCH  31  40
ENDBRANCH   8  31
BRANCH   7  43
ATOM     43  C   UNL     1     112.709 127.973 138.041  0.00  0.00    +0.000 C 
BRANCH  43  44
ATOM     44  C   UNL     1     113.103 128.232 138.718  0.00  0.00    +0.000 C 
ATOM     45  C   UNL     1     112.693 128.309 139.430  0.00  0.00    +0.000 C 
ATOM     46  C   UNL     1     113.087 128.568 140.107  0.00  0.00    +0.000 C 
ATOM     47  C   UNL     1     111.889 128.127 139.464  0.00  0.00    +0.000 C 
ENDBRANCH  43  44
ENDBRANCH   7  43
TORSDOF 10
ENDMDL
MODEL 8
REMARK VINA RESULT:      -9.2      3.037      6.127
REMARK  Name = 85228900
REMARK  10 active torsions:
REMARK  status: ('A' for Active; 'I' for Inactive)
REMARK    1  A    between atoms: O_3  and  C_23
REMARK    2  A    between atoms: O_3  and  C_34
REMARK    3  A    between atoms: O_4  and  C_24
REMARK    4  A    between atoms: O_4  and  C_35
REMARK    5  A    between atoms: O_14  and  C_42
REMARK    6  A    between atoms: C_21  and  C_30
REMARK    7  A    between atoms: C_22  and  C_32
REMARK    8  A    between atoms: C_25  and  C_31
REMARK    9  A    between atoms: C_33  and  C_38
REMARK   10  A    between atoms: C_38  and  C_43
REMARK                            x       y       z     vdW  Elec       q    Type
REMARK                         _______ _______ _______ _____ _____    ______ ____
ROOT
ATOM      1  O   UNL     1     112.664 128.761 138.946  0.00  0.00    +0.000 OA
ATOM      2  C   UNL     1     112.344 128.864 138.155  0.00  0.00    +0.000 C 
ATOM      3  C   UNL     1     111.506 129.030 138.056  0.00  0.00    +0.000 C 
ATOM      4  C   UNL     1     111.000 129.090 138.748  0.00  0.00    +0.000 C 
ATOM      5  C   UNL     1     111.339 128.983 139.530  0.00  0.00    +0.000 A 
ATOM      6  C   UNL     1     112.143 128.824 139.626  0.00  0.00    +0.000 A 
ATOM      7  C   UNL     1     112.457 128.724 140.383  0.00  0.00    +0.000 A 
ATOM      8  C   UNL     1     111.966 128.783 141.043  0.00  0.00    +0.000 A 
ATOM      9  C   UNL     1     110.849 129.042 140.192  0.00  0.00    +0.000 A 
ATOM     10  C   UNL     1     111.162 128.942 140.947  0.00  0.00    +0.000 A 
ENDROOT
BRANCH   2  11
ATOM     11  C   UNL     1     112.836 128.805 137.497  0.00  0.00    +0.000 A 
ATOM     12  C   UNL     1     112.886 128.094 137.080  0.00  0.00    +0.000 A 
ATOM     13  C   UNL     1     113.280 129.457 137.254  0.00  0.00    +0.000 A 
ATOM     14  C   UNL     1     113.378 128.035 136.422  0.00  0.00    +0.000 A 
ATOM     15  C   UNL     1     113.774 129.398 136.594  0.00  0.00    +0.000 A 
ATOM     16  C   UNL     1     113.822 128.687 136.179  0.00  0.00    +0.000 A 
BRANCH  16  17
ATOM     17  O   UNL     1     114.316 128.628 135.519  0.00  0.00    +0.000 OA
ATOM     18  C   UNL     1     114.367 129.255 134.985  0.00  0.00    +0.000 C 
ENDBRANCH  16  17
BRANCH  12  19
ATOM     19  O   UNL     1     112.442 127.443 137.323  0.00  0.00    +0.000 OA
BRANCH  19  28
ATOM     20  O   UNL     1     113.409 126.390 137.315  0.00  0.00    +0.000 OA
ATOM     21  O   UNL     1     111.866 124.983 135.986  0.00  0.00    +0.000 OA
ATOM     22  O   UNL     1     113.347 124.400 136.421  0.00  0.00    +0.000 OA
ATOM     23  O   UNL     1     111.414 126.505 136.437  0.00  0.00    +0.000 OA
ATOM     24  C   UNL     1     112.381 125.452 136.429  0.00  0.00    +0.000 C 
ATOM     25  C   UNL     1     113.120 125.161 136.646  0.00  0.00    +0.000 C 
ATOM     26  C   UNL     1     112.154 126.213 136.654  0.00  0.00    +0.000 C 
ATOM     27  C   UNL     1     113.635 125.630 137.089  0.00  0.00    +0.000 C 
ATOM     28  C   UNL     1     112.668 126.682 137.097  0.00  0.00    +0.000 C 
BRANCH  27  30
ATOM     29  O   UNL     1     114.603 125.343 138.100  0.00  0.00    +0.000 OA
ATOM     30  C   UNL     1     114.376 125.338 137.307  0.00  0.00    +0.000 C 
ENDBRANCH  27  30
ENDBRANCH  19  28
ENDBRANCH  12  19
ENDBRANCH   2  11
BRANCH   8  31
ATOM     31  O   UNL     1     112.279 128.682 141.800  0.00  0.00    +0.000 OA
BRANCH  31  40
ATOM     32  O   UNL     1     112.185 130.008 142.326  0.00  0.00    +0.000 OA
ATOM     33  O   UNL     1     111.161 129.112 144.395  0.00  0.00    +0.000 OA
ATOM     34  O   UNL     1     111.408 130.736 144.232  0.00  0.00    +0.000 OA
ATOM     35  O   UNL     1     111.597 128.085 143.179  0.00  0.00    +0.000 OA
ATOM     36  C   UNL     1     111.502 129.411 143.705  0.00  0.00    +0.000 C 
ATOM     37  C   UNL     1     111.626 130.222 143.624  0.00  0.00    +0.000 C 
ATOM     38  C   UNL     1     111.720 128.897 143.097  0.00  0.00    +0.000 C 
ATOM     39  C   UNL     1     111.967 130.520 142.934  0.00  0.00    +0.000 C 
ATOM     40  C   UNL     1     112.061 129.196 142.408  0.00  0.00    +0.000 C 
BRANCH  39  42
ATOM     41  O   UNL     1     112.764 131.612 142.469  0.00  0.00    +0.000 OA
ATOM     42  C   UNL     1     112.090 131.332 142.854  0.00  0.00    +0.000 C 
ENDBRANCH  39  42
ENDBRANCH  31  40
ENDBRANCH   8  31
BRANCH   7  43
ATOM     43  C   UNL     1     113.261 128.565 140.479  0.00  0.00    +0.000 C 
BRANCH  43  44
ATOM     44  C   UNL     1     113.515 127.791 140.610  0.00  0.00    +0.000 C 
ATOM     45  C   UNL     1     114.320 127.630 140.690  0.00  0.00    +0.000 C 
ATOM     46  C   UNL     1     114.575 126.857 140.821  0.00  0.00    +0.000 C 
ATOM     47  C   UNL     1     114.871 128.243 140.638  0.00  0.00    +0.000 C 
ENDBRANCH  43  44
ENDBRANCH   7  43
TORSDOF 10
ENDMDL
MODEL 9
REMARK VINA RESULT:      -9.1      2.876      5.543
REMARK  Name = 85228900
REMARK  10 active torsions:
REMARK  status: ('A' for Active; 'I' for Inactive)
REMARK    1  A    between atoms: O_3  and  C_23
REMARK    2  A    between atoms: O_3  and  C_34
REMARK    3  A    between atoms: O_4  and  C_24
REMARK    4  A    between atoms: O_4  and  C_35
REMARK    5  A    between atoms: O_14  and  C_42
REMARK    6  A    between atoms: C_21  and  C_30
REMARK    7  A    between atoms: C_22  and  C_32
REMARK    8  A    between atoms: C_25  and  C_31
REMARK    9  A    between atoms: C_33  and  C_38
REMARK   10  A    between atoms: C_38  and  C_43
REMARK                            x       y       z     vdW  Elec       q    Type
REMARK                         _______ _______ _______ _____ _____    ______ ____
ROOT
ATOM      1  O   UNL     1     112.193 126.623 139.191  0.00  0.00    +0.000 OA
ATOM      2  C   UNL     1     112.751 126.292 138.628  0.00  0.00    +0.000 C 
ATOM      3  C   UNL     1     113.588 126.271 138.824  0.00  0.00    +0.000 C 
ATOM      4  C   UNL     1     113.855 126.582 139.579  0.00  0.00    +0.000 C 
ATOM      5  C   UNL     1     113.282 126.909 140.129  0.00  0.00    +0.000 A 
ATOM      6  C   UNL     1     112.479 126.929 139.941  0.00  0.00    +0.000 A 
ATOM      7  C   UNL     1     111.937 127.246 140.477  0.00  0.00    +0.000 A 
ATOM      8  C   UNL     1     112.199 127.543 141.201  0.00  0.00    +0.000 A 
ATOM      9  C   UNL     1     113.543 127.207 140.853  0.00  0.00    +0.000 A 
ATOM     10  C   UNL     1     113.002 127.523 141.389  0.00  0.00    +0.000 A 
ENDROOT
BRANCH   2  11
ATOM     11  C   UNL     1     112.487 125.995 137.906  0.00  0.00    +0.000 A 
ATOM     12  C   UNL     1     112.511 126.470 137.231  0.00  0.00    +0.000 A 
ATOM     13  C   UNL     1     112.197 125.224 137.857  0.00  0.00    +0.000 A 
ATOM     14  C   UNL     1     112.246 126.174 136.508  0.00  0.00    +0.000 A 
ATOM     15  C   UNL     1     111.932 124.927 137.134  0.00  0.00    +0.000 A 
ATOM     16  C   UNL     1     111.957 125.402 136.460  0.00  0.00    +0.000 A 
BRANCH  16  17
ATOM     17  O   UNL     1     111.692 125.106 135.737  0.00  0.00    +0.000 OA
ATOM     18  C   UNL     1     110.886 124.977 135.614  0.00  0.00    +0.000 C 
ENDBRANCH  16  17
BRANCH  12  19
ATOM     19  O   UNL     1     112.800 127.241 137.279  0.00  0.00    +0.000 OA
BRANCH  19  28
ATOM     20  O   UNL     1     111.703 128.032 136.817  0.00  0.00    +0.000 OA
ATOM     21  O   UNL     1     113.201 129.169 135.208  0.00  0.00    +0.000 OA
ATOM     22  O   UNL     1     111.605 129.581 135.283  0.00  0.00    +0.000 OA
ATOM     23  O   UNL     1     113.799 127.999 136.207  0.00  0.00    +0.000 OA
ATOM     24  C   UNL     1     112.702 128.790 135.745  0.00  0.00    +0.000 C 
ATOM     25  C   UNL     1     111.905 128.996 135.782  0.00  0.00    +0.000 C 
ATOM     26  C   UNL     1     113.001 128.205 136.244  0.00  0.00    +0.000 C 
ATOM     27  C   UNL     1     111.405 128.617 136.318  0.00  0.00    +0.000 C 
ATOM     28  C   UNL     1     112.502 127.826 136.780  0.00  0.00    +0.000 C 
BRANCH  27  30
ATOM     29  O   UNL     1     110.249 128.956 137.087  0.00  0.00    +0.000 OA
ATOM     30  C   UNL     1     110.607 128.823 136.355  0.00  0.00    +0.000 C 
ENDBRANCH  27  30
ENDBRANCH  19  28
ENDBRANCH  12  19
ENDBRANCH   2  11
BRANCH   8  31
ATOM     31  O   UNL     1     111.658 127.860 141.738  0.00  0.00    +0.000 OA
BRANCH  31  40
ATOM     32  O   UNL     1     112.069 129.226 141.650  0.00  0.00    +0.000 OA
ATOM     33  O   UNL     1     111.769 129.472 144.095  0.00  0.00    +0.000 OA
ATOM     34  O   UNL     1     112.280 130.755 143.193  0.00  0.00    +0.000 OA
ATOM     35  O   UNL     1     111.458 128.024 143.368  0.00  0.00    +0.000 OA
ATOM     36  C   UNL     1     111.869 129.389 143.280  0.00  0.00    +0.000 C 
ATOM     37  C   UNL     1     112.125 130.031 142.829  0.00  0.00    +0.000 C 
ATOM     38  C   UNL     1     111.714 128.665 142.917  0.00  0.00    +0.000 C 
ATOM     39  C   UNL     1     112.225 129.949 142.014  0.00  0.00    +0.000 C 
ATOM     40  C   UNL     1     111.814 128.584 142.101  0.00  0.00    +0.000 C 
BRANCH  39  42
ATOM     41  O   UNL     1     112.086 130.791 140.867  0.00  0.00    +0.000 OA
ATOM     42  C   UNL     1     112.480 130.591 141.564  0.00  0.00    +0.000 C 
ENDBRANCH  39  42
ENDBRANCH  31  40
ENDBRANCH   8  31
BRANCH   7  43
ATOM     43  C   UNL     1     111.134 127.266 140.290  0.00  0.00    +0.000 C 
BRANCH  43  44
ATOM     44  C   UNL     1     110.639 126.650 140.528  0.00  0.00    +0.000 C 
ATOM     45  C   UNL     1     109.841 126.659 140.322  0.00  0.00    +0.000 C 
ATOM     46  C   UNL     1     109.346 126.042 140.560  0.00  0.00    +0.000 C 
ATOM     47  C   UNL     1     109.536 127.284 139.878  0.00  0.00    +0.000 C 
ENDBRANCH  43  44
ENDBRANCH   7  43
TORSDOF 10
ENDMDL
MODEL 10
REMARK VINA RESULT:      -9.1      1.847      5.475
REMARK  Name = 85228900
REMARK  10 active torsions:
REMARK  status: ('A' for Active; 'I' for Inactive)
REMARK    1  A    between atoms: O_3  and  C_23
REMARK    2  A    between atoms: O_3  and  C_34
REMARK    3  A    between atoms: O_4  and  C_24
REMARK    4  A    between atoms: O_4  and  C_35
REMARK    5  A    between atoms: O_14  and  C_42
REMARK    6  A    between atoms: C_21  and  C_30
REMARK    7  A    between atoms: C_22  and  C_32
REMARK    8  A    between atoms: C_25  and  C_31
REMARK    9  A    between atoms: C_33  and  C_38
REMARK   10  A    between atoms: C_38  and  C_43
REMARK                            x       y       z     vdW  Elec       q    Type
REMARK                         _______ _______ _______ _____ _____    ______ ____
ROOT
ATOM      1  O   UNL     1     111.900 128.136 137.056  0.00  0.00    +0.000 OA
ATOM      2  C   UNL     1     112.560 127.631 137.275  0.00  0.00    +0.000 C 
ATOM      3  C   UNL     1     113.316 127.988 137.477  0.00  0.00    +0.000 C 
ATOM      4  C   UNL     1     113.401 128.843 137.456  0.00  0.00    +0.000 C 
ATOM      5  C   UNL     1     112.730 129.330 137.234  0.00  0.00    +0.000 A 
ATOM      6  C   UNL     1     112.004 128.988 137.041  0.00  0.00    +0.000 A 
ATOM      7  C   UNL     1     111.366 129.467 136.829  0.00  0.00    +0.000 A 
ATOM      8  C   UNL     1     111.453 130.287 136.811  0.00  0.00    +0.000 A 
ATOM      9  C   UNL     1     112.816 130.150 137.216  0.00  0.00    +0.000 A 
ATOM     10  C   UNL     1     112.179 130.628 137.005  0.00  0.00    +0.000 A 
ENDROOT
BRANCH   2  11
ATOM     11  C   UNL     1     112.470 126.812 137.292  0.00  0.00    +0.000 A 
ATOM     12  C   UNL     1     112.249 126.435 137.992  0.00  0.00    +0.000 A 
ATOM     13  C   UNL     1     112.600 126.369 136.608  0.00  0.00    +0.000 A 
ATOM     14  C   UNL     1     112.158 125.616 138.009  0.00  0.00    +0.000 A 
ATOM     15  C   UNL     1     112.510 125.548 136.625  0.00  0.00    +0.000 A 
ATOM     16  C   UNL     1     112.289 125.172 137.325  0.00  0.00    +0.000 A 
BRANCH  16  17
ATOM     17  O   UNL     1     112.198 124.352 137.342  0.00  0.00    +0.000 OA
ATOM     18  C   UNL     1     111.863 123.960 136.697  0.00  0.00    +0.000 C 
ENDBRANCH  16  17
BRANCH  12  19
ATOM     19  O   UNL     1     112.118 126.878 138.675  0.00  0.00    +0.000 OA
BRANCH  19  28
ATOM     20  O   UNL     1     110.791 126.476 139.021  0.00  0.00    +0.000 OA
ATOM     21  O   UNL     1     111.509 126.122 141.363  0.00  0.00    +0.000 OA
ATOM     22  O   UNL     1     109.943 125.838 140.928  0.00  0.00    +0.000 OA
ATOM     23  O   UNL     1     112.597 126.642 140.236  0.00  0.00    +0.000 OA
ATOM     24  C   UNL     1     111.270 126.240 140.582  0.00  0.00    +0.000 C 
ATOM     25  C   UNL     1     110.488 126.098 140.365  0.00  0.00    +0.000 C 
ATOM     26  C   UNL     1     111.814 126.500 140.019  0.00  0.00    +0.000 C 
ATOM     27  C   UNL     1     110.248 126.216 139.585  0.00  0.00    +0.000 C 
ATOM     28  C   UNL     1     111.575 126.618 139.239  0.00  0.00    +0.000 C 
BRANCH  27  30
ATOM     29  O   UNL     1     109.048 126.640 138.935  0.00  0.00    +0.000 OA
ATOM     30  C   UNL     1     109.465 126.074 139.367  0.00  0.00    +0.000 C 
ENDBRANCH  27  30
ENDBRANCH  19  28
ENDBRANCH  12  19
ENDBRANCH   2  11
BRANCH   8  31
ATOM     31  O   UNL     1     110.816 130.765 136.600  0.00  0.00    +0.000 OA
BRANCH  31  40
ATOM     32  O   UNL     1     110.493 131.345 137.866  0.00  0.00    +0.000 OA
ATOM     33  O   UNL     1     110.332 133.575 136.802  0.00  0.00    +0.000 OA
ATOM     34  O   UNL     1     110.063 133.412 138.422  0.00  0.00    +0.000 OA
ATOM     35  O   UNL     1     110.709 132.252 135.891  0.00  0.00    +0.000 OA
ATOM     36  C   UNL     1     110.386 132.832 137.156  0.00  0.00    +0.000 C 
ATOM     37  C   UNL     1     110.251 132.750 137.966  0.00  0.00    +0.000 C 
ATOM     38  C   UNL     1     110.574 132.170 136.701  0.00  0.00    +0.000 C 
ATOM     39  C   UNL     1     110.305 132.007 138.320  0.00  0.00    +0.000 C 
ATOM     40  C   UNL     1     110.628 131.427 137.056  0.00  0.00    +0.000 C 
BRANCH  39  42
ATOM     41  O   UNL     1     109.692 131.315 139.411  0.00  0.00    +0.000 OA
ATOM     42  C   UNL     1     110.170 131.926 139.130  0.00  0.00    +0.000 C 
ENDBRANCH  39  42
ENDBRANCH  31  40
ENDBRANCH   8  31
BRANCH   7  43
ATOM     43  C   UNL     1     110.640 129.125 136.635  0.00  0.00    +0.000 C 
BRANCH  43  44
ATOM     44  C   UNL     1     110.471 128.933 135.851  0.00  0.00    +0.000 C 
ATOM     45  C   UNL     1     109.750 128.581 135.659  0.00  0.00    +0.000 C 
ATOM     46  C   UNL     1     109.581 128.389 134.875  0.00  0.00    +0.000 C 
ATOM     47  C   UNL     1     109.197 128.423 136.251  0.00  0.00    +0.000 C 
ENDBRANCH  43  44
ENDBRANCH   7  43
TORSDOF 10
ENDMDL
