MODEL 1
REMARK VINA RESULT:     -10.0      0.000      0.000
REMARK  Name = 5464499
REMARK  8 active torsions:
REMARK  status: ('A' for Active; 'I' for Inactive)
REMARK    1  A    between atoms: O_2  and  C_22
REMARK    2  A    between atoms: O_2  and  C_26
REMARK    3  A    between atoms: O_6  and  C_25
REMARK    4  A    between atoms: O_6  and  C_29
REMARK    5  A    between atoms: O_14  and  C_40
REMARK    6  A    between atoms: O_15  and  C_41
REMARK    7  A    between atoms: C_17  and  C_26
REMARK    8  A    between atoms: C_30  and  C_33
REMARK                            x       y       z     vdW  Elec       q    Type
REMARK                         _______ _______ _______ _____ _____    ______ ____
ROOT
ATOM      1  O   UNL     1     113.346 127.315 136.065  0.00  0.00    +0.000 OA
ATOM      2  O   UNL     1     113.200 128.442 138.264  0.00  0.00    +0.000 OA
ATOM      3  O   UNL     1     113.639 129.689 137.687  0.00  0.00    +0.000 OA
ATOM      4  C   UNL     1     113.054 127.267 137.464  0.00  0.00    +0.000 A 
ATOM      5  C   UNL     1     113.103 126.891 136.731  0.00  0.00    +0.000 A 
ATOM      6  C   UNL     1     113.249 128.066 137.531  0.00  0.00    +0.000 A 
ATOM      7  C   UNL     1     113.491 128.489 136.866  0.00  0.00    +0.000 A 
ATOM      8  C   UNL     1     113.540 128.114 136.133  0.00  0.00    +0.000 A 
ATOM      9  C   UNL     1     113.691 129.321 136.949  0.00  0.00    +0.000 A 
ATOM     10  C   UNL     1     113.791 128.544 135.433  0.00  0.00    +0.000 A 
ATOM     11  C   UNL     1     113.944 129.767 136.260  0.00  0.00    +0.000 A 
ATOM     12  C   UNL     1     113.995 129.376 135.496  0.00  0.00    +0.000 A 
ENDROOT
BRANCH   5  14
ATOM     13  O   UNL     1     112.330 123.695 136.458  0.00  0.00    +0.000 OA
ATOM     14  C   UNL     1     112.909 126.092 136.662  0.00  0.00    +0.000 A 
ATOM     15  C   UNL     1     112.183 125.870 136.341  0.00  0.00    +0.000 A 
ATOM     16  C   UNL     1     113.443 125.516 136.916  0.00  0.00    +0.000 A 
ATOM     17  C   UNL     1     111.990 125.070 136.273  0.00  0.00    +0.000 A 
ATOM     18  C   UNL     1     113.249 124.717 136.848  0.00  0.00    +0.000 A 
ATOM     19  C   UNL     1     112.523 124.494 136.526  0.00  0.00    +0.000 A 
BRANCH  17  20
ATOM     20  O   UNL     1     111.264 124.848 135.951  0.00  0.00    +0.000 OA
ATOM     21  C   UNL     1     110.903 125.321 135.379  0.00  0.00    +0.000 C 
ENDBRANCH  17  20
ENDBRANCH   5  14
BRANCH  12  22
ATOM     22  O   UNL     1     114.237 129.797 134.830  0.00  0.00    +0.000 OA
ATOM     23  C   UNL     1     115.034 129.982 134.726  0.00  0.00    +0.000 C 
ENDBRANCH  12  22
BRANCH   4  24
ATOM     24  O   UNL     1     112.812 126.844 138.128  0.00  0.00    +0.000 OA
BRANCH  24  33
ATOM     25  O   UNL     1     111.544 127.501 138.173  0.00  0.00    +0.000 OA
ATOM     26  O   UNL     1     110.156 127.820 139.827  0.00  0.00    +0.000 OA
ATOM     27  O   UNL     1     111.364 126.993 140.588  0.00  0.00    +0.000 OA
ATOM     28  O   UNL     1     112.692 126.505 139.739  0.00  0.00    +0.000 OA
ATOM     29  C   UNL     1     110.880 127.745 138.598  0.00  0.00    +0.000 C 
ATOM     30  C   UNL     1     110.820 127.576 139.402  0.00  0.00    +0.000 C 
ATOM     31  C   UNL     1     111.424 127.162 139.783  0.00  0.00    +0.000 C 
ATOM     32  C   UNL     1     112.088 126.918 139.359  0.00  0.00    +0.000 C 
ATOM     33  C   UNL     1     112.148 127.088 138.553  0.00  0.00    +0.000 C 
BRANCH  29  34
ATOM     34  C   UNL     1     110.276 128.159 138.217  0.00  0.00    +0.000 C 
BRANCH  34  35
ATOM     35  O   UNL     1     110.007 127.908 137.478  0.00  0.00    +0.000 OA
BRANCH  35  41
ATOM     36  O   UNL     1     110.023 129.188 136.843  0.00  0.00    +0.000 OA
ATOM     37  O   UNL     1     108.630 127.517 136.657  0.00  0.00    +0.000 OA
ATOM     38  O   UNL     1     107.958 128.601 135.611  0.00  0.00    +0.000 OA
ATOM     39  O   UNL     1     108.662 130.076 135.386  0.00  0.00    +0.000 OA
ATOM     40  C   UNL     1     108.982 128.254 136.544  0.00  0.00    +0.000 C 
ATOM     41  C   UNL     1     109.671 128.449 136.955  0.00  0.00    +0.000 C 
ATOM     42  C   UNL     1     108.646 128.797 136.021  0.00  0.00    +0.000 C 
ATOM     43  C   UNL     1     108.998 129.534 135.909  0.00  0.00    +0.000 C 
ATOM     44  C   UNL     1     109.687 129.729 136.319  0.00  0.00    +0.000 C 
ATOM     45  C   UNL     1     110.039 130.466 136.207  0.00  0.00    +0.000 C 
ENDBRANCH  35  41
ENDBRANCH  34  35
ENDBRANCH  29  34
ENDBRANCH  24  33
ENDBRANCH   4  24
TORSDOF 8
ENDMDL
MODEL 2
REMARK VINA RESULT:      -9.7      0.962      2.738
REMARK  Name = 5464499
REMARK  8 active torsions:
REMARK  status: ('A' for Active; 'I' for Inactive)
REMARK    1  A    between atoms: O_2  and  C_22
REMARK    2  A    between atoms: O_2  and  C_26
REMARK    3  A    between atoms: O_6  and  C_25
REMARK    4  A    between atoms: O_6  and  C_29
REMARK    5  A    between atoms: O_14  and  C_40
REMARK    6  A    between atoms: O_15  and  C_41
REMARK    7  A    between atoms: C_17  and  C_26
REMARK    8  A    between atoms: C_30  and  C_33
REMARK                            x       y       z     vdW  Elec       q    Type
REMARK                         _______ _______ _______ _____ _____    ______ ____
ROOT
ATOM      1  O   UNL     1     112.981 128.406 138.057  0.00  0.00    +0.000 OA
ATOM      2  O   UNL     1     113.434 126.941 136.115  0.00  0.00    +0.000 OA
ATOM      3  O   UNL     1     113.951 128.054 135.358  0.00  0.00    +0.000 OA
ATOM      4  C   UNL     1     112.954 127.112 137.449  0.00  0.00    +0.000 A 
ATOM      5  C   UNL     1     112.803 127.601 138.097  0.00  0.00    +0.000 A 
ATOM      6  C   UNL     1     113.283 127.429 136.762  0.00  0.00    +0.000 A 
ATOM      7  C   UNL     1     113.461 128.233 136.722  0.00  0.00    +0.000 A 
ATOM      8  C   UNL     1     113.310 128.722 137.369  0.00  0.00    +0.000 A 
ATOM      9  C   UNL     1     113.803 128.551 136.000  0.00  0.00    +0.000 A 
ATOM     10  C   UNL     1     113.491 129.561 137.340  0.00  0.00    +0.000 A 
ATOM     11  C   UNL     1     113.991 129.388 135.953  0.00  0.00    +0.000 A 
ATOM     12  C   UNL     1     113.833 129.897 136.627  0.00  0.00    +0.000 A 
ENDROOT
BRANCH   5  14
ATOM     13  O   UNL     1     111.490 126.338 140.849  0.00  0.00    +0.000 OA
ATOM     14  C   UNL     1     112.475 127.285 138.785  0.00  0.00    +0.000 A 
ATOM     15  C   UNL     1     111.677 127.409 138.955  0.00  0.00    +0.000 A 
ATOM     16  C   UNL     1     112.945 126.846 139.302  0.00  0.00    +0.000 A 
ATOM     17  C   UNL     1     111.349 127.093 139.644  0.00  0.00    +0.000 A 
ATOM     18  C   UNL     1     112.616 126.531 139.990  0.00  0.00    +0.000 A 
ATOM     19  C   UNL     1     111.818 126.654 140.160  0.00  0.00    +0.000 A 
BRANCH  17  20
ATOM     20  O   UNL     1     110.551 127.216 139.814  0.00  0.00    +0.000 OA
ATOM     21  C   UNL     1     110.200 127.943 139.643  0.00  0.00    +0.000 C 
ENDBRANCH  17  20
ENDBRANCH   5  14
BRANCH  12  22
ATOM     22  O   UNL     1     114.010 130.702 136.590  0.00  0.00    +0.000 OA
ATOM     23  C   UNL     1     114.677 130.959 136.178  0.00  0.00    +0.000 C 
ENDBRANCH  12  22
BRANCH   4  24
ATOM     24  O   UNL     1     112.776 126.308 137.490  0.00  0.00    +0.000 OA
BRANCH  24  33
ATOM     25  O   UNL     1     111.660 126.453 136.609  0.00  0.00    +0.000 OA
ATOM     26  O   UNL     1     110.615 124.989 135.373  0.00  0.00    +0.000 OA
ATOM     27  O   UNL     1     111.767 124.039 136.076  0.00  0.00    +0.000 OA
ATOM     28  O   UNL     1     112.847 124.699 137.134  0.00  0.00    +0.000 OA
ATOM     29  C   UNL     1     111.120 126.123 136.080  0.00  0.00    +0.000 C 
ATOM     30  C   UNL     1     111.155 125.319 135.902  0.00  0.00    +0.000 C 
ATOM     31  C   UNL     1     111.731 124.843 136.253  0.00  0.00    +0.000 C 
ATOM     32  C   UNL     1     112.271 125.173 136.782  0.00  0.00    +0.000 C 
ATOM     33  C   UNL     1     112.236 125.979 136.961  0.00  0.00    +0.000 C 
BRANCH  29  34
ATOM     34  C   UNL     1     110.544 126.599 135.729  0.00  0.00    +0.000 C 
BRANCH  34  35
ATOM     35  O   UNL     1     110.058 127.072 136.199  0.00  0.00    +0.000 OA
BRANCH  35  41
ATOM     36  O   UNL     1     110.234 128.281 135.457  0.00  0.00    +0.000 OA
ATOM     37  O   UNL     1     108.482 127.473 136.479  0.00  0.00    +0.000 OA
ATOM     38  O   UNL     1     107.870 128.883 135.877  0.00  0.00    +0.000 OA
ATOM     39  O   UNL     1     108.834 129.890 134.996  0.00  0.00    +0.000 OA
ATOM     40  C   UNL     1     108.964 127.977 136.038  0.00  0.00    +0.000 C 
ATOM     41  C   UNL     1     109.751 127.776 135.898  0.00  0.00    +0.000 C 
ATOM     42  C   UNL     1     108.658 128.682 135.737  0.00  0.00    +0.000 C 
ATOM     43  C   UNL     1     109.140 129.186 135.296  0.00  0.00    +0.000 C 
ATOM     44  C   UNL     1     109.928 128.985 135.157  0.00  0.00    +0.000 C 
ATOM     45  C   UNL     1     110.410 129.488 134.716  0.00  0.00    +0.000 C 
ENDBRANCH  35  41
ENDBRANCH  34  35
ENDBRANCH  29  34
ENDBRANCH  24  33
ENDBRANCH   4  24
TORSDOF 8
ENDMDL
MODEL 3
REMARK VINA RESULT:      -9.7      1.593      3.622
REMARK  Name = 5464499
REMARK  8 active torsions:
REMARK  status: ('A' for Active; 'I' for Inactive)
REMARK    1  A    between atoms: O_2  and  C_22
REMARK    2  A    between atoms: O_2  and  C_26
REMARK    3  A    between atoms: O_6  and  C_25
REMARK    4  A    between atoms: O_6  and  C_29
REMARK    5  A    between atoms: O_14  and  C_40
REMARK    6  A    between atoms: O_15  and  C_41
REMARK    7  A    between atoms: C_17  and  C_26
REMARK    8  A    between atoms: C_30  and  C_33
REMARK                            x       y       z     vdW  Elec       q    Type
REMARK                         _______ _______ _______ _____ _____    ______ ____
ROOT
ATOM      1  O   UNL     1     111.792 128.862 135.612  0.00  0.00    +0.000 OA
ATOM      2  O   UNL     1     112.855 126.802 136.481  0.00  0.00    +0.000 OA
ATOM      3  O   UNL     1     114.169 127.337 136.221  0.00  0.00    +0.000 OA
ATOM      4  C   UNL     1     111.678 127.555 136.181  0.00  0.00    +0.000 A 
ATOM      5  C   UNL     1     111.324 128.241 135.891  0.00  0.00    +0.000 A 
ATOM      6  C   UNL     1     112.501 127.489 136.191  0.00  0.00    +0.000 A 
ATOM      7  C   UNL     1     112.968 128.108 135.913  0.00  0.00    +0.000 A 
ATOM      8  C   UNL     1     112.614 128.794 135.623  0.00  0.00    +0.000 A 
ATOM      9  C   UNL     1     113.824 128.027 135.930  0.00  0.00    +0.000 A 
ATOM     10  C   UNL     1     113.091 129.447 135.330  0.00  0.00    +0.000 A 
ATOM     11  C   UNL     1     114.316 128.669 135.641  0.00  0.00    +0.000 A 
ATOM     12  C   UNL     1     113.947 129.384 135.339  0.00  0.00    +0.000 A 
ENDROOT
BRANCH   5  14
ATOM     13  O   UNL     1     108.035 128.509 135.844  0.00  0.00    +0.000 OA
ATOM     14  C   UNL     1     110.502 128.309 135.880  0.00  0.00    +0.000 A 
ATOM     15  C   UNL     1     110.118 128.779 136.439  0.00  0.00    +0.000 A 
ATOM     16  C   UNL     1     110.063 127.905 135.308  0.00  0.00    +0.000 A 
ATOM     17  C   UNL     1     109.296 128.845 136.426  0.00  0.00    +0.000 A 
ATOM     18  C   UNL     1     109.241 127.972 135.297  0.00  0.00    +0.000 A 
ATOM     19  C   UNL     1     108.857 128.442 135.856  0.00  0.00    +0.000 A 
BRANCH  17  20
ATOM     20  O   UNL     1     108.912 129.315 136.985  0.00  0.00    +0.000 OA
ATOM     21  C   UNL     1     109.264 130.015 137.248  0.00  0.00    +0.000 C 
ENDBRANCH  17  20
ENDBRANCH   5  14
BRANCH  12  22
ATOM     22  O   UNL     1     114.412 130.005 135.060  0.00  0.00    +0.000 OA
ATOM     23  C   UNL     1     114.766 130.527 135.592  0.00  0.00    +0.000 C 
ENDBRANCH  12  22
BRANCH   4  24
ATOM     24  O   UNL     1     111.211 126.936 136.459  0.00  0.00    +0.000 OA
BRANCH  24  33
ATOM     25  O   UNL     1     111.530 127.195 137.828  0.00  0.00    +0.000 OA
ATOM     26  O   UNL     1     111.557 125.874 139.564  0.00  0.00    +0.000 OA
ATOM     27  O   UNL     1     111.092 124.823 138.380  0.00  0.00    +0.000 OA
ATOM     28  O   UNL     1     110.918 125.354 136.828  0.00  0.00    +0.000 OA
ATOM     29  C   UNL     1     111.617 126.930 138.604  0.00  0.00    +0.000 C 
ATOM     30  C   UNL     1     111.471 126.140 138.788  0.00  0.00    +0.000 C 
ATOM     31  C   UNL     1     111.238 125.614 138.196  0.00  0.00    +0.000 C 
ATOM     32  C   UNL     1     111.151 125.879 137.420  0.00  0.00    +0.000 C 
ATOM     33  C   UNL     1     111.297 126.670 137.235  0.00  0.00    +0.000 C 
BRANCH  29  34
ATOM     34  C   UNL     1     111.850 127.456 139.196  0.00  0.00    +0.000 C 
BRANCH  34  35
ATOM     35  O   UNL     1     111.436 128.161 139.306  0.00  0.00    +0.000 OA
BRANCH  35  41
ATOM     36  O   UNL     1     112.567 129.033 139.346  0.00  0.00    +0.000 OA
ATOM     37  O   UNL     1     110.708 129.050 140.490  0.00  0.00    +0.000 OA
ATOM     38  O   UNL     1     111.476 130.366 141.123  0.00  0.00    +0.000 OA
ATOM     39  O   UNL     1     112.970 130.794 140.571  0.00  0.00    +0.000 OA
ATOM     40  C   UNL     1     111.455 129.264 140.215  0.00  0.00    +0.000 C 
ATOM     41  C   UNL     1     111.819 128.819 139.623  0.00  0.00    +0.000 C 
ATOM     42  C   UNL     1     111.840 129.922 140.531  0.00  0.00    +0.000 C 
ATOM     43  C   UNL     1     112.587 130.136 140.255  0.00  0.00    +0.000 C 
ATOM     44  C   UNL     1     112.950 129.691 139.663  0.00  0.00    +0.000 C 
ATOM     45  C   UNL     1     113.698 129.905 139.387  0.00  0.00    +0.000 C 
ENDBRANCH  35  41
ENDBRANCH  34  35
ENDBRANCH  29  34
ENDBRANCH  24  33
ENDBRANCH   4  24
TORSDOF 8
ENDMDL
MODEL 4
REMARK VINA RESULT:      -9.5      1.525      4.771
REMARK  Name = 5464499
REMARK  8 active torsions:
REMARK  status: ('A' for Active; 'I' for Inactive)
REMARK    1  A    between atoms: O_2  and  C_22
REMARK    2  A    between atoms: O_2  and  C_26
REMARK    3  A    between atoms: O_6  and  C_25
REMARK    4  A    between atoms: O_6  and  C_29
REMARK    5  A    between atoms: O_14  and  C_40
REMARK    6  A    between atoms: O_15  and  C_41
REMARK    7  A    between atoms: C_17  and  C_26
REMARK    8  A    between atoms: C_30  and  C_33
REMARK                            x       y       z     vdW  Elec       q    Type
REMARK                         _______ _______ _______ _____ _____    ______ ____
ROOT
ATOM      1  O   UNL     1     112.420 130.776 136.776  0.00  0.00    +0.000 OA
ATOM      2  O   UNL     1     111.193 129.356 135.163  0.00  0.00    +0.000 OA
ATOM      3  O   UNL     1     112.431 128.849 134.623  0.00  0.00    +0.000 OA
ATOM      4  C   UNL     1     111.185 130.308 136.228  0.00  0.00    +0.000 A 
ATOM      5  C   UNL     1     111.594 130.782 136.765  0.00  0.00    +0.000 A 
ATOM      6  C   UNL     1     111.602 129.829 135.701  0.00  0.00    +0.000 A 
ATOM      7  C   UNL     1     112.426 129.823 135.711  0.00  0.00    +0.000 A 
ATOM      8  C   UNL     1     112.835 130.297 136.249  0.00  0.00    +0.000 A 
ATOM      9  C   UNL     1     112.849 129.319 135.157  0.00  0.00    +0.000 A 
ATOM     10  C   UNL     1     113.695 130.299 136.270  0.00  0.00    +0.000 A 
ATOM     11  C   UNL     1     113.707 129.309 135.163  0.00  0.00    +0.000 A 
ATOM     12  C   UNL     1     114.134 129.803 135.724  0.00  0.00    +0.000 A 
ENDROOT
BRANCH   5  14
ATOM     13  O   UNL     1     109.932 132.702 138.873  0.00  0.00    +0.000 OA
ATOM     14  C   UNL     1     111.179 131.261 137.293  0.00  0.00    +0.000 A 
ATOM     15  C   UNL     1     111.104 131.038 138.083  0.00  0.00    +0.000 A 
ATOM     16  C   UNL     1     110.838 131.965 137.029  0.00  0.00    +0.000 A 
ATOM     17  C   UNL     1     110.688 131.518 138.610  0.00  0.00    +0.000 A 
ATOM     18  C   UNL     1     110.423 132.445 137.556  0.00  0.00    +0.000 A 
ATOM     19  C   UNL     1     110.348 132.221 138.346  0.00  0.00    +0.000 A 
BRANCH  17  20
ATOM     20  O   UNL     1     110.614 131.295 139.400  0.00  0.00    +0.000 OA
ATOM     21  C   UNL     1     111.169 130.786 139.740  0.00  0.00    +0.000 C 
ENDBRANCH  17  20
ENDBRANCH   5  14
BRANCH  12  22
ATOM     22  O   UNL     1     114.959 129.799 135.737  0.00  0.00    +0.000 OA
ATOM     23  C   UNL     1     115.380 130.377 135.326  0.00  0.00    +0.000 C 
ENDBRANCH  12  22
BRANCH   4  24
ATOM     24  O   UNL     1     110.361 130.314 136.217  0.00  0.00    +0.000 OA
BRANCH  24  33
ATOM     25  O   UNL     1     110.257 129.006 136.784  0.00  0.00    +0.000 OA
ATOM     26  O   UNL     1     108.686 127.500 136.624  0.00  0.00    +0.000 OA
ATOM     27  O   UNL     1     108.056 128.708 135.694  0.00  0.00    +0.000 OA
ATOM     28  O   UNL     1     108.893 130.115 135.490  0.00  0.00    +0.000 OA
ATOM     29  C   UNL     1     109.838 128.303 136.886  0.00  0.00    +0.000 C 
ATOM     30  C   UNL     1     109.105 128.204 136.522  0.00  0.00    +0.000 C 
ATOM     31  C   UNL     1     108.789 128.808 136.057  0.00  0.00    +0.000 C 
ATOM     32  C   UNL     1     109.208 129.511 135.955  0.00  0.00    +0.000 C 
ATOM     33  C   UNL     1     109.942 129.611 136.319  0.00  0.00    +0.000 C 
BRANCH  29  34
ATOM     34  C   UNL     1     110.154 127.699 137.351  0.00  0.00    +0.000 C 
BRANCH  34  35
ATOM     35  O   UNL     1     110.356 127.848 138.137  0.00  0.00    +0.000 OA
BRANCH  35  41
ATOM     36  O   UNL     1     111.671 127.288 138.127  0.00  0.00    +0.000 OA
ATOM     37  O   UNL     1     110.083 127.179 139.620  0.00  0.00    +0.000 OA
ATOM     38  O   UNL     1     111.261 126.286 140.352  0.00  0.00    +0.000 OA
ATOM     39  O   UNL     1     112.712 126.061 139.601  0.00  0.00    +0.000 OA
ATOM     40  C   UNL     1     110.808 127.067 139.245  0.00  0.00    +0.000 C 
ATOM     41  C   UNL     1     110.945 127.401 138.503  0.00  0.00    +0.000 C 
ATOM     42  C   UNL     1     111.398 126.620 139.611  0.00  0.00    +0.000 C 
ATOM     43  C   UNL     1     112.123 126.507 139.235  0.00  0.00    +0.000 C 
ATOM     44  C   UNL     1     112.260 126.842 138.494  0.00  0.00    +0.000 C 
ATOM     45  C   UNL     1     112.985 126.729 138.118  0.00  0.00    +0.000 C 
ENDBRANCH  35  41
ENDBRANCH  34  35
ENDBRANCH  29  34
ENDBRANCH  24  33
ENDBRANCH   4  24
TORSDOF 8
ENDMDL
MODEL 5
REMARK VINA RESULT:      -9.5      1.313      1.996
REMARK  Name = 5464499
REMARK  8 active torsions:
REMARK  status: ('A' for Active; 'I' for Inactive)
REMARK    1  A    between atoms: O_2  and  C_22
REMARK    2  A    between atoms: O_2  and  C_26
REMARK    3  A    between atoms: O_6  and  C_25
REMARK    4  A    between atoms: O_6  and  C_29
REMARK    5  A    between atoms: O_14  and  C_40
REMARK    6  A    between atoms: O_15  and  C_41
REMARK    7  A    between atoms: C_17  and  C_26
REMARK    8  A    between atoms: C_30  and  C_33
REMARK                            x       y       z     vdW  Elec       q    Type
REMARK                         _______ _______ _______ _____ _____    ______ ____
ROOT
ATOM      1  O   UNL     1     112.199 128.031 135.432  0.00  0.00    +0.000 OA
ATOM      2  O   UNL     1     112.271 128.499 137.861  0.00  0.00    +0.000 OA
ATOM      3  O   UNL     1     113.340 129.449 137.676  0.00  0.00    +0.000 OA
ATOM      4  C   UNL     1     111.705 127.796 136.753  0.00  0.00    +0.000 A 
ATOM      5  C   UNL     1     111.681 127.640 135.943  0.00  0.00    +0.000 A 
ATOM      6  C   UNL     1     112.247 128.343 137.051  0.00  0.00    +0.000 A 
ATOM      7  C   UNL     1     112.764 128.733 136.541  0.00  0.00    +0.000 A 
ATOM      8  C   UNL     1     112.740 128.577 135.731  0.00  0.00    +0.000 A 
ATOM      9  C   UNL     1     113.323 129.300 136.865  0.00  0.00    +0.000 A 
ATOM     10  C   UNL     1     113.274 128.977 135.189  0.00  0.00    +0.000 A 
ATOM     11  C   UNL     1     113.864 129.709 136.338  0.00  0.00    +0.000 A 
ATOM     12  C   UNL     1     113.839 129.546 135.494  0.00  0.00    +0.000 A 
ENDROOT
BRANCH   5  14
ATOM     13  O   UNL     1     109.516 125.458 134.744  0.00  0.00    +0.000 OA
ATOM     14  C   UNL     1     111.140 127.094 135.643  0.00  0.00    +0.000 A 
ATOM     15  C   UNL     1     111.289 126.286 135.712  0.00  0.00    +0.000 A 
ATOM     16  C   UNL     1     110.450 127.358 135.275  0.00  0.00    +0.000 A 
ATOM     17  C   UNL     1     110.747 125.740 135.412  0.00  0.00    +0.000 A 
ATOM     18  C   UNL     1     109.909 126.812 134.975  0.00  0.00    +0.000 A 
ATOM     19  C   UNL     1     110.058 126.003 135.044  0.00  0.00    +0.000 A 
BRANCH  17  20
ATOM     20  O   UNL     1     110.895 124.932 135.481  0.00  0.00    +0.000 OA
ATOM     21  C   UNL     1     111.404 124.654 136.069  0.00  0.00    +0.000 C 
ENDBRANCH  17  20
ENDBRANCH   5  14
BRANCH  12  22
ATOM     22  O   UNL     1     114.355 129.935 134.981  0.00  0.00    +0.000 OA
ATOM     23  C   UNL     1     115.027 129.547 134.699  0.00  0.00    +0.000 C 
ENDBRANCH  12  22
BRANCH   4  24
ATOM     24  O   UNL     1     111.188 127.406 137.263  0.00  0.00    +0.000 OA
BRANCH  24  33
ATOM     25  O   UNL     1     110.352 128.546 137.472  0.00  0.00    +0.000 OA
ATOM     26  O   UNL     1     109.154 129.144 139.195  0.00  0.00    +0.000 OA
ATOM     27  O   UNL     1     109.810 127.734 139.745  0.00  0.00    +0.000 OA
ATOM     28  O   UNL     1     110.827 126.865 138.779  0.00  0.00    +0.000 OA
ATOM     29  C   UNL     1     109.843 128.980 137.955  0.00  0.00    +0.000 C 
ATOM     30  C   UNL     1     109.663 128.710 138.712  0.00  0.00    +0.000 C 
ATOM     31  C   UNL     1     109.991 128.004 138.988  0.00  0.00    +0.000 C 
ATOM     32  C   UNL     1     110.499 127.570 138.505  0.00  0.00    +0.000 C 
ATOM     33  C   UNL     1     110.680 127.841 137.746  0.00  0.00    +0.000 C 
BRANCH  29  34
ATOM     34  C   UNL     1     109.515 129.686 137.679  0.00  0.00    +0.000 C 
BRANCH  34  35
ATOM     35  O   UNL     1     109.112 129.699 136.960  0.00  0.00    +0.000 OA
BRANCH  35  41
ATOM     36  O   UNL     1     109.492 131.045 136.667  0.00  0.00    +0.000 OA
ATOM     37  O   UNL     1     107.755 129.883 136.039  0.00  0.00    +0.000 OA
ATOM     38  O   UNL     1     107.457 131.320 135.287  0.00  0.00    +0.000 OA
ATOM     39  O   UNL     1     108.516 132.573 135.454  0.00  0.00    +0.000 OA
ATOM     40  C   UNL     1     108.284 130.509 136.123  0.00  0.00    +0.000 C 
ATOM     41  C   UNL     1     108.962 130.417 136.583  0.00  0.00    +0.000 C 
ATOM     42  C   UNL     1     108.135 131.229 135.747  0.00  0.00    +0.000 C 
ATOM     43  C   UNL     1     108.664 131.855 135.830  0.00  0.00    +0.000 C 
ATOM     44  C   UNL     1     109.343 131.763 136.290  0.00  0.00    +0.000 C 
ATOM     45  C   UNL     1     109.873 132.390 136.374  0.00  0.00    +0.000 C 
ENDBRANCH  35  41
ENDBRANCH  34  35
ENDBRANCH  29  34
ENDBRANCH  24  33
ENDBRANCH   4  24
TORSDOF 8
ENDMDL
MODEL 6
REMARK VINA RESULT:      -9.4      1.083      3.658
REMARK  Name = 5464499
REMARK  8 active torsions:
REMARK  status: ('A' for Active; 'I' for Inactive)
REMARK    1  A    between atoms: O_2  and  C_22
REMARK    2  A    between atoms: O_2  and  C_26
REMARK    3  A    between atoms: O_6  and  C_25
REMARK    4  A    between atoms: O_6  and  C_29
REMARK    5  A    between atoms: O_14  and  C_40
REMARK    6  A    between atoms: O_15  and  C_41
REMARK    7  A    between atoms: C_17  and  C_26
REMARK    8  A    between atoms: C_30  and  C_33
REMARK                            x       y       z     vdW  Elec       q    Type
REMARK                         _______ _______ _______ _____ _____    ______ ____
ROOT
ATOM      1  O   UNL     1     111.809 129.243 135.650  0.00  0.00    +0.000 OA
ATOM      2  O   UNL     1     112.620 129.626 137.957  0.00  0.00    +0.000 OA
ATOM      3  O   UNL     1     113.964 129.844 137.479  0.00  0.00    +0.000 OA
ATOM      4  C   UNL     1     111.553 129.329 137.054  0.00  0.00    +0.000 A 
ATOM      5  C   UNL     1     111.283 129.201 136.285  0.00  0.00    +0.000 A 
ATOM      6  C   UNL     1     112.350 129.498 137.188  0.00  0.00    +0.000 A 
ATOM      7  C   UNL     1     112.875 129.540 136.554  0.00  0.00    +0.000 A 
ATOM      8  C   UNL     1     112.604 129.412 135.785  0.00  0.00    +0.000 A 
ATOM      9  C   UNL     1     113.702 129.718 136.707  0.00  0.00    +0.000 A 
ATOM     10  C   UNL     1     113.142 129.453 135.116  0.00  0.00    +0.000 A 
ATOM     11  C   UNL     1     114.254 129.762 136.050  0.00  0.00    +0.000 A 
ATOM     12  C   UNL     1     113.972 129.629 135.248  0.00  0.00    +0.000 A 
ENDROOT
BRANCH   5  14
ATOM     13  O   UNL     1     108.098 128.526 135.746  0.00  0.00    +0.000 OA
ATOM     14  C   UNL     1     110.487 129.032 136.150  0.00  0.00    +0.000 A 
ATOM     15  C   UNL     1     110.252 128.259 135.983  0.00  0.00    +0.000 A 
ATOM     16  C   UNL     1     109.925 129.636 136.183  0.00  0.00    +0.000 A 
ATOM     17  C   UNL     1     109.455 128.091 135.848  0.00  0.00    +0.000 A 
ATOM     18  C   UNL     1     109.129 129.467 136.048  0.00  0.00    +0.000 A 
ATOM     19  C   UNL     1     108.894 128.694 135.881  0.00  0.00    +0.000 A 
BRANCH  17  20
ATOM     20  O   UNL     1     109.220 127.318 135.681  0.00  0.00    +0.000 OA
ATOM     21  C   UNL     1     109.682 126.843 135.188  0.00  0.00    +0.000 C 
ENDBRANCH  17  20
ENDBRANCH   5  14
BRANCH  12  22
ATOM     22  O   UNL     1     114.496 129.670 134.612  0.00  0.00    +0.000 OA
ATOM     23  C   UNL     1     115.102 130.230 134.612  0.00  0.00    +0.000 C 
ENDBRANCH  12  22
BRANCH   4  24
ATOM     24  O   UNL     1     111.028 129.287 137.688  0.00  0.00    +0.000 OA
BRANCH  24  33
ATOM     25  O   UNL     1     111.517 128.024 138.146  0.00  0.00    +0.000 OA
ATOM     26  O   UNL     1     111.575 127.154 140.146  0.00  0.00    +0.000 OA
ATOM     27  O   UNL     1     110.871 128.612 140.461  0.00  0.00    +0.000 OA
ATOM     28  O   UNL     1     110.597 129.679 139.232  0.00  0.00    +0.000 OA
ATOM     29  C   UNL     1     111.653 127.491 138.760  0.00  0.00    +0.000 C 
ATOM     30  C   UNL     1     111.438 127.687 139.531  0.00  0.00    +0.000 C 
ATOM     31  C   UNL     1     111.086 128.416 139.689  0.00  0.00    +0.000 C 
ATOM     32  C   UNL     1     110.949 128.950 139.075  0.00  0.00    +0.000 C 
ATOM     33  C   UNL     1     111.165 128.754 138.302  0.00  0.00    +0.000 C 
BRANCH  29  34
ATOM     34  C   UNL     1     112.005 126.762 138.602  0.00  0.00    +0.000 C 
BRANCH  34  35
ATOM     35  O   UNL     1     111.662 126.248 138.055  0.00  0.00    +0.000 OA
BRANCH  35  41
ATOM     36  O   UNL     1     112.874 125.949 137.360  0.00  0.00    +0.000 OA
ATOM     37  O   UNL     1     111.121 124.715 137.772  0.00  0.00    +0.000 OA
ATOM     38  O   UNL     1     112.063 123.650 136.935  0.00  0.00    +0.000 OA
ATOM     39  O   UNL     1     113.544 124.118 136.381  0.00  0.00    +0.000 OA
ATOM     40  C   UNL     1     111.862 124.949 137.495  0.00  0.00    +0.000 C 
ATOM     41  C   UNL     1     112.132 125.715 137.637  0.00  0.00    +0.000 C 
ATOM     42  C   UNL     1     112.333 124.416 137.076  0.00  0.00    +0.000 C 
ATOM     43  C   UNL     1     113.074 124.650 136.800  0.00  0.00    +0.000 C 
ATOM     44  C   UNL     1     113.344 125.416 136.941  0.00  0.00    +0.000 C 
ATOM     45  C   UNL     1     114.085 125.651 136.665  0.00  0.00    +0.000 C 
ENDBRANCH  35  41
ENDBRANCH  34  35
ENDBRANCH  29  34
ENDBRANCH  24  33
ENDBRANCH   4  24
TORSDOF 8
ENDMDL
MODEL 7
REMARK VINA RESULT:      -9.4      1.225      4.461
REMARK  Name = 5464499
REMARK  8 active torsions:
REMARK  status: ('A' for Active; 'I' for Inactive)
REMARK    1  A    between atoms: O_2  and  C_22
REMARK    2  A    between atoms: O_2  and  C_26
REMARK    3  A    between atoms: O_6  and  C_25
REMARK    4  A    between atoms: O_6  and  C_29
REMARK    5  A    between atoms: O_14  and  C_40
REMARK    6  A    between atoms: O_15  and  C_41
REMARK    7  A    between atoms: C_17  and  C_26
REMARK    8  A    between atoms: C_30  and  C_33
REMARK                            x       y       z     vdW  Elec       q    Type
REMARK                         _______ _______ _______ _____ _____    ______ ____
ROOT
ATOM      1  O   UNL     1     113.634 127.569 136.623  0.00  0.00    +0.000 OA
ATOM      2  O   UNL     1     111.294 126.932 136.127  0.00  0.00    +0.000 OA
ATOM      3  O   UNL     1     111.631 125.531 136.194  0.00  0.00    +0.000 OA
ATOM      4  C   UNL     1     112.283 127.941 136.339  0.00  0.00    +0.000 A 
ATOM      5  C   UNL     1     113.062 128.154 136.504  0.00  0.00    +0.000 A 
ATOM      6  C   UNL     1     112.074 127.144 136.292  0.00  0.00    +0.000 A 
ATOM      7  C   UNL     1     112.644 126.560 136.411  0.00  0.00    +0.000 A 
ATOM      8  C   UNL     1     113.424 126.773 136.577  0.00  0.00    +0.000 A 
ATOM      9  C   UNL     1     112.414 125.734 136.360  0.00  0.00    +0.000 A 
ATOM     10  C   UNL     1     114.027 126.174 136.702  0.00  0.00    +0.000 A 
ATOM     11  C   UNL     1     113.003 125.121 136.483  0.00  0.00    +0.000 A 
ATOM     12  C   UNL     1     113.816 125.343 136.655  0.00  0.00    +0.000 A 
ENDROOT
BRANCH   5  14
ATOM     13  O   UNL     1     113.902 131.340 136.689  0.00  0.00    +0.000 OA
ATOM     14  C   UNL     1     113.272 128.950 136.551  0.00  0.00    +0.000 A 
ATOM     15  C   UNL     1     113.410 129.299 137.286  0.00  0.00    +0.000 A 
ATOM     16  C   UNL     1     113.345 129.398 135.861  0.00  0.00    +0.000 A 
ATOM     17  C   UNL     1     113.620 130.095 137.332  0.00  0.00    +0.000 A 
ATOM     18  C   UNL     1     113.555 130.195 135.908  0.00  0.00    +0.000 A 
ATOM     19  C   UNL     1     113.692 130.543 136.643  0.00  0.00    +0.000 A 
BRANCH  17  20
ATOM     20  O   UNL     1     113.757 130.444 138.067  0.00  0.00    +0.000 OA
ATOM     21  C   UNL     1     113.813 129.973 138.743  0.00  0.00    +0.000 C 
ENDBRANCH  17  20
ENDBRANCH   5  14
BRANCH  12  22
ATOM     22  O   UNL     1     114.388 124.761 136.774  0.00  0.00    +0.000 OA
ATOM     23  C   UNL     1     114.678 124.616 137.533  0.00  0.00    +0.000 C 
ENDBRANCH  12  22
BRANCH   4  24
ATOM     24  O   UNL     1     111.713 128.525 136.220  0.00  0.00    +0.000 OA
BRANCH  24  33
ATOM     25  O   UNL     1     111.117 128.414 137.514  0.00  0.00    +0.000 OA
ATOM     26  O   UNL     1     109.044 128.643 138.158  0.00  0.00    +0.000 OA
ATOM     27  O   UNL     1     108.901 128.924 136.539  0.00  0.00    +0.000 OA
ATOM     28  O   UNL     1     110.235 128.865 135.570  0.00  0.00    +0.000 OA
ATOM     29  C   UNL     1     110.450 128.443 137.999  0.00  0.00    +0.000 C 
ATOM     30  C   UNL     1     109.712 128.613 137.674  0.00  0.00    +0.000 C 
ATOM     31  C   UNL     1     109.639 128.754 136.864  0.00  0.00    +0.000 C 
ATOM     32  C   UNL     1     110.306 128.725 136.379  0.00  0.00    +0.000 C 
ATOM     33  C   UNL     1     111.046 128.554 136.705  0.00  0.00    +0.000 C 
BRANCH  29  34
ATOM     34  C   UNL     1     110.522 128.303 138.809  0.00  0.00    +0.000 C 
BRANCH  34  35
ATOM     35  O   UNL     1     110.950 127.650 139.077  0.00  0.00    +0.000 OA
BRANCH  35  41
ATOM     36  O   UNL     1     111.075 128.204 140.388  0.00  0.00    +0.000 OA
ATOM     37  O   UNL     1     111.254 126.146 139.683  0.00  0.00    +0.000 OA
ATOM     38  O   UNL     1     111.530 125.947 141.297  0.00  0.00    +0.000 OA
ATOM     39  O   UNL     1     111.503 127.253 142.305  0.00  0.00    +0.000 OA
ATOM     40  C   UNL     1     111.240 126.798 140.187  0.00  0.00    +0.000 C 
ATOM     41  C   UNL     1     111.088 127.550 139.884  0.00  0.00    +0.000 C 
ATOM     42  C   UNL     1     111.378 126.700 140.994  0.00  0.00    +0.000 C 
ATOM     43  C   UNL     1     111.365 127.352 141.498  0.00  0.00    +0.000 C 
ATOM     44  C   UNL     1     111.213 128.104 141.195  0.00  0.00    +0.000 C 
ATOM     45  C   UNL     1     111.200 128.757 141.699  0.00  0.00    +0.000 C 
ENDBRANCH  35  41
ENDBRANCH  34  35
ENDBRANCH  29  34
ENDBRANCH  24  33
ENDBRANCH   4  24
TORSDOF 8
ENDMDL
MODEL 8
REMARK VINA RESULT:      -9.4      1.608      3.147
REMARK  Name = 5464499
REMARK  8 active torsions:
REMARK  status: ('A' for Active; 'I' for Inactive)
REMARK    1  A    between atoms: O_2  and  C_22
REMARK    2  A    between atoms: O_2  and  C_26
REMARK    3  A    between atoms: O_6  and  C_25
REMARK    4  A    between atoms: O_6  and  C_29
REMARK    5  A    between atoms: O_14  and  C_40
REMARK    6  A    between atoms: O_15  and  C_41
REMARK    7  A    between atoms: C_17  and  C_26
REMARK    8  A    between atoms: C_30  and  C_33
REMARK                            x       y       z     vdW  Elec       q    Type
REMARK                         _______ _______ _______ _____ _____    ______ ____
ROOT
ATOM      1  O   UNL     1     112.850 128.129 137.339  0.00  0.00    +0.000 OA
ATOM      2  O   UNL     1     111.465 128.032 135.290  0.00  0.00    +0.000 OA
ATOM      3  O   UNL     1     112.350 128.949 134.614  0.00  0.00    +0.000 OA
ATOM      4  C   UNL     1     111.711 127.626 136.638  0.00  0.00    +0.000 A 
ATOM      5  C   UNL     1     112.173 127.658 137.321  0.00  0.00    +0.000 A 
ATOM      6  C   UNL     1     111.927 128.065 135.973  0.00  0.00    +0.000 A 
ATOM      7  C   UNL     1     112.603 128.535 135.991  0.00  0.00    +0.000 A 
ATOM      8  C   UNL     1     113.065 128.568 136.674  0.00  0.00    +0.000 A 
ATOM      9  C   UNL     1     112.818 128.988 135.293  0.00  0.00    +0.000 A 
ATOM     10  C   UNL     1     113.773 129.055 136.706  0.00  0.00    +0.000 A 
ATOM     11  C   UNL     1     113.521 129.480 135.306  0.00  0.00    +0.000 A 
ATOM     12  C   UNL     1     114.003 129.514 136.018  0.00  0.00    +0.000 A 
ENDROOT
BRANCH   5  14
ATOM     13  O   UNL     1     111.314 125.902 139.979  0.00  0.00    +0.000 OA
ATOM     14  C   UNL     1     111.958 127.220 137.985  0.00  0.00    +0.000 A 
ATOM     15  C   UNL     1     111.623 127.597 138.639  0.00  0.00    +0.000 A 
ATOM     16  C   UNL     1     112.078 126.403 137.997  0.00  0.00    +0.000 A 
ATOM     17  C   UNL     1     111.408 127.157 139.303  0.00  0.00    +0.000 A 
ATOM     18  C   UNL     1     111.863 125.964 138.662  0.00  0.00    +0.000 A 
ATOM     19  C   UNL     1     111.528 126.341 139.315  0.00  0.00    +0.000 A 
BRANCH  17  20
ATOM     20  O   UNL     1     111.074 127.534 139.956  0.00  0.00    +0.000 OA
ATOM     21  C   UNL     1     111.403 128.235 140.241  0.00  0.00    +0.000 C 
ENDBRANCH  17  20
ENDBRANCH   5  14
BRANCH  12  22
ATOM     22  O   UNL     1     114.680 129.984 136.039  0.00  0.00    +0.000 OA
ATOM     23  C   UNL     1     114.614 130.798 136.159  0.00  0.00    +0.000 C 
ENDBRANCH  12  22
BRANCH   4  24
ATOM     24  O   UNL     1     111.034 127.155 136.619  0.00  0.00    +0.000 OA
BRANCH  24  33
ATOM     25  O   UNL     1     110.132 128.259 136.711  0.00  0.00    +0.000 OA
ATOM     26  O   UNL     1     108.099 128.510 135.958  0.00  0.00    +0.000 OA
ATOM     27  O   UNL     1     108.436 126.979 135.444  0.00  0.00    +0.000 OA
ATOM     28  O   UNL     1     109.903 126.301 135.775  0.00  0.00    +0.000 OA
ATOM     29  C   UNL     1     109.398 128.598 136.545  0.00  0.00    +0.000 C 
ATOM     30  C   UNL     1     108.833 128.171 136.123  0.00  0.00    +0.000 C 
ATOM     31  C   UNL     1     109.001 127.405 135.866  0.00  0.00    +0.000 C 
ATOM     32  C   UNL     1     109.734 127.067 136.031  0.00  0.00    +0.000 C 
ATOM     33  C   UNL     1     110.301 127.494 136.454  0.00  0.00    +0.000 C 
BRANCH  29  34
ATOM     34  C   UNL     1     109.231 129.364 136.802  0.00  0.00    +0.000 C 
BRANCH  34  35
ATOM     35  O   UNL     1     109.217 129.533 137.610  0.00  0.00    +0.000 OA
BRANCH  35  41
ATOM     36  O   UNL     1     109.978 130.732 137.448  0.00  0.00    +0.000 OA
ATOM     37  O   UNL     1     108.572 130.132 139.006  0.00  0.00    +0.000 OA
ATOM     38  O   UNL     1     109.011 131.629 139.542  0.00  0.00    +0.000 OA
ATOM     39  O   UNL     1     110.094 132.527 138.683  0.00  0.00    +0.000 OA
ATOM     40  C   UNL     1     109.113 130.581 138.576  0.00  0.00    +0.000 C 
ATOM     41  C   UNL     1     109.436 130.282 137.878  0.00  0.00    +0.000 C 
ATOM     42  C   UNL     1     109.333 131.330 138.844  0.00  0.00    +0.000 C 
ATOM     43  C   UNL     1     109.875 131.779 138.415  0.00  0.00    +0.000 C 
ATOM     44  C   UNL     1     110.197 131.480 137.717  0.00  0.00    +0.000 C 
ATOM     45  C   UNL     1     110.739 131.929 137.287  0.00  0.00    +0.000 C 
ENDBRANCH  35  41
ENDBRANCH  34  35
ENDBRANCH  29  34
ENDBRANCH  24  33
ENDBRANCH   4  24
TORSDOF 8
ENDMDL
MODEL 9
REMARK VINA RESULT:      -9.4      1.352      3.528
REMARK  Name = 5464499
REMARK  8 active torsions:
REMARK  status: ('A' for Active; 'I' for Inactive)
REMARK    1  A    between atoms: O_2  and  C_22
REMARK    2  A    between atoms: O_2  and  C_26
REMARK    3  A    between atoms: O_6  and  C_25
REMARK    4  A    between atoms: O_6  and  C_29
REMARK    5  A    between atoms: O_14  and  C_40
REMARK    6  A    between atoms: O_15  and  C_41
REMARK    7  A    between atoms: C_17  and  C_26
REMARK    8  A    between atoms: C_30  and  C_33
REMARK                            x       y       z     vdW  Elec       q    Type
REMARK                         _______ _______ _______ _____ _____    ______ ____
ROOT
ATOM      1  O   UNL     1     112.563 128.162 135.434  0.00  0.00    +0.000 OA
ATOM      2  O   UNL     1     111.411 130.137 136.383  0.00  0.00    +0.000 OA
ATOM      3  O   UNL     1     112.640 130.891 136.382  0.00  0.00    +0.000 OA
ATOM      4  C   UNL     1     111.370 128.787 135.914  0.00  0.00    +0.000 A 
ATOM      5  C   UNL     1     111.755 128.129 135.598  0.00  0.00    +0.000 A 
ATOM      6  C   UNL     1     111.795 129.479 136.067  0.00  0.00    +0.000 A 
ATOM      7  C   UNL     1     112.602 129.512 135.903  0.00  0.00    +0.000 A 
ATOM      8  C   UNL     1     112.986 128.854 135.587  0.00  0.00    +0.000 A 
ATOM      9  C   UNL     1     113.033 130.238 136.066  0.00  0.00    +0.000 A 
ATOM     10  C   UNL     1     113.828 128.876 135.412  0.00  0.00    +0.000 A 
ATOM     11  C   UNL     1     113.874 130.278 135.898  0.00  0.00    +0.000 A 
ATOM     12  C   UNL     1     114.275 129.592 135.568  0.00  0.00    +0.000 A 
ENDROOT
BRANCH   5  14
ATOM     13  O   UNL     1     110.061 125.364 134.986  0.00  0.00    +0.000 OA
ATOM     14  C   UNL     1     111.332 127.438 135.446  0.00  0.00    +0.000 A 
ATOM     15  C   UNL     1     111.392 126.795 135.959  0.00  0.00    +0.000 A 
ATOM     16  C   UNL     1     110.847 127.390 134.779  0.00  0.00    +0.000 A 
ATOM     17  C   UNL     1     110.968 126.104 135.805  0.00  0.00    +0.000 A 
ATOM     18  C   UNL     1     110.424 126.698 134.626  0.00  0.00    +0.000 A 
ATOM     19  C   UNL     1     110.485 126.055 135.139  0.00  0.00    +0.000 A 
BRANCH  17  20
ATOM     20  O   UNL     1     111.029 125.460 136.318  0.00  0.00    +0.000 OA
ATOM     21  C   UNL     1     111.766 125.239 136.618  0.00  0.00    +0.000 C 
ENDBRANCH  17  20
ENDBRANCH   5  14
BRANCH  12  22
ATOM     22  O   UNL     1     115.083 129.623 135.404  0.00  0.00    +0.000 OA
ATOM     23  C   UNL     1     115.347 129.957 134.697  0.00  0.00    +0.000 C 
ENDBRANCH  12  22
BRANCH   4  24
ATOM     24  O   UNL     1     110.563 128.754 136.078  0.00  0.00    +0.000 OA
BRANCH  24  33
ATOM     25  O   UNL     1     110.728 128.699 137.497  0.00  0.00    +0.000 OA
ATOM     26  O   UNL     1     109.465 129.446 139.112  0.00  0.00    +0.000 OA
ATOM     27  O   UNL     1     108.586 129.903 137.792  0.00  0.00    +0.000 OA
ATOM     28  O   UNL     1     109.135 129.557 136.275  0.00  0.00    +0.000 OA
ATOM     29  C   UNL     1     110.453 128.872 138.255  0.00  0.00    +0.000 C 
ATOM     30  C   UNL     1     109.740 129.273 138.354  0.00  0.00    +0.000 C 
ATOM     31  C   UNL     1     109.300 129.502 137.694  0.00  0.00    +0.000 C 
ATOM     32  C   UNL     1     109.574 129.329 136.935  0.00  0.00    +0.000 C 
ATOM     33  C   UNL     1     110.289 128.927 136.836  0.00  0.00    +0.000 C 
BRANCH  29  34
ATOM     34  C   UNL     1     110.893 128.643 138.915  0.00  0.00    +0.000 C 
BRANCH  34  35
ATOM     35  O   UNL     1     111.160 127.865 138.982  0.00  0.00    +0.000 OA
BRANCH  35  41
ATOM     36  O   UNL     1     112.400 128.176 139.620  0.00  0.00    +0.000 OA
ATOM     37  O   UNL     1     111.040 126.491 139.887  0.00  0.00    +0.000 OA
ATOM     38  O   UNL     1     112.220 126.115 140.977  0.00  0.00    +0.000 OA
ATOM     39  O   UNL     1     113.519 127.113 141.162  0.00  0.00    +0.000 OA
ATOM     40  C   UNL     1     111.689 126.989 139.980  0.00  0.00    +0.000 C 
ATOM     41  C   UNL     1     111.750 127.677 139.527  0.00  0.00    +0.000 C 
ATOM     42  C   UNL     1     112.280 126.802 140.525  0.00  0.00    +0.000 C 
ATOM     43  C   UNL     1     112.929 127.301 140.618  0.00  0.00    +0.000 C 
ATOM     44  C   UNL     1     112.990 127.988 140.165  0.00  0.00    +0.000 C 
ATOM     45  C   UNL     1     113.639 128.488 140.258  0.00  0.00    +0.000 C 
ENDBRANCH  35  41
ENDBRANCH  34  35
ENDBRANCH  29  34
ENDBRANCH  24  33
ENDBRANCH   4  24
TORSDOF 8
ENDMDL
MODEL 10
REMARK VINA RESULT:      -9.4      1.376      4.262
REMARK  Name = 5464499
REMARK  8 active torsions:
REMARK  status: ('A' for Active; 'I' for Inactive)
REMARK    1  A    between atoms: O_2  and  C_22
REMARK    2  A    between atoms: O_2  and  C_26
REMARK    3  A    between atoms: O_6  and  C_25
REMARK    4  A    between atoms: O_6  and  C_29
REMARK    5  A    between atoms: O_14  and  C_40
REMARK    6  A    between atoms: O_15  and  C_41
REMARK    7  A    between atoms: C_17  and  C_26
REMARK    8  A    between atoms: C_30  and  C_33
REMARK                            x       y       z     vdW  Elec       q    Type
REMARK                         _______ _______ _______ _____ _____    ______ ____
ROOT
ATOM      1  O   UNL     1     113.257 126.194 138.789  0.00  0.00    +0.000 OA
ATOM      2  O   UNL     1     111.273 126.326 137.315  0.00  0.00    +0.000 OA
ATOM      3  O   UNL     1     111.954 125.581 136.284  0.00  0.00    +0.000 OA
ATOM      4  C   UNL     1     111.916 126.629 138.555  0.00  0.00    +0.000 A 
ATOM      5  C   UNL     1     112.577 126.585 139.046  0.00  0.00    +0.000 A 
ATOM      6  C   UNL     1     111.935 126.282 137.807  0.00  0.00    +0.000 A 
ATOM      7  C   UNL     1     112.613 125.890 137.550  0.00  0.00    +0.000 A 
ATOM      8  C   UNL     1     113.275 125.846 138.041  0.00  0.00    +0.000 A 
ATOM      9  C   UNL     1     112.620 125.532 136.768  0.00  0.00    +0.000 A 
ATOM     10  C   UNL     1     113.988 125.441 137.785  0.00  0.00    +0.000 A 
ATOM     11  C   UNL     1     113.324 125.123 136.496  0.00  0.00    +0.000 A 
ATOM     12  C   UNL     1     114.014 125.077 137.008  0.00  0.00    +0.000 A 
ENDROOT
BRANCH   5  14
ATOM     13  O   UNL     1     112.506 127.973 142.039  0.00  0.00    +0.000 OA
ATOM     14  C   UNL     1     112.560 126.933 139.794  0.00  0.00    +0.000 A 
ATOM     15  C   UNL     1     112.979 127.629 139.936  0.00  0.00    +0.000 A 
ATOM     16  C   UNL     1     112.123 126.582 140.401  0.00  0.00    +0.000 A 
ATOM     17  C   UNL     1     112.960 127.976 140.684  0.00  0.00    +0.000 A 
ATOM     18  C   UNL     1     112.106 126.930 141.149  0.00  0.00    +0.000 A 
ATOM     19  C   UNL     1     112.525 127.626 141.291  0.00  0.00    +0.000 A 
BRANCH  17  20
ATOM     20  O   UNL     1     113.379 128.672 140.826  0.00  0.00    +0.000 OA
ATOM     21  C   UNL     1     114.046 128.853 140.374  0.00  0.00    +0.000 C 
ENDBRANCH  17  20
ENDBRANCH   5  14
BRANCH  12  22
ATOM     22  O   UNL     1     114.694 124.687 136.753  0.00  0.00    +0.000 OA
ATOM     23  C   UNL     1     115.239 125.077 136.272  0.00  0.00    +0.000 C 
ENDBRANCH  12  22
BRANCH   4  24
ATOM     24  O   UNL     1     111.237 127.021 138.811  0.00  0.00    +0.000 OA
BRANCH  24  33
ATOM     25  O   UNL     1     111.458 128.133 137.941  0.00  0.00    +0.000 OA
ATOM     26  O   UNL     1     110.066 129.588 137.100  0.00  0.00    +0.000 OA
ATOM     27  O   UNL     1     109.038 128.648 137.984  0.00  0.00    +0.000 OA
ATOM     28  O   UNL     1     109.624 127.364 138.840  0.00  0.00    +0.000 OA
ATOM     29  C   UNL     1     111.165 128.774 137.513  0.00  0.00    +0.000 C 
ATOM     30  C   UNL     1     110.359 128.946 137.528  0.00  0.00    +0.000 C 
ATOM     31  C   UNL     1     109.844 128.476 137.970  0.00  0.00    +0.000 C 
ATOM     32  C   UNL     1     110.137 127.834 138.398  0.00  0.00    +0.000 C 
ATOM     33  C   UNL     1     110.945 127.662 138.383  0.00  0.00    +0.000 C 
BRANCH  29  34
ATOM     34  C   UNL     1     111.680 129.244 137.071  0.00  0.00    +0.000 C 
BRANCH  34  35
ATOM     35  O   UNL     1     112.349 129.570 137.428  0.00  0.00    +0.000 OA
BRANCH  35  41
ATOM     36  O   UNL     1     113.323 129.181 136.457  0.00  0.00    +0.000 OA
ATOM     37  O   UNL     1     113.064 131.052 137.551  0.00  0.00    +0.000 OA
ATOM     38  O   UNL     1     114.395 131.404 136.641  0.00  0.00    +0.000 OA
ATOM     39  O   UNL     1     115.011 130.274 135.610  0.00  0.00    +0.000 OA
ATOM     40  C   UNL     1     113.372 130.488 137.035  0.00  0.00    +0.000 C 
ATOM     41  C   UNL     1     113.014 129.747 136.973  0.00  0.00    +0.000 C 
ATOM     42  C   UNL     1     114.038 130.663 136.580  0.00  0.00    +0.000 C 
ATOM     43  C   UNL     1     114.346 130.098 136.064  0.00  0.00    +0.000 C 
ATOM     44  C   UNL     1     113.988 129.357 136.003  0.00  0.00    +0.000 C 
ATOM     45  C   UNL     1     114.296 128.792 135.487  0.00  0.00    +0.000 C 
ENDBRANCH  35  41
ENDBRANCH  34  35
ENDBRANCH  29  34
ENDBRANCH  24  33
ENDBRANCH   4  24
TORSDOF 8
ENDMDL
