MODEL 1
REMARK VINA RESULT:      -9.6      0.000      0.000
REMARK  Name = 131752828
REMARK  9 active torsions:
REMARK  status: ('A' for Active; 'I' for Inactive)
REMARK    1  A    between atoms: O_1  and  C_18
REMARK    2  A    between atoms: O_1  and  C_20
REMARK    3  A    between atoms: O_5  and  C_24
REMARK    4  A    between atoms: O_5  and  C_30
REMARK    5  A    between atoms: O_10  and  C_29
REMARK    6  A    between atoms: O_10  and  C_33
REMARK    7  A    between atoms: C_25  and  C_28
REMARK    8  A    between atoms: C_27  and  C_29
REMARK    9  A    between atoms: C_31  and  C_35
REMARK                            x       y       z     vdW  Elec       q    Type
REMARK                         _______ _______ _______ _____ _____    ______ ____
ROOT
ATOM      1  O   UNL     1     111.297 127.878 138.696  0.00  0.00    +0.000 OA
ATOM      2  O   UNL     1     111.061 125.458 139.157  0.00  0.00    +0.000 OA
ATOM      3  O   UNL     1     109.863 126.503 139.597  0.00  0.00    +0.000 OA
ATOM      4  C   UNL     1     111.818 126.548 138.629  0.00  0.00    +0.000 C 
ATOM      5  C   UNL     1     111.140 126.264 139.004  0.00  0.00    +0.000 C 
ATOM      6  C   UNL     1     110.541 126.786 139.224  0.00  0.00    +0.000 C 
ATOM      7  C   UNL     1     111.897 127.355 138.475  0.00  0.00    +0.000 C 
ATOM      8  C   UNL     1     110.620 127.593 139.070  0.00  0.00    +0.000 C 
ENDROOT
BRANCH   8  10
ATOM      9  O   UNL     1     109.588 128.514 138.710  0.00  0.00    +0.000 OA
ATOM     10  C   UNL     1     110.021 128.116 139.290  0.00  0.00    +0.000 C 
ENDBRANCH   8  10
BRANCH   4  11
ATOM     11  O   UNL     1     112.417 126.026 138.409  0.00  0.00    +0.000 OA
BRANCH  11  16
ATOM     12  O   UNL     1     111.650 125.622 137.273  0.00  0.00    +0.000 OA
ATOM     13  O   UNL     1     113.572 124.913 138.024  0.00  0.00    +0.000 OA
ATOM     14  O   UNL     1     113.382 123.952 136.696  0.00  0.00    +0.000 OA
ATOM     15  O   UNL     1     112.037 124.105 135.753  0.00  0.00    +0.000 OA
ATOM     16  C   UNL     1     112.322 125.546 137.745  0.00  0.00    +0.000 C 
ATOM     17  C   UNL     1     112.900 124.989 137.552  0.00  0.00    +0.000 C 
ATOM     18  C   UNL     1     112.805 124.508 136.888  0.00  0.00    +0.000 C 
ATOM     19  C   UNL     1     112.132 124.585 136.417  0.00  0.00    +0.000 C 
ATOM     20  C   UNL     1     111.555 125.142 136.609  0.00  0.00    +0.000 C 
BRANCH  20  21
ATOM     21  C   UNL     1     110.882 125.219 136.138  0.00  0.00    +0.000 C 
BRANCH  21  22
ATOM     22  O   UNL     1     110.719 125.935 135.764  0.00  0.00    +0.000 OA
BRANCH  22  24
ATOM     23  O   UNL     1     109.343 126.284 135.917  0.00  0.00    +0.000 OA
ATOM     24  C   UNL     1     109.976 126.069 135.434  0.00  0.00    +0.000 C 
ATOM     25  C   UNL     1     109.864 125.988 134.620  0.00  0.00    +0.000 C 
ENDBRANCH  22  24
ENDBRANCH  21  22
ENDBRANCH  20  21
ENDBRANCH  11  16
ENDBRANCH   4  11
BRANCH   7  26
ATOM     26  O   UNL     1     112.575 127.639 138.101  0.00  0.00    +0.000 OA
BRANCH  26  31
ATOM     27  O   UNL     1     113.444 129.641 138.125  0.00  0.00    +0.000 OA
ATOM     28  O   UNL     1     113.017 127.768 139.686  0.00  0.00    +0.000 OA
ATOM     29  O   UNL     1     113.602 128.507 140.779  0.00  0.00    +0.000 OA
ATOM     30  O   UNL     1     114.639 131.191 140.282  0.00  0.00    +0.000 OA
ATOM     31  C   UNL     1     112.938 128.328 138.374  0.00  0.00    +0.000 A 
ATOM     32  C   UNL     1     113.081 128.952 137.853  0.00  0.00    +0.000 A 
ATOM     33  C   UNL     1     113.159 128.392 139.165  0.00  0.00    +0.000 A 
ATOM     34  C   UNL     1     113.523 129.081 139.437  0.00  0.00    +0.000 A 
ATOM     35  C   UNL     1     113.665 129.706 138.918  0.00  0.00    +0.000 A 
ATOM     36  C   UNL     1     113.749 129.137 140.265  0.00  0.00    +0.000 A 
ATOM     37  C   UNL     1     114.043 130.428 139.188  0.00  0.00    +0.000 A 
ATOM     38  C   UNL     1     114.127 129.852 140.554  0.00  0.00    +0.000 A 
ATOM     39  C   UNL     1     114.275 130.501 140.012  0.00  0.00    +0.000 A 
BRANCH  32  41
ATOM     40  O   UNL     1     112.198 128.695 134.684  0.00  0.00    +0.000 OA
ATOM     41  C   UNL     1     112.860 128.888 137.061  0.00  0.00    +0.000 A 
ATOM     42  C   UNL     1     113.341 128.478 136.531  0.00  0.00    +0.000 A 
ATOM     43  C   UNL     1     112.158 129.234 136.798  0.00  0.00    +0.000 A 
ATOM     44  C   UNL     1     113.120 128.414 135.738  0.00  0.00    +0.000 A 
ATOM     45  C   UNL     1     111.937 129.169 136.007  0.00  0.00    +0.000 A 
ATOM     46  C   UNL     1     112.418 128.759 135.477  0.00  0.00    +0.000 A 
ENDBRANCH  32  41
ENDBRANCH  26  31
ENDBRANCH   7  26
TORSDOF 9
ENDMDL
MODEL 2
REMARK VINA RESULT:      -9.5      1.899      4.624
REMARK  Name = 131752828
REMARK  9 active torsions:
REMARK  status: ('A' for Active; 'I' for Inactive)
REMARK    1  A    between atoms: O_1  and  C_18
REMARK    2  A    between atoms: O_1  and  C_20
REMARK    3  A    between atoms: O_5  and  C_24
REMARK    4  A    between atoms: O_5  and  C_30
REMARK    5  A    between atoms: O_10  and  C_29
REMARK    6  A    between atoms: O_10  and  C_33
REMARK    7  A    between atoms: C_25  and  C_28
REMARK    8  A    between atoms: C_27  and  C_29
REMARK    9  A    between atoms: C_31  and  C_35
REMARK                            x       y       z     vdW  Elec       q    Type
REMARK                         _______ _______ _______ _____ _____    ______ ____
ROOT
ATOM      1  O   UNL     1     111.589 127.960 138.324  0.00  0.00    +0.000 OA
ATOM      2  O   UNL     1     109.280 128.713 138.803  0.00  0.00    +0.000 OA
ATOM      3  O   UNL     1     110.403 128.675 140.010  0.00  0.00    +0.000 OA
ATOM      4  C   UNL     1     110.257 128.230 137.879  0.00  0.00    +0.000 C 
ATOM      5  C   UNL     1     110.050 128.462 138.643  0.00  0.00    +0.000 C 
ATOM      6  C   UNL     1     110.611 128.443 139.247  0.00  0.00    +0.000 C 
ATOM      7  C   UNL     1     111.027 127.979 137.719  0.00  0.00    +0.000 C 
ATOM      8  C   UNL     1     111.380 128.192 139.087  0.00  0.00    +0.000 C 
ENDROOT
BRANCH   8  10
ATOM      9  O   UNL     1     112.629 128.627 139.629  0.00  0.00    +0.000 OA
ATOM     10  C   UNL     1     111.942 128.173 139.691  0.00  0.00    +0.000 C 
ENDBRANCH   8  10
BRANCH   4  11
ATOM     11  O   UNL     1     109.696 128.249 137.275  0.00  0.00    +0.000 OA
BRANCH  11  16
ATOM     12  O   UNL     1     109.860 129.664 137.165  0.00  0.00    +0.000 OA
ATOM     13  O   UNL     1     108.519 128.296 136.120  0.00  0.00    +0.000 OA
ATOM     14  O   UNL     1     108.094 129.735 135.433  0.00  0.00    +0.000 OA
ATOM     15  O   UNL     1     108.846 131.127 135.902  0.00  0.00    +0.000 OA
ATOM     16  C   UNL     1     109.484 128.968 136.932  0.00  0.00    +0.000 C 
ATOM     17  C   UNL     1     108.895 128.992 136.354  0.00  0.00    +0.000 C 
ATOM     18  C   UNL     1     108.682 129.711 136.010  0.00  0.00    +0.000 C 
ATOM     19  C   UNL     1     109.059 130.407 136.245  0.00  0.00    +0.000 C 
ATOM     20  C   UNL     1     109.647 130.384 136.822  0.00  0.00    +0.000 C 
BRANCH  20  21
ATOM     21  C   UNL     1     110.024 131.079 137.057  0.00  0.00    +0.000 C 
BRANCH  21  22
ATOM     22  O   UNL     1     110.846 131.133 137.029  0.00  0.00    +0.000 OA
BRANCH  22  24
ATOM     23  O   UNL     1     111.298 131.751 138.235  0.00  0.00    +0.000 OA
ATOM     24  C   UNL     1     111.232 131.752 137.413  0.00  0.00    +0.000 C 
ATOM     25  C   UNL     1     111.553 132.374 136.975  0.00  0.00    +0.000 C 
ENDBRANCH  22  24
ENDBRANCH  21  22
ENDBRANCH  20  21
ENDBRANCH  11  16
ENDBRANCH   4  11
BRANCH   7  26
ATOM     26  O   UNL     1     111.235 127.747 136.956  0.00  0.00    +0.000 OA
BRANCH  26  31
ATOM     27  O   UNL     1     112.861 126.452 136.290  0.00  0.00    +0.000 OA
ATOM     28  O   UNL     1     110.764 126.301 137.596  0.00  0.00    +0.000 OA
ATOM     29  O   UNL     1     110.970 124.890 137.818  0.00  0.00    +0.000 OA
ATOM     30  O   UNL     1     113.343 123.609 136.697  0.00  0.00    +0.000 OA
ATOM     31  C   UNL     1     111.699 127.074 136.840  0.00  0.00    +0.000 A 
ATOM     32  C   UNL     1     112.398 127.125 136.405  0.00  0.00    +0.000 A 
ATOM     33  C   UNL     1     111.463 126.352 137.160  0.00  0.00    +0.000 A 
ATOM     34  C   UNL     1     111.927 125.679 137.045  0.00  0.00    +0.000 A 
ATOM     35  C   UNL     1     112.626 125.729 136.610  0.00  0.00    +0.000 A 
ATOM     36  C   UNL     1     111.671 124.931 137.384  0.00  0.00    +0.000 A 
ATOM     37  C   UNL     1     113.118 125.036 136.483  0.00  0.00    +0.000 A 
ATOM     38  C   UNL     1     112.150 124.227 137.267  0.00  0.00    +0.000 A 
ATOM     39  C   UNL     1     112.877 124.280 136.814  0.00  0.00    +0.000 A 
BRANCH  32  41
ATOM     40  O   UNL     1     113.340 130.017 135.124  0.00  0.00    +0.000 OA
ATOM     41  C   UNL     1     112.634 127.847 136.085  0.00  0.00    +0.000 A 
ATOM     42  C   UNL     1     112.285 128.124 135.391  0.00  0.00    +0.000 A 
ATOM     43  C   UNL     1     113.218 128.294 136.459  0.00  0.00    +0.000 A 
ATOM     44  C   UNL     1     112.521 128.848 135.070  0.00  0.00    +0.000 A 
ATOM     45  C   UNL     1     113.453 129.017 136.139  0.00  0.00    +0.000 A 
ATOM     46  C   UNL     1     113.105 129.293 135.445  0.00  0.00    +0.000 A 
ENDBRANCH  32  41
ENDBRANCH  26  31
ENDBRANCH   7  26
TORSDOF 9
ENDMDL
MODEL 3
REMARK VINA RESULT:      -9.4      1.919      3.773
REMARK  Name = 131752828
REMARK  9 active torsions:
REMARK  status: ('A' for Active; 'I' for Inactive)
REMARK    1  A    between atoms: O_1  and  C_18
REMARK    2  A    between atoms: O_1  and  C_20
REMARK    3  A    between atoms: O_5  and  C_24
REMARK    4  A    between atoms: O_5  and  C_30
REMARK    5  A    between atoms: O_10  and  C_29
REMARK    6  A    between atoms: O_10  and  C_33
REMARK    7  A    between atoms: C_25  and  C_28
REMARK    8  A    between atoms: C_27  and  C_29
REMARK    9  A    between atoms: C_31  and  C_35
REMARK                            x       y       z     vdW  Elec       q    Type
REMARK                         _______ _______ _______ _____ _____    ______ ____
ROOT
ATOM      1  O   UNL     1     110.216 128.572 137.960  0.00  0.00    +0.000 OA
ATOM      2  O   UNL     1     109.463 126.242 138.319  0.00  0.00    +0.000 OA
ATOM      3  O   UNL     1     109.455 127.314 139.572  0.00  0.00    +0.000 OA
ATOM      4  C   UNL     1     109.969 127.259 137.452  0.00  0.00    +0.000 C 
ATOM      5  C   UNL     1     109.714 127.019 138.199  0.00  0.00    +0.000 C 
ATOM      6  C   UNL     1     109.710 127.554 138.826  0.00  0.00    +0.000 C 
ATOM      7  C   UNL     1     110.220 128.035 137.333  0.00  0.00    +0.000 C 
ATOM      8  C   UNL     1     109.961 128.331 138.707  0.00  0.00    +0.000 C 
ENDROOT
BRANCH   8  10
ATOM      9  O   UNL     1     110.663 129.213 139.584  0.00  0.00    +0.000 OA
ATOM     10  C   UNL     1     109.957 128.867 139.333  0.00  0.00    +0.000 C 
ENDBRANCH   8  10
BRANCH   4  11
ATOM     11  O   UNL     1     109.973 126.723 136.826  0.00  0.00    +0.000 OA
BRANCH  11  16
ATOM     12  O   UNL     1     111.166 126.129 137.341  0.00  0.00    +0.000 OA
ATOM     13  O   UNL     1     109.980 125.649 135.573  0.00  0.00    +0.000 OA
ATOM     14  O   UNL     1     111.177 124.518 135.463  0.00  0.00    +0.000 OA
ATOM     15  O   UNL     1     112.366 124.461 136.606  0.00  0.00    +0.000 OA
ATOM     16  C   UNL     1     110.571 126.158 136.771  0.00  0.00    +0.000 C 
ATOM     17  C   UNL     1     110.575 125.620 136.144  0.00  0.00    +0.000 C 
ATOM     18  C   UNL     1     111.173 125.054 136.089  0.00  0.00    +0.000 C 
ATOM     19  C   UNL     1     111.768 125.026 136.661  0.00  0.00    +0.000 C 
ATOM     20  C   UNL     1     111.764 125.563 137.287  0.00  0.00    +0.000 C 
BRANCH  20  21
ATOM     21  C   UNL     1     112.359 125.535 137.858  0.00  0.00    +0.000 C 
BRANCH  21  22
ATOM     22  O   UNL     1     112.838 126.193 137.989  0.00  0.00    +0.000 OA
BRANCH  22  24
ATOM     23  O   UNL     1     114.116 125.822 138.505  0.00  0.00    +0.000 OA
ATOM     24  C   UNL     1     113.384 126.190 138.605  0.00  0.00    +0.000 C 
ATOM     25  C   UNL     1     113.201 126.553 139.323  0.00  0.00    +0.000 C 
ENDBRANCH  22  24
ENDBRANCH  21  22
ENDBRANCH  20  21
ENDBRANCH  11  16
ENDBRANCH   4  11
BRANCH   7  26
ATOM     26  O   UNL     1     110.475 128.277 136.586  0.00  0.00    +0.000 OA
BRANCH  26  31
ATOM     27  O   UNL     1     110.647 130.287 135.755  0.00  0.00    +0.000 OA
ATOM     28  O   UNL     1     108.889 128.727 136.531  0.00  0.00    +0.000 OA
ATOM     29  O   UNL     1     107.859 129.689 136.223  0.00  0.00    +0.000 OA
ATOM     30  O   UNL     1     108.622 132.278 135.108  0.00  0.00    +0.000 OA
ATOM     31  C   UNL     1     110.268 129.022 136.300  0.00  0.00    +0.000 A 
ATOM     32  C   UNL     1     110.855 129.542 136.041  0.00  0.00    +0.000 A 
ATOM     33  C   UNL     1     109.476 129.247 136.272  0.00  0.00    +0.000 A 
ATOM     34  C   UNL     1     109.268 129.992 135.986  0.00  0.00    +0.000 A 
ATOM     35  C   UNL     1     109.853 130.513 135.727  0.00  0.00    +0.000 A 
ATOM     36  C   UNL     1     108.438 130.216 135.962  0.00  0.00    +0.000 A 
ATOM     37  C   UNL     1     109.651 131.292 135.426  0.00  0.00    +0.000 A 
ATOM     38  C   UNL     1     108.216 130.991 135.664  0.00  0.00    +0.000 A 
ATOM     39  C   UNL     1     108.827 131.532 135.395  0.00  0.00    +0.000 A 
BRANCH  32  41
ATOM     40  O   UNL     1     114.027 128.641 136.151  0.00  0.00    +0.000 OA
ATOM     41  C   UNL     1     111.647 129.317 136.069  0.00  0.00    +0.000 A 
ATOM     42  C   UNL     1     111.964 128.848 135.469  0.00  0.00    +0.000 A 
ATOM     43  C   UNL     1     112.124 129.560 136.696  0.00  0.00    +0.000 A 
ATOM     44  C   UNL     1     112.758 128.622 135.496  0.00  0.00    +0.000 A 
ATOM     45  C   UNL     1     112.917 129.336 136.724  0.00  0.00    +0.000 A 
ATOM     46  C   UNL     1     113.234 128.867 136.124  0.00  0.00    +0.000 A 
ENDBRANCH  32  41
ENDBRANCH  26  31
ENDBRANCH   7  26
TORSDOF 9
ENDMDL
MODEL 4
REMARK VINA RESULT:      -9.4      1.703      4.314
REMARK  Name = 131752828
REMARK  9 active torsions:
REMARK  status: ('A' for Active; 'I' for Inactive)
REMARK    1  A    between atoms: O_1  and  C_18
REMARK    2  A    between atoms: O_1  and  C_20
REMARK    3  A    between atoms: O_5  and  C_24
REMARK    4  A    between atoms: O_5  and  C_30
REMARK    5  A    between atoms: O_10  and  C_29
REMARK    6  A    between atoms: O_10  and  C_33
REMARK    7  A    between atoms: C_25  and  C_28
REMARK    8  A    between atoms: C_27  and  C_29
REMARK    9  A    between atoms: C_31  and  C_35
REMARK                            x       y       z     vdW  Elec       q    Type
REMARK                         _______ _______ _______ _____ _____    ______ ____
ROOT
ATOM      1  O   UNL     1     110.799 126.699 138.171  0.00  0.00    +0.000 OA
ATOM      2  O   UNL     1     108.681 126.954 136.916  0.00  0.00    +0.000 OA
ATOM      3  O   UNL     1     108.679 126.238 138.402  0.00  0.00    +0.000 OA
ATOM      4  C   UNL     1     110.094 127.143 137.009  0.00  0.00    +0.000 C 
ATOM      5  C   UNL     1     109.387 126.869 137.335  0.00  0.00    +0.000 C 
ATOM      6  C   UNL     1     109.386 126.511 138.077  0.00  0.00    +0.000 C 
ATOM      7  C   UNL     1     110.800 127.058 137.427  0.00  0.00    +0.000 C 
ATOM      8  C   UNL     1     110.092 126.426 138.495  0.00  0.00    +0.000 C 
ENDROOT
BRANCH   8  10
ATOM      9  O   UNL     1     110.360 126.487 139.898  0.00  0.00    +0.000 OA
ATOM     10  C   UNL     1     110.091 126.068 139.238  0.00  0.00    +0.000 C 
ENDBRANCH   8  10
BRANCH   4  11
ATOM     11  O   UNL     1     110.095 127.500 136.266  0.00  0.00    +0.000 OA
BRANCH  11  16
ATOM     12  O   UNL     1     109.594 128.707 136.846  0.00  0.00    +0.000 OA
ATOM     13  O   UNL     1     110.100 128.218 134.780  0.00  0.00    +0.000 OA
ATOM     14  O   UNL     1     109.602 129.783 134.618  0.00  0.00    +0.000 OA
ATOM     15  O   UNL     1     109.098 130.629 135.942  0.00  0.00    +0.000 OA
ATOM     16  C   UNL     1     109.846 128.283 136.185  0.00  0.00    +0.000 C 
ATOM     17  C   UNL     1     109.848 128.642 135.442  0.00  0.00    +0.000 C 
ATOM     18  C   UNL     1     109.599 129.424 135.360  0.00  0.00    +0.000 C 
ATOM     19  C   UNL     1     109.348 129.847 136.023  0.00  0.00    +0.000 C 
ATOM     20  C   UNL     1     109.345 129.489 136.765  0.00  0.00    +0.000 C 
BRANCH  20  21
ATOM     21  C   UNL     1     109.093 129.912 137.427  0.00  0.00    +0.000 C 
BRANCH  21  22
ATOM     22  O   UNL     1     109.560 129.931 138.107  0.00  0.00    +0.000 OA
BRANCH  22  24
ATOM     23  O   UNL     1     108.593 129.857 139.156  0.00  0.00    +0.000 OA
ATOM     24  C   UNL     1     109.249 130.222 138.813  0.00  0.00    +0.000 C 
ATOM     25  C   UNL     1     109.592 130.879 139.176  0.00  0.00    +0.000 C 
ENDBRANCH  22  24
ENDBRANCH  21  22
ENDBRANCH  20  21
ENDBRANCH  11  16
ENDBRANCH   4  11
BRANCH   7  26
ATOM     26  O   UNL     1     111.508 127.331 137.102  0.00  0.00    +0.000 OA
BRANCH  26  31
ATOM     27  O   UNL     1     113.570 126.792 137.569  0.00  0.00    +0.000 OA
ATOM     28  O   UNL     1     111.523 125.743 136.654  0.00  0.00    +0.000 OA
ATOM     29  O   UNL     1     112.205 124.481 136.499  0.00  0.00    +0.000 OA
ATOM     30  O   UNL     1     115.010 124.276 137.284  0.00  0.00    +0.000 OA
ATOM     31  C   UNL     1     112.198 126.886 137.183  0.00  0.00    +0.000 A 
ATOM     32  C   UNL     1     112.880 127.236 137.488  0.00  0.00    +0.000 A 
ATOM     33  C   UNL     1     112.206 126.093 136.959  0.00  0.00    +0.000 A 
ATOM     34  C   UNL     1     112.896 125.648 137.040  0.00  0.00    +0.000 A 
ATOM     35  C   UNL     1     113.578 125.997 137.345  0.00  0.00    +0.000 A 
ATOM     36  C   UNL     1     112.892 124.822 136.803  0.00  0.00    +0.000 A 
ATOM     37  C   UNL     1     114.304 125.546 137.434  0.00  0.00    +0.000 A 
ATOM     38  C   UNL     1     113.608 124.354 136.885  0.00  0.00    +0.000 A 
ATOM     39  C   UNL     1     114.318 124.718 137.202  0.00  0.00    +0.000 A 
BRANCH  32  41
ATOM     40  O   UNL     1     112.849 130.412 138.384  0.00  0.00    +0.000 OA
ATOM     41  C   UNL     1     112.872 128.030 137.712  0.00  0.00    +0.000 A 
ATOM     42  C   UNL     1     112.974 128.619 137.144  0.00  0.00    +0.000 A 
ATOM     43  C   UNL     1     112.763 128.235 138.504  0.00  0.00    +0.000 A 
ATOM     44  C   UNL     1     112.967 129.414 137.368  0.00  0.00    +0.000 A 
ATOM     45  C   UNL     1     112.755 129.028 138.728  0.00  0.00    +0.000 A 
ATOM     46  C   UNL     1     112.857 129.618 138.160  0.00  0.00    +0.000 A 
ENDBRANCH  32  41
ENDBRANCH  26  31
ENDBRANCH   7  26
TORSDOF 9
ENDMDL
MODEL 5
REMARK VINA RESULT:      -9.4      2.103      3.969
REMARK  Name = 131752828
REMARK  9 active torsions:
REMARK  status: ('A' for Active; 'I' for Inactive)
REMARK    1  A    between atoms: O_1  and  C_18
REMARK    2  A    between atoms: O_1  and  C_20
REMARK    3  A    between atoms: O_5  and  C_24
REMARK    4  A    between atoms: O_5  and  C_30
REMARK    5  A    between atoms: O_10  and  C_29
REMARK    6  A    between atoms: O_10  and  C_33
REMARK    7  A    between atoms: C_25  and  C_28
REMARK    8  A    between atoms: C_27  and  C_29
REMARK    9  A    between atoms: C_31  and  C_35
REMARK                            x       y       z     vdW  Elec       q    Type
REMARK                         _______ _______ _______ _____ _____    ______ ____
ROOT
ATOM      1  O   UNL     1     110.406 128.711 137.699  0.00  0.00    +0.000 OA
ATOM      2  O   UNL     1     112.680 128.600 138.671  0.00  0.00    +0.000 OA
ATOM      3  O   UNL     1     111.360 128.623 139.659  0.00  0.00    +0.000 OA
ATOM      4  C   UNL     1     111.825 128.663 137.528  0.00  0.00    +0.000 C 
ATOM      5  C   UNL     1     111.922 128.637 138.347  0.00  0.00    +0.000 C 
ATOM      6  C   UNL     1     111.262 128.649 138.841  0.00  0.00    +0.000 C 
ATOM      7  C   UNL     1     111.067 128.699 137.204  0.00  0.00    +0.000 C 
ATOM      8  C   UNL     1     110.505 128.686 138.517  0.00  0.00    +0.000 C 
ENDROOT
BRANCH   8  10
ATOM      9  O   UNL     1     109.274 128.104 138.950  0.00  0.00    +0.000 OA
ATOM     10  C   UNL     1     109.844 128.697 139.011  0.00  0.00    +0.000 C 
ENDBRANCH   8  10
BRANCH   4  11
ATOM     11  O   UNL     1     112.484 128.651 137.033  0.00  0.00    +0.000 OA
BRANCH  11  16
ATOM     12  O   UNL     1     112.606 127.241 137.227  0.00  0.00    +0.000 OA
ATOM     13  O   UNL     1     113.842 128.639 136.095  0.00  0.00    +0.000 OA
ATOM     14  O   UNL     1     114.642 127.222 135.821  0.00  0.00    +0.000 OA
ATOM     15  O   UNL     1     114.085 125.818 136.484  0.00  0.00    +0.000 OA
ATOM     16  C   UNL     1     112.884 127.943 136.896  0.00  0.00    +0.000 C 
ATOM     17  C   UNL     1     113.564 127.937 136.426  0.00  0.00    +0.000 C 
ATOM     18  C   UNL     1     113.964 127.228 136.289  0.00  0.00    +0.000 C 
ATOM     19  C   UNL     1     113.685 126.526 136.621  0.00  0.00    +0.000 C 
ATOM     20  C   UNL     1     113.007 126.532 137.090  0.00  0.00    +0.000 C 
BRANCH  20  21
ATOM     21  C   UNL     1     112.728 125.830 137.422  0.00  0.00    +0.000 C 
BRANCH  21  22
ATOM     22  O   UNL     1     111.957 125.580 137.272  0.00  0.00    +0.000 OA
BRANCH  22  24
ATOM     23  O   UNL     1     111.348 125.107 138.474  0.00  0.00    +0.000 OA
ATOM     24  C   UNL     1     111.629 124.965 137.712  0.00  0.00    +0.000 C 
ATOM     25  C   UNL     1     111.583 124.206 137.390  0.00  0.00    +0.000 C 
ENDBRANCH  22  24
ENDBRANCH  21  22
ENDBRANCH  20  21
ENDBRANCH  11  16
ENDBRANCH   4  11
BRANCH   7  26
ATOM     26  O   UNL     1     110.968 128.725 136.385  0.00  0.00    +0.000 OA
BRANCH  26  31
ATOM     27  O   UNL     1     109.292 129.470 135.203  0.00  0.00    +0.000 OA
ATOM     28  O   UNL     1     111.026 130.334 136.744  0.00  0.00    +0.000 OA
ATOM     29  O   UNL     1     110.520 131.679 136.605  0.00  0.00    +0.000 OA
ATOM     30  O   UNL     1     108.217 132.157 134.875  0.00  0.00    +0.000 OA
ATOM     31  C   UNL     1     110.419 129.242 136.051  0.00  0.00    +0.000 A 
ATOM     32  C   UNL     1     109.841 128.953 135.537  0.00  0.00    +0.000 A 
ATOM     33  C   UNL     1     110.448 130.046 136.230  0.00  0.00    +0.000 A 
ATOM     34  C   UNL     1     109.898 130.563 135.896  0.00  0.00    +0.000 A 
ATOM     35  C   UNL     1     109.320 130.275 135.383  0.00  0.00    +0.000 A 
ATOM     36  C   UNL     1     109.938 131.399 136.090  0.00  0.00    +0.000 A 
ATOM     37  C   UNL     1     108.742 130.803 135.028  0.00  0.00    +0.000 A 
ATOM     38  C   UNL     1     109.369 131.942 135.745  0.00  0.00    +0.000 A 
ATOM     39  C   UNL     1     108.767 131.642 135.211  0.00  0.00    +0.000 A 
BRANCH  32  41
ATOM     40  O   UNL     1     109.726 125.734 134.820  0.00  0.00    +0.000 OA
ATOM     41  C   UNL     1     109.813 128.149 135.358  0.00  0.00    +0.000 A 
ATOM     42  C   UNL     1     109.273 127.659 135.745  0.00  0.00    +0.000 A 
ATOM     43  C   UNL     1     110.323 127.833 134.792  0.00  0.00    +0.000 A 
ATOM     44  C   UNL     1     109.244 126.854 135.566  0.00  0.00    +0.000 A 
ATOM     45  C   UNL     1     110.294 127.029 134.612  0.00  0.00    +0.000 A 
ATOM     46  C   UNL     1     109.755 126.539 134.999  0.00  0.00    +0.000 A 
ENDBRANCH  32  41
ENDBRANCH  26  31
ENDBRANCH   7  26
TORSDOF 9
ENDMDL
MODEL 6
REMARK VINA RESULT:      -9.3      1.528      2.762
REMARK  Name = 131752828
REMARK  9 active torsions:
REMARK  status: ('A' for Active; 'I' for Inactive)
REMARK    1  A    between atoms: O_1  and  C_18
REMARK    2  A    between atoms: O_1  and  C_20
REMARK    3  A    between atoms: O_5  and  C_24
REMARK    4  A    between atoms: O_5  and  C_30
REMARK    5  A    between atoms: O_10  and  C_29
REMARK    6  A    between atoms: O_10  and  C_33
REMARK    7  A    between atoms: C_25  and  C_28
REMARK    8  A    between atoms: C_27  and  C_29
REMARK    9  A    between atoms: C_31  and  C_35
REMARK                            x       y       z     vdW  Elec       q    Type
REMARK                         _______ _______ _______ _____ _____    ______ ____
ROOT
ATOM      1  O   UNL     1     112.224 127.968 139.021  0.00  0.00    +0.000 OA
ATOM      2  O   UNL     1     111.226 125.714 139.239  0.00  0.00    +0.000 OA
ATOM      3  O   UNL     1     112.254 126.276 140.399  0.00  0.00    +0.000 OA
ATOM      4  C   UNL     1     111.377 126.935 138.513  0.00  0.00    +0.000 C 
ATOM      5  C   UNL     1     111.559 126.465 139.166  0.00  0.00    +0.000 C 
ATOM      6  C   UNL     1     112.072 126.746 139.746  0.00  0.00    +0.000 C 
ATOM      7  C   UNL     1     111.710 127.686 138.440  0.00  0.00    +0.000 C 
ATOM      8  C   UNL     1     112.405 127.497 139.674  0.00  0.00    +0.000 C 
ENDROOT
BRANCH   8  10
ATOM      9  O   UNL     1     113.700 127.965 140.058  0.00  0.00    +0.000 OA
ATOM     10  C   UNL     1     112.919 127.779 140.254  0.00  0.00    +0.000 C 
ENDBRANCH   8  10
BRANCH   4  11
ATOM     11  O   UNL     1     110.863 126.654 137.932  0.00  0.00    +0.000 OA
BRANCH  11  16
ATOM     12  O   UNL     1     111.912 125.847 137.393  0.00  0.00    +0.000 OA
ATOM     13  O   UNL     1     109.850 126.134 136.738  0.00  0.00    +0.000 OA
ATOM     14  O   UNL     1     110.393 125.068 135.602  0.00  0.00    +0.000 OA
ATOM     15  O   UNL     1     111.948 124.521 135.660  0.00  0.00    +0.000 OA
ATOM     16  C   UNL     1     111.134 126.120 137.364  0.00  0.00    +0.000 C 
ATOM     17  C   UNL     1     110.628 125.860 136.767  0.00  0.00    +0.000 C 
ATOM     18  C   UNL     1     110.899 125.327 136.199  0.00  0.00    +0.000 C 
ATOM     19  C   UNL     1     111.677 125.054 136.228  0.00  0.00    +0.000 C 
ATOM     20  C   UNL     1     112.183 125.313 136.825  0.00  0.00    +0.000 C 
BRANCH  20  21
ATOM     21  C   UNL     1     112.961 125.040 136.855  0.00  0.00    +0.000 C 
BRANCH  21  22
ATOM     22  O   UNL     1     113.588 125.574 136.810  0.00  0.00    +0.000 OA
BRANCH  22  24
ATOM     23  O   UNL     1     114.546 125.083 137.749  0.00  0.00    +0.000 OA
ATOM     24  C   UNL     1     114.355 125.325 136.984  0.00  0.00    +0.000 C 
ATOM     25  C   UNL     1     114.931 125.318 136.393  0.00  0.00    +0.000 C 
ENDBRANCH  22  24
ENDBRANCH  21  22
ENDBRANCH  20  21
ENDBRANCH  11  16
ENDBRANCH   4  11
BRANCH   7  26
ATOM     26  O   UNL     1     111.529 128.156 137.787  0.00  0.00    +0.000 OA
BRANCH  26  31
ATOM     27  O   UNL     1     111.651 130.323 137.551  0.00  0.00    +0.000 OA
ATOM     28  O   UNL     1     110.375 128.652 138.857  0.00  0.00    +0.000 OA
ATOM     29  O   UNL     1     109.624 129.695 139.513  0.00  0.00    +0.000 OA
ATOM     30  O   UNL     1     110.176 132.481 138.835  0.00  0.00    +0.000 OA
ATOM     31  C   UNL     1     111.377 128.961 137.887  0.00  0.00    +0.000 A 
ATOM     32  C   UNL     1     111.803 129.518 137.451  0.00  0.00    +0.000 A 
ATOM     33  C   UNL     1     110.800 129.208 138.421  0.00  0.00    +0.000 A 
ATOM     34  C   UNL     1     110.649 130.013 138.521  0.00  0.00    +0.000 A 
ATOM     35  C   UNL     1     111.074 130.571 138.087  0.00  0.00    +0.000 A 
ATOM     36  C   UNL     1     110.045 130.259 139.082  0.00  0.00    +0.000 A 
ATOM     37  C   UNL     1     110.926 131.411 138.181  0.00  0.00    +0.000 A 
ATOM     38  C   UNL     1     109.883 131.096 139.190  0.00  0.00    +0.000 A 
ATOM     39  C   UNL     1     110.326 131.675 138.737  0.00  0.00    +0.000 A 
BRANCH  32  41
ATOM     40  O   UNL     1     114.112 128.528 135.311  0.00  0.00    +0.000 OA
ATOM     41  C   UNL     1     112.380 129.271 136.917  0.00  0.00    +0.000 A 
ATOM     42  C   UNL     1     113.175 129.278 137.136  0.00  0.00    +0.000 A 
ATOM     43  C   UNL     1     112.162 129.016 136.163  0.00  0.00    +0.000 A 
ATOM     44  C   UNL     1     113.753 129.030 136.600  0.00  0.00    +0.000 A 
ATOM     45  C   UNL     1     112.739 128.769 135.628  0.00  0.00    +0.000 A 
ATOM     46  C   UNL     1     113.534 128.776 135.847  0.00  0.00    +0.000 A 
ENDBRANCH  32  41
ENDBRANCH  26  31
ENDBRANCH   7  26
TORSDOF 9
ENDMDL
MODEL 7
REMARK VINA RESULT:      -9.3      1.762      4.625
REMARK  Name = 131752828
REMARK  9 active torsions:
REMARK  status: ('A' for Active; 'I' for Inactive)
REMARK    1  A    between atoms: O_1  and  C_18
REMARK    2  A    between atoms: O_1  and  C_20
REMARK    3  A    between atoms: O_5  and  C_24
REMARK    4  A    between atoms: O_5  and  C_30
REMARK    5  A    between atoms: O_10  and  C_29
REMARK    6  A    between atoms: O_10  and  C_33
REMARK    7  A    between atoms: C_25  and  C_28
REMARK    8  A    between atoms: C_27  and  C_29
REMARK    9  A    between atoms: C_31  and  C_35
REMARK                            x       y       z     vdW  Elec       q    Type
REMARK                         _______ _______ _______ _____ _____    ______ ____
ROOT
ATOM      1  O   UNL     1     111.067 127.113 137.754  0.00  0.00    +0.000 OA
ATOM      2  O   UNL     1     108.704 126.473 138.117  0.00  0.00    +0.000 OA
ATOM      3  O   UNL     1     109.117 127.404 136.820  0.00  0.00    +0.000 OA
ATOM      4  C   UNL     1     110.073 126.434 138.524  0.00  0.00    +0.000 C 
ATOM      5  C   UNL     1     109.492 126.686 137.996  0.00  0.00    +0.000 C 
ATOM      6  C   UNL     1     109.698 127.152 137.347  0.00  0.00    +0.000 C 
ATOM      7  C   UNL     1     110.860 126.647 138.404  0.00  0.00    +0.000 C 
ATOM      8  C   UNL     1     110.485 127.365 137.227  0.00  0.00    +0.000 C 
ENDROOT
BRANCH   8  10
ATOM      9  O   UNL     1     111.033 128.574 136.696  0.00  0.00    +0.000 OA
ATOM     10  C   UNL     1     110.692 127.831 136.578  0.00  0.00    +0.000 C 
ENDBRANCH   8  10
BRANCH   4  11
ATOM     11  O   UNL     1     109.867 125.968 139.173  0.00  0.00    +0.000 OA
BRANCH  11  16
ATOM     12  O   UNL     1     109.374 127.127 139.849  0.00  0.00    +0.000 OA
ATOM     13  O   UNL     1     109.514 125.047 140.495  0.00  0.00    +0.000 OA
ATOM     14  O   UNL     1     108.845 125.745 141.832  0.00  0.00    +0.000 OA
ATOM     15  O   UNL     1     108.529 127.364 141.847  0.00  0.00    +0.000 OA
ATOM     16  C   UNL     1     109.532 126.317 139.841  0.00  0.00    +0.000 C 
ATOM     17  C   UNL     1     109.356 125.856 140.503  0.00  0.00    +0.000 C 
ATOM     18  C   UNL     1     109.021 126.205 141.172  0.00  0.00    +0.000 C 
ATOM     19  C   UNL     1     108.863 127.015 141.178  0.00  0.00    +0.000 C 
ATOM     20  C   UNL     1     109.039 127.476 140.518  0.00  0.00    +0.000 C 
BRANCH  20  21
ATOM     21  C   UNL     1     108.881 128.286 140.524  0.00  0.00    +0.000 C 
BRANCH  21  22
ATOM     22  O   UNL     1     109.452 128.820 140.262  0.00  0.00    +0.000 OA
BRANCH  22  24
ATOM     23  O   UNL     1     108.621 129.771 139.594  0.00  0.00    +0.000 OA
ATOM     24  C   UNL     1     109.244 129.603 140.108  0.00  0.00    +0.000 C 
ATOM     25  C   UNL     1     109.659 130.218 140.468  0.00  0.00    +0.000 C 
ENDBRANCH  22  24
ENDBRANCH  21  22
ENDBRANCH  20  21
ENDBRANCH  11  16
ENDBRANCH   4  11
BRANCH   7  26
ATOM     26  O   UNL     1     111.442 126.395 138.931  0.00  0.00    +0.000 OA
BRANCH  26  31
ATOM     27  O   UNL     1     113.602 126.229 138.668  0.00  0.00    +0.000 OA
ATOM     28  O   UNL     1     111.525 125.233 137.763  0.00  0.00    +0.000 OA
ATOM     29  O   UNL     1     112.284 124.383 136.878  0.00  0.00    +0.000 OA
ATOM     30  O   UNL     1     115.200 124.545 136.909  0.00  0.00    +0.000 OA
ATOM     31  C   UNL     1     112.176 126.146 138.649  0.00  0.00    +0.000 A 
ATOM     32  C   UNL     1     112.868 126.479 138.951  0.00  0.00    +0.000 A 
ATOM     33  C   UNL     1     112.218 125.565 138.065  0.00  0.00    +0.000 A 
ATOM     34  C   UNL     1     112.952 125.316 137.783  0.00  0.00    +0.000 A 
ATOM     35  C   UNL     1     113.644 125.648 138.084  0.00  0.00    +0.000 A 
ATOM     36  C   UNL     1     112.982 124.710 137.174  0.00  0.00    +0.000 A 
ATOM     37  C   UNL     1     114.415 125.397 137.798  0.00  0.00    +0.000 A 
ATOM     38  C   UNL     1     113.744 124.447 136.876  0.00  0.00    +0.000 A 
ATOM     39  C   UNL     1     114.464 124.792 137.190  0.00  0.00    +0.000 A 
BRANCH  32  41
ATOM     40  O   UNL     1     112.703 128.804 141.287  0.00  0.00    +0.000 OA
ATOM     41  C   UNL     1     112.827 127.059 139.534  0.00  0.00    +0.000 A 
ATOM     42  C   UNL     1     112.874 127.856 139.327  0.00  0.00    +0.000 A 
ATOM     43  C   UNL     1     112.739 126.844 140.326  0.00  0.00    +0.000 A 
ATOM     44  C   UNL     1     112.832 128.438 139.911  0.00  0.00    +0.000 A 
ATOM     45  C   UNL     1     112.698 127.425 140.910  0.00  0.00    +0.000 A 
ATOM     46  C   UNL     1     112.744 128.222 140.702  0.00  0.00    +0.000 A 
ENDBRANCH  32  41
ENDBRANCH  26  31
ENDBRANCH   7  26
TORSDOF 9
ENDMDL
MODEL 8
REMARK VINA RESULT:      -9.3      1.427      5.500
REMARK  Name = 131752828
REMARK  9 active torsions:
REMARK  status: ('A' for Active; 'I' for Inactive)
REMARK    1  A    between atoms: O_1  and  C_18
REMARK    2  A    between atoms: O_1  and  C_20
REMARK    3  A    between atoms: O_5  and  C_24
REMARK    4  A    between atoms: O_5  and  C_30
REMARK    5  A    between atoms: O_10  and  C_29
REMARK    6  A    between atoms: O_10  and  C_33
REMARK    7  A    between atoms: C_25  and  C_28
REMARK    8  A    between atoms: C_27  and  C_29
REMARK    9  A    between atoms: C_31  and  C_35
REMARK                            x       y       z     vdW  Elec       q    Type
REMARK                         _______ _______ _______ _____ _____    ______ ____
ROOT
ATOM      1  O   UNL     1     112.838 127.879 136.888  0.00  0.00    +0.000 OA
ATOM      2  O   UNL     1     111.522 129.966 136.700  0.00  0.00    +0.000 OA
ATOM      3  O   UNL     1     112.824 129.720 135.718  0.00  0.00    +0.000 OA
ATOM      4  C   UNL     1     111.747 128.698 137.317  0.00  0.00    +0.000 C 
ATOM      5  C   UNL     1     111.961 129.270 136.763  0.00  0.00    +0.000 C 
ATOM      6  C   UNL     1     112.611 129.148 136.272  0.00  0.00    +0.000 C 
ATOM      7  C   UNL     1     112.186 128.002 137.380  0.00  0.00    +0.000 C 
ATOM      8  C   UNL     1     113.050 128.452 136.335  0.00  0.00    +0.000 C 
ENDROOT
BRANCH   8  10
ATOM      9  O   UNL     1     114.451 128.220 136.173  0.00  0.00    +0.000 OA
ATOM     10  C   UNL     1     113.701 128.329 135.844  0.00  0.00    +0.000 C 
ENDBRANCH   8  10
BRANCH   4  11
ATOM     11  O   UNL     1     111.097 128.820 137.808  0.00  0.00    +0.000 OA
BRANCH  11  16
ATOM     12  O   UNL     1     111.878 129.694 138.626  0.00  0.00    +0.000 OA
ATOM     13  O   UNL     1     109.788 129.083 138.778  0.00  0.00    +0.000 OA
ATOM     14  O   UNL     1     109.915 130.088 140.080  0.00  0.00    +0.000 OA
ATOM     15  O   UNL     1     111.351 130.830 140.413  0.00  0.00    +0.000 OA
ATOM     16  C   UNL     1     111.160 129.323 138.459  0.00  0.00    +0.000 C 
ATOM     17  C   UNL     1     110.505 129.454 138.945  0.00  0.00    +0.000 C 
ATOM     18  C   UNL     1     110.569 129.957 139.596  0.00  0.00    +0.000 C 
ATOM     19  C   UNL     1     111.287 130.328 139.762  0.00  0.00    +0.000 C 
ATOM     20  C   UNL     1     111.941 130.196 139.277  0.00  0.00    +0.000 C 
BRANCH  20  21
ATOM     21  C   UNL     1     112.660 130.567 139.443  0.00  0.00    +0.000 C 
BRANCH  21  22
ATOM     22  O   UNL     1     113.356 130.126 139.469  0.00  0.00    +0.000 OA
BRANCH  22  24
ATOM     23  O   UNL     1     114.328 130.958 138.834  0.00  0.00    +0.000 OA
ATOM     24  C   UNL     1     114.086 130.508 139.482  0.00  0.00    +0.000 C 
ATOM     25  C   UNL     1     114.576 130.441 140.143  0.00  0.00    +0.000 C 
ENDBRANCH  22  24
ENDBRANCH  21  22
ENDBRANCH  20  21
ENDBRANCH  11  16
ENDBRANCH   4  11
BRANCH   7  26
ATOM     26  O   UNL     1     111.974 127.428 137.934  0.00  0.00    +0.000 OA
BRANCH  26  31
ATOM     27  O   UNL     1     112.461 125.303 138.024  0.00  0.00    +0.000 OA
ATOM     28  O   UNL     1     111.233 126.881 136.565  0.00  0.00    +0.000 OA
ATOM     29  O   UNL     1     110.884 125.815 135.657  0.00  0.00    +0.000 OA
ATOM     30  O   UNL     1     111.794 123.102 136.237  0.00  0.00    +0.000 OA
ATOM     31  C   UNL     1     112.013 126.629 137.736  0.00  0.00    +0.000 A 
ATOM     32  C   UNL     1     112.422 126.103 138.222  0.00  0.00    +0.000 A 
ATOM     33  C   UNL     1     111.642 126.355 137.052  0.00  0.00    +0.000 A 
ATOM     34  C   UNL     1     111.681 125.555 136.854  0.00  0.00    +0.000 A 
ATOM     35  C   UNL     1     112.090 125.029 137.339  0.00  0.00    +0.000 A 
ATOM     36  C   UNL     1     111.291 125.282 136.138  0.00  0.00    +0.000 A 
ATOM     37  C   UNL     1     112.137 124.193 137.144  0.00  0.00    +0.000 A 
ATOM     38  C   UNL     1     111.327 124.450 135.927  0.00  0.00    +0.000 A 
ATOM     39  C   UNL     1     111.753 123.902 136.433  0.00  0.00    +0.000 A 
BRANCH  32  41
ATOM     40  O   UNL     1     113.904 127.197 140.960  0.00  0.00    +0.000 OA
ATOM     41  C   UNL     1     112.792 126.376 138.906  0.00  0.00    +0.000 A 
ATOM     42  C   UNL     1     112.354 126.489 139.596  0.00  0.00    +0.000 A 
ATOM     43  C   UNL     1     113.602 126.537 138.902  0.00  0.00    +0.000 A 
ATOM     44  C   UNL     1     112.724 126.763 140.281  0.00  0.00    +0.000 A 
ATOM     45  C   UNL     1     113.972 126.810 139.586  0.00  0.00    +0.000 A 
ATOM     46  C   UNL     1     113.533 126.923 140.275  0.00  0.00    +0.000 A 
ENDBRANCH  32  41
ENDBRANCH  26  31
ENDBRANCH   7  26
TORSDOF 9
ENDMDL
MODEL 9
REMARK VINA RESULT:      -9.3      1.744      4.030
REMARK  Name = 131752828
REMARK  9 active torsions:
REMARK  status: ('A' for Active; 'I' for Inactive)
REMARK    1  A    between atoms: O_1  and  C_18
REMARK    2  A    between atoms: O_1  and  C_20
REMARK    3  A    between atoms: O_5  and  C_24
REMARK    4  A    between atoms: O_5  and  C_30
REMARK    5  A    between atoms: O_10  and  C_29
REMARK    6  A    between atoms: O_10  and  C_33
REMARK    7  A    between atoms: C_25  and  C_28
REMARK    8  A    between atoms: C_27  and  C_29
REMARK    9  A    between atoms: C_31  and  C_35
REMARK                            x       y       z     vdW  Elec       q    Type
REMARK                         _______ _______ _______ _____ _____    ______ ____
ROOT
ATOM      1  O   UNL     1     111.125 126.918 135.920  0.00  0.00    +0.000 OA
ATOM      2  O   UNL     1     110.955 125.332 137.813  0.00  0.00    +0.000 OA
ATOM      3  O   UNL     1     110.698 124.807 136.271  0.00  0.00    +0.000 OA
ATOM      4  C   UNL     1     111.197 126.652 137.323  0.00  0.00    +0.000 C 
ATOM      5  C   UNL     1     111.012 125.861 137.182  0.00  0.00    +0.000 C 
ATOM      6  C   UNL     1     110.883 125.598 136.411  0.00  0.00    +0.000 C 
ATOM      7  C   UNL     1     111.254 127.181 136.692  0.00  0.00    +0.000 C 
ATOM      8  C   UNL     1     110.940 126.126 135.780  0.00  0.00    +0.000 C 
ENDROOT
BRANCH   8  10
ATOM      9  O   UNL     1     110.118 126.072 134.613  0.00  0.00    +0.000 OA
ATOM     10  C   UNL     1     110.812 125.864 135.009  0.00  0.00    +0.000 C 
ENDBRANCH   8  10
BRANCH   4  11
ATOM     11  O   UNL     1     111.326 126.915 138.093  0.00  0.00    +0.000 OA
BRANCH  11  16
ATOM     12  O   UNL     1     112.623 126.315 138.088  0.00  0.00    +0.000 OA
ATOM     13  O   UNL     1     111.648 127.596 139.561  0.00  0.00    +0.000 OA
ATOM     14  O   UNL     1     113.106 127.335 140.290  0.00  0.00    +0.000 OA
ATOM     15  O   UNL     1     114.241 126.394 139.549  0.00  0.00    +0.000 OA
ATOM     16  C   UNL     1     112.055 126.785 138.457  0.00  0.00    +0.000 C 
ATOM     17  C   UNL     1     112.216 127.125 139.192  0.00  0.00    +0.000 C 
ATOM     18  C   UNL     1     112.945 126.995 139.556  0.00  0.00    +0.000 C 
ATOM     19  C   UNL     1     113.512 126.524 139.185  0.00  0.00    +0.000 C 
ATOM     20  C   UNL     1     113.351 126.184 138.452  0.00  0.00    +0.000 C 
BRANCH  20  21
ATOM     21  C   UNL     1     113.919 125.713 138.081  0.00  0.00    +0.000 C 
BRANCH  21  22
ATOM     22  O   UNL     1     114.116 125.849 137.292  0.00  0.00    +0.000 OA
BRANCH  22  24
ATOM     23  O   UNL     1     114.570 124.504 137.132  0.00  0.00    +0.000 OA
ATOM     24  C   UNL     1     114.552 125.288 136.874  0.00  0.00    +0.000 C 
ATOM     25  C   UNL     1     114.970 125.509 136.198  0.00  0.00    +0.000 C 
ENDBRANCH  22  24
ENDBRANCH  21  22
ENDBRANCH  20  21
ENDBRANCH  11  16
ENDBRANCH   4  11
BRANCH   7  26
ATOM     26  O   UNL     1     111.439 127.972 136.831  0.00  0.00    +0.000 OA
BRANCH  26  31
ATOM     27  O   UNL     1     111.054 129.715 135.576  0.00  0.00    +0.000 OA
ATOM     28  O   UNL     1     109.794 128.062 136.920  0.00  0.00    +0.000 OA
ATOM     29  O   UNL     1     108.542 128.690 136.573  0.00  0.00    +0.000 OA
ATOM     30  O   UNL     1     108.566 131.035 134.833  0.00  0.00    +0.000 OA
ATOM     31  C   UNL     1     111.036 128.568 136.428  0.00  0.00    +0.000 A 
ATOM     32  C   UNL     1     111.457 129.119 135.979  0.00  0.00    +0.000 A 
ATOM     33  C   UNL     1     110.214 128.613 136.472  0.00  0.00    +0.000 A 
ATOM     34  C   UNL     1     109.811 129.209 136.068  0.00  0.00    +0.000 A 
ATOM     35  C   UNL     1     110.230 129.760 135.620  0.00  0.00    +0.000 A 
ATOM     36  C   UNL     1     108.954 129.246 136.122  0.00  0.00    +0.000 A 
ATOM     37  C   UNL     1     109.823 130.386 135.195  0.00  0.00    +0.000 A 
ATOM     38  C   UNL     1     108.529 129.864 135.704  0.00  0.00    +0.000 A 
ATOM     39  C   UNL     1     108.966 130.438 135.238  0.00  0.00    +0.000 A 
BRANCH  32  41
ATOM     40  O   UNL     1     114.747 128.941 135.802  0.00  0.00    +0.000 OA
ATOM     41  C   UNL     1     112.279 129.075 135.935  0.00  0.00    +0.000 A 
ATOM     42  C   UNL     1     112.742 129.379 136.546  0.00  0.00    +0.000 A 
ATOM     43  C   UNL     1     112.639 128.726 135.280  0.00  0.00    +0.000 A 
ATOM     44  C   UNL     1     113.565 129.335 136.502  0.00  0.00    +0.000 A 
ATOM     45  C   UNL     1     113.461 128.681 135.235  0.00  0.00    +0.000 A 
ATOM     46  C   UNL     1     113.924 128.985 135.846  0.00  0.00    +0.000 A 
ENDBRANCH  32  41
ENDBRANCH  26  31
ENDBRANCH   7  26
TORSDOF 9
ENDMDL
MODEL 10
REMARK VINA RESULT:      -9.3      2.241      5.051
REMARK  Name = 131752828
REMARK  9 active torsions:
REMARK  status: ('A' for Active; 'I' for Inactive)
REMARK    1  A    between atoms: O_1  and  C_18
REMARK    2  A    between atoms: O_1  and  C_20
REMARK    3  A    between atoms: O_5  and  C_24
REMARK    4  A    between atoms: O_5  and  C_30
REMARK    5  A    between atoms: O_10  and  C_29
REMARK    6  A    between atoms: O_10  and  C_33
REMARK    7  A    between atoms: C_25  and  C_28
REMARK    8  A    between atoms: C_27  and  C_29
REMARK    9  A    between atoms: C_31  and  C_35
REMARK                            x       y       z     vdW  Elec       q    Type
REMARK                         _______ _______ _______ _____ _____    ______ ____
ROOT
ATOM      1  O   UNL     1     112.441 129.564 137.366  0.00  0.00    +0.000 OA
ATOM      2  O   UNL     1     111.980 130.744 139.492  0.00  0.00    +0.000 OA
ATOM      3  O   UNL     1     113.341 131.097 138.631  0.00  0.00    +0.000 OA
ATOM      4  C   UNL     1     111.605 129.781 138.506  0.00  0.00    +0.000 C 
ATOM      5  C   UNL     1     112.133 130.351 138.783  0.00  0.00    +0.000 C 
ATOM      6  C   UNL     1     112.814 130.528 138.353  0.00  0.00    +0.000 C 
ATOM      7  C   UNL     1     111.759 129.387 137.797  0.00  0.00    +0.000 C 
ATOM      8  C   UNL     1     112.968 130.134 137.645  0.00  0.00    +0.000 C 
ENDROOT
BRANCH   8  10
ATOM      9  O   UNL     1     113.585 130.615 136.449  0.00  0.00    +0.000 OA
ATOM     10  C   UNL     1     113.649 130.310 137.214  0.00  0.00    +0.000 C 
ENDBRANCH   8  10
BRANCH   4  11
ATOM     11  O   UNL     1     110.925 129.604 138.936  0.00  0.00    +0.000 OA
BRANCH  11  16
ATOM     12  O   UNL     1     110.297 130.783 138.428  0.00  0.00    +0.000 OA
ATOM     13  O   UNL     1     109.559 129.247 139.791  0.00  0.00    +0.000 OA
ATOM     14  O   UNL     1     108.250 130.248 139.710  0.00  0.00    +0.000 OA
ATOM     15  O   UNL     1     108.306 131.605 138.774  0.00  0.00    +0.000 OA
ATOM     16  C   UNL     1     110.270 130.104 138.895  0.00  0.00    +0.000 C 
ATOM     17  C   UNL     1     109.587 129.926 139.323  0.00  0.00    +0.000 C 
ATOM     18  C   UNL     1     108.932 130.426 139.283  0.00  0.00    +0.000 C 
ATOM     19  C   UNL     1     108.960 131.105 138.814  0.00  0.00    +0.000 C 
ATOM     20  C   UNL     1     109.642 131.283 138.387  0.00  0.00    +0.000 C 
BRANCH  20  21
ATOM     21  C   UNL     1     109.671 131.962 137.919  0.00  0.00    +0.000 C 
BRANCH  21  22
ATOM     22  O   UNL     1     110.006 131.931 137.166  0.00  0.00    +0.000 OA
BRANCH  22  24
ATOM     23  O   UNL     1     109.464 132.759 136.136  0.00  0.00    +0.000 OA
ATOM     24  C   UNL     1     110.045 132.612 136.703  0.00  0.00    +0.000 C 
ATOM     25  C   UNL     1     110.665 133.147 136.807  0.00  0.00    +0.000 C 
ENDBRANCH  22  24
ENDBRANCH  21  22
ENDBRANCH  20  21
ENDBRANCH  11  16
ENDBRANCH   4  11
BRANCH   7  26
ATOM     26  O   UNL     1     111.232 128.817 137.519  0.00  0.00    +0.000 OA
BRANCH  26  31
ATOM     27  O   UNL     1     111.557 127.186 136.105  0.00  0.00    +0.000 OA
ATOM     28  O   UNL     1     112.295 127.879 138.364  0.00  0.00    +0.000 OA
ATOM     29  O   UNL     1     113.128 126.707 138.484  0.00  0.00    +0.000 OA
ATOM     30  O   UNL     1     113.216 124.798 136.276  0.00  0.00    +0.000 OA
ATOM     31  C   UNL     1     111.518 128.117 137.188  0.00  0.00    +0.000 A 
ATOM     32  C   UNL     1     111.272 127.886 136.435  0.00  0.00    +0.000 A 
ATOM     33  C   UNL     1     112.049 127.649 137.611  0.00  0.00    +0.000 A 
ATOM     34  C   UNL     1     112.334 126.949 137.281  0.00  0.00    +0.000 A 
ATOM     35  C   UNL     1     112.089 126.717 136.528  0.00  0.00    +0.000 A 
ATOM     36  C   UNL     1     112.887 126.468 137.731  0.00  0.00    +0.000 A 
ATOM     37  C   UNL     1     112.379 125.990 136.173  0.00  0.00    +0.000 A 
ATOM     38  C   UNL     1     113.188 125.738 137.393  0.00  0.00    +0.000 A 
ATOM     39  C   UNL     1     112.932 125.498 136.609  0.00  0.00    +0.000 A 
BRANCH  32  41
ATOM     40  O   UNL     1     109.147 129.761 134.744  0.00  0.00    +0.000 OA
ATOM     41  C   UNL     1     110.741 128.354 136.013  0.00  0.00    +0.000 A 
ATOM     42  C   UNL     1     109.932 128.300 136.164  0.00  0.00    +0.000 A 
ATOM     43  C   UNL     1     111.019 128.878 135.439  0.00  0.00    +0.000 A 
ATOM     44  C   UNL     1     109.400 128.768 135.741  0.00  0.00    +0.000 A 
ATOM     45  C   UNL     1     110.488 129.347 135.016  0.00  0.00    +0.000 A 
ATOM     46  C   UNL     1     109.679 129.292 135.167  0.00  0.00    +0.000 A 
ENDBRANCH  32  41
ENDBRANCH  26  31
ENDBRANCH   7  26
TORSDOF 9
ENDMDL
