MODEL 1
REMARK VINA RESULT:      -8.1      0.000      0.000
REMARK  Name = 44258694
REMARK  2 active torsions:
REMARK  status: ('A' for Active; 'I' for Inactive)
REMARK    1  A    between atoms: O_2  and  C_10
REMARK    2  A    between atoms: C_9  and  C_12
REMARK                            x       y       z     vdW  Elec       q    Type
REMARK                         _______ _______ _______ _____ _____    ______ ____
ROOT
ATOM      1  O   UNL     1     105.539 124.540 147.735  0.00  0.00    +0.000 OA
ATOM      2  O   UNL     1     106.857 125.497 145.871  0.00  0.00    +0.000 OA
ATOM      3  O   UNL     1     108.825 125.100 148.129  0.00  0.00    +0.000 OA
ATOM      4  O   UNL     1     107.925 124.446 149.402  0.00  0.00    +0.000 OA
ATOM      5  C   UNL     1     106.786 124.998 147.208  0.00  0.00    +0.000 A 
ATOM      6  C   UNL     1     106.347 124.679 147.829  0.00  0.00    +0.000 A 
ATOM      7  C   UNL     1     105.171 124.721 147.018  0.00  0.00    +0.000 A 
ATOM      8  C   UNL     1     105.610 125.040 146.397  0.00  0.00    +0.000 A 
ATOM      9  C   UNL     1     106.418 125.178 146.493  0.00  0.00    +0.000 A 
ATOM     10  C   UNL     1     107.628 125.146 147.294  0.00  0.00    +0.000 A 
ATOM     11  C   UNL     1     106.719 124.486 148.580  0.00  0.00    +0.000 A 
ATOM     12  C   UNL     1     108.017 124.960 148.037  0.00  0.00    +0.000 A 
ATOM     13  C   UNL     1     107.559 124.628 148.685  0.00  0.00    +0.000 A 
ENDROOT
BRANCH   7  15
ATOM     14  O   UNL     1     101.938 124.167 146.643  0.00  0.00    +0.000 OA
ATOM     15  C   UNL     1     104.363 124.582 146.924  0.00  0.00    +0.000 A 
ATOM     16  C   UNL     1     103.815 125.142 147.185  0.00  0.00    +0.000 A 
ATOM     17  C   UNL     1     104.102 123.884 146.570  0.00  0.00    +0.000 A 
ATOM     18  C   UNL     1     103.008 125.003 147.091  0.00  0.00    +0.000 A 
ATOM     19  C   UNL     1     103.294 123.746 146.476  0.00  0.00    +0.000 A 
ATOM     20  C   UNL     1     102.747 124.306 146.737  0.00  0.00    +0.000 A 
ENDBRANCH   7  15
BRANCH   8  21
ATOM     21  O   UNL     1     105.242 125.220 145.682  0.00  0.00    +0.000 OA
ATOM     22  C   UNL     1     105.682 125.536 145.060  0.00  0.00    +0.000 C 
ENDBRANCH   8  21
TORSDOF 2
ENDMDL
MODEL 2
REMARK VINA RESULT:      -8.1      1.022      4.232
REMARK  Name = 44258694
REMARK  2 active torsions:
REMARK  status: ('A' for Active; 'I' for Inactive)
REMARK    1  A    between atoms: O_2  and  C_10
REMARK    2  A    between atoms: C_9  and  C_12
REMARK                            x       y       z     vdW  Elec       q    Type
REMARK                         _______ _______ _______ _____ _____    ______ ____
ROOT
ATOM      1  O   UNL     1     105.231 124.215 147.096  0.00  0.00    +0.000 OA
ATOM      2  O   UNL     1     103.597 125.709 148.202  0.00  0.00    +0.000 OA
ATOM      3  O   UNL     1     102.002 124.128 146.181  0.00  0.00    +0.000 OA
ATOM      4  O   UNL     1     103.118 123.108 145.426  0.00  0.00    +0.000 OA
ATOM      5  C   UNL     1     103.892 124.694 147.242  0.00  0.00    +0.000 A 
ATOM      6  C   UNL     1     104.437 124.196 146.873  0.00  0.00    +0.000 A 
ATOM      7  C   UNL     1     105.480 124.733 147.689  0.00  0.00    +0.000 A 
ATOM      8  C   UNL     1     104.936 125.231 148.057  0.00  0.00    +0.000 A 
ATOM      9  C   UNL     1     104.142 125.211 147.834  0.00  0.00    +0.000 A 
ATOM     10  C   UNL     1     103.062 124.683 147.018  0.00  0.00    +0.000 A 
ATOM     11  C   UNL     1     104.190 123.651 146.255  0.00  0.00    +0.000 A 
ATOM     12  C   UNL     1     102.797 124.146 146.402  0.00  0.00    +0.000 A 
ATOM     13  C   UNL     1     103.365 123.626 146.018  0.00  0.00    +0.000 A 
ENDROOT
BRANCH   7  15
ATOM     14  O   UNL     1     108.658 124.811 148.579  0.00  0.00    +0.000 OA
ATOM     15  C   UNL     1     106.274 124.752 147.912  0.00  0.00    +0.000 A 
ATOM     16  C   UNL     1     106.819 125.176 147.459  0.00  0.00    +0.000 A 
ATOM     17  C   UNL     1     106.524 124.348 148.586  0.00  0.00    +0.000 A 
ATOM     18  C   UNL     1     107.613 125.195 147.682  0.00  0.00    +0.000 A 
ATOM     19  C   UNL     1     107.319 124.368 148.809  0.00  0.00    +0.000 A 
ATOM     20  C   UNL     1     107.863 124.791 148.356  0.00  0.00    +0.000 A 
ENDBRANCH   7  15
BRANCH   8  21
ATOM     21  O   UNL     1     105.185 125.748 148.649  0.00  0.00    +0.000 OA
ATOM     22  C   UNL     1     104.688 126.356 148.902  0.00  0.00    +0.000 C 
ENDBRANCH   8  21
TORSDOF 2
ENDMDL
MODEL 3
REMARK VINA RESULT:      -7.8      1.348      2.550
REMARK  Name = 44258694
REMARK  2 active torsions:
REMARK  status: ('A' for Active; 'I' for Inactive)
REMARK    1  A    between atoms: O_2  and  C_10
REMARK    2  A    between atoms: C_9  and  C_12
REMARK                            x       y       z     vdW  Elec       q    Type
REMARK                         _______ _______ _______ _____ _____    ______ ____
ROOT
ATOM      1  O   UNL     1     104.232 124.443 146.104  0.00  0.00    +0.000 OA
ATOM      2  O   UNL     1     105.214 124.819 148.344  0.00  0.00    +0.000 OA
ATOM      3  O   UNL     1     107.364 125.617 146.377  0.00  0.00    +0.000 OA
ATOM      4  O   UNL     1     106.693 125.360 144.848  0.00  0.00    +0.000 OA
ATOM      5  C   UNL     1     105.329 124.857 146.921  0.00  0.00    +0.000 A 
ATOM      6  C   UNL     1     105.001 124.731 146.174  0.00  0.00    +0.000 A 
ATOM      7  C   UNL     1     103.789 124.280 146.782  0.00  0.00    +0.000 A 
ATOM      8  C   UNL     1     104.117 124.405 147.529  0.00  0.00    +0.000 A 
ATOM      9  C   UNL     1     104.887 124.694 147.597  0.00  0.00    +0.000 A 
ATOM     10  C   UNL     1     106.130 125.157 147.006  0.00  0.00    +0.000 A 
ATOM     11  C   UNL     1     105.452 124.897 145.460  0.00  0.00    +0.000 A 
ATOM     12  C   UNL     1     106.595 125.329 146.305  0.00  0.00    +0.000 A 
ATOM     13  C   UNL     1     106.253 125.198 145.527  0.00  0.00    +0.000 A 
ENDROOT
BRANCH   7  15
ATOM     14  O   UNL     1     100.710 123.124 146.501  0.00  0.00    +0.000 OA
ATOM     15  C   UNL     1     103.020 123.991 146.712  0.00  0.00    +0.000 A 
ATOM     16  C   UNL     1     102.890 123.181 146.618  0.00  0.00    +0.000 A 
ATOM     17  C   UNL     1     102.380 124.511 146.735  0.00  0.00    +0.000 A 
ATOM     18  C   UNL     1     102.120 122.893 146.548  0.00  0.00    +0.000 A 
ATOM     19  C   UNL     1     101.609 124.222 146.665  0.00  0.00    +0.000 A 
ATOM     20  C   UNL     1     101.481 123.413 146.571  0.00  0.00    +0.000 A 
ENDBRANCH   7  15
BRANCH   8  21
ATOM     21  O   UNL     1     103.675 124.242 148.205  0.00  0.00    +0.000 OA
ATOM     22  C   UNL     1     103.940 124.499 148.943  0.00  0.00    +0.000 C 
ENDBRANCH   8  21
TORSDOF 2
ENDMDL
MODEL 4
REMARK VINA RESULT:      -7.8     12.610     13.519
REMARK  Name = 44258694
REMARK  2 active torsions:
REMARK  status: ('A' for Active; 'I' for Inactive)
REMARK    1  A    between atoms: O_2  and  C_10
REMARK    2  A    between atoms: C_9  and  C_12
REMARK                            x       y       z     vdW  Elec       q    Type
REMARK                         _______ _______ _______ _____ _____    ______ ____
ROOT
ATOM      1  O   UNL     1     112.017 125.709 136.038  0.00  0.00    +0.000 OA
ATOM      2  O   UNL     1     111.950 128.183 135.996  0.00  0.00    +0.000 OA
ATOM      3  O   UNL     1     109.397 127.286 134.654  0.00  0.00    +0.000 OA
ATOM      4  O   UNL     1     109.442 125.597 134.683  0.00  0.00    +0.000 OA
ATOM      5  C   UNL     1     111.352 126.924 135.685  0.00  0.00    +0.000 A 
ATOM      6  C   UNL     1     111.374 126.099 135.699  0.00  0.00    +0.000 A 
ATOM      7  C   UNL     1     112.638 126.144 136.364  0.00  0.00    +0.000 A 
ATOM      8  C   UNL     1     112.616 126.969 136.350  0.00  0.00    +0.000 A 
ATOM      9  C   UNL     1     111.972 127.358 136.010  0.00  0.00    +0.000 A 
ATOM     10  C   UNL     1     110.688 127.341 135.334  0.00  0.00    +0.000 A 
ATOM     11  C   UNL     1     110.733 125.634 135.362  0.00  0.00    +0.000 A 
ATOM     12  C   UNL     1     110.038 126.893 134.993  0.00  0.00    +0.000 A 
ATOM     13  C   UNL     1     110.061 126.034 135.007  0.00  0.00    +0.000 A 
ENDROOT
BRANCH   7  15
ATOM     14  O   UNL     1     115.210 124.583 137.721  0.00  0.00    +0.000 OA
ATOM     15  C   UNL     1     113.281 125.754 136.704  0.00  0.00    +0.000 A 
ATOM     16  C   UNL     1     113.931 125.549 136.238  0.00  0.00    +0.000 A 
ATOM     17  C   UNL     1     113.274 125.568 137.507  0.00  0.00    +0.000 A 
ATOM     18  C   UNL     1     114.574 125.159 136.578  0.00  0.00    +0.000 A 
ATOM     19  C   UNL     1     113.917 125.178 137.847  0.00  0.00    +0.000 A 
ATOM     20  C   UNL     1     114.567 124.974 137.381  0.00  0.00    +0.000 A 
ENDBRANCH   7  15
BRANCH   8  21
ATOM     21  O   UNL     1     113.236 127.403 136.676  0.00  0.00    +0.000 OA
ATOM     22  C   UNL     1     113.201 128.227 136.686  0.00  0.00    +0.000 C 
ENDBRANCH   8  21
TORSDOF 2
ENDMDL
MODEL 5
REMARK VINA RESULT:      -7.8      7.683      9.420
REMARK  Name = 44258694
REMARK  2 active torsions:
REMARK  status: ('A' for Active; 'I' for Inactive)
REMARK    1  A    between atoms: O_2  and  C_10
REMARK    2  A    between atoms: C_9  and  C_12
REMARK                            x       y       z     vdW  Elec       q    Type
REMARK                         _______ _______ _______ _____ _____    ______ ____
ROOT
ATOM      1  O   UNL     1     102.081 130.932 140.971  0.00  0.00    +0.000 OA
ATOM      2  O   UNL     1     103.565 129.875 142.646  0.00  0.00    +0.000 OA
ATOM      3  O   UNL     1     103.596 128.022 140.260  0.00  0.00    +0.000 OA
ATOM      4  O   UNL     1     102.582 128.744 139.116  0.00  0.00    +0.000 OA
ATOM      5  C   UNL     1     102.949 129.865 141.358  0.00  0.00    +0.000 A 
ATOM      6  C   UNL     1     102.455 130.217 140.799  0.00  0.00    +0.000 A 
ATOM      7  C   UNL     1     102.203 131.295 141.703  0.00  0.00    +0.000 A 
ATOM      8  C   UNL     1     102.698 130.943 142.261  0.00  0.00    +0.000 A 
ATOM      9  C   UNL     1     103.071 130.227 142.088  0.00  0.00    +0.000 A 
ATOM     10  C   UNL     1     103.344 129.120 141.189  0.00  0.00    +0.000 A 
ATOM     11  C   UNL     1     102.320 129.849 140.034  0.00  0.00    +0.000 A 
ATOM     12  C   UNL     1     103.221 128.737 140.430  0.00  0.00    +0.000 A 
ATOM     13  C   UNL     1     102.705 129.105 139.848  0.00  0.00    +0.000 A 
ENDROOT
BRANCH   7  15
ATOM     14  O   UNL     1     100.710 134.157 142.391  0.00  0.00    +0.000 OA
ATOM     15  C   UNL     1     101.829 132.010 141.875  0.00  0.00    +0.000 A 
ATOM     16  C   UNL     1     102.202 132.724 141.693  0.00  0.00    +0.000 A 
ATOM     17  C   UNL     1     101.084 132.012 142.229  0.00  0.00    +0.000 A 
ATOM     18  C   UNL     1     101.829 133.439 141.865  0.00  0.00    +0.000 A 
ATOM     19  C   UNL     1     100.711 132.728 142.401  0.00  0.00    +0.000 A 
ATOM     20  C   UNL     1     101.083 133.441 142.219  0.00  0.00    +0.000 A 
ENDBRANCH   7  15
BRANCH   8  21
ATOM     21  O   UNL     1     102.819 131.305 142.992  0.00  0.00    +0.000 OA
ATOM     22  C   UNL     1     103.326 130.961 143.544  0.00  0.00    +0.000 C 
ENDBRANCH   8  21
TORSDOF 2
ENDMDL
MODEL 6
REMARK VINA RESULT:      -7.8      6.588      8.170
REMARK  Name = 44258694
REMARK  2 active torsions:
REMARK  status: ('A' for Active; 'I' for Inactive)
REMARK    1  A    between atoms: O_2  and  C_10
REMARK    2  A    between atoms: C_9  and  C_12
REMARK                            x       y       z     vdW  Elec       q    Type
REMARK                         _______ _______ _______ _____ _____    ______ ____
ROOT
ATOM      1  O   UNL     1     103.392 130.162 142.297  0.00  0.00    +0.000 OA
ATOM      2  O   UNL     1     103.305 128.678 140.318  0.00  0.00    +0.000 OA
ATOM      3  O   UNL     1     105.225 127.350 142.236  0.00  0.00    +0.000 OA
ATOM      4  O   UNL     1     105.284 128.362 143.587  0.00  0.00    +0.000 OA
ATOM      5  C   UNL     1     103.812 128.976 141.620  0.00  0.00    +0.000 A 
ATOM      6  C   UNL     1     103.842 129.470 142.279  0.00  0.00    +0.000 A 
ATOM      7  C   UNL     1     102.913 130.359 141.654  0.00  0.00    +0.000 A 
ATOM      8  C   UNL     1     102.884 129.864 140.995  0.00  0.00    +0.000 A 
ATOM      9  C   UNL     1     103.334 129.173 140.978  0.00  0.00    +0.000 A 
ATOM     10  C   UNL     1     104.276 128.252 141.590  0.00  0.00    +0.000 A 
ATOM     11  C   UNL     1     104.336 129.276 142.956  0.00  0.00    +0.000 A 
ATOM     12  C   UNL     1     104.776 128.042 142.256  0.00  0.00    +0.000 A 
ATOM     13  C   UNL     1     104.807 128.557 142.943  0.00  0.00    +0.000 A 
ENDROOT
BRANCH   7  15
ATOM     14  O   UNL     1     101.115 133.125 141.727  0.00  0.00    +0.000 OA
ATOM     15  C   UNL     1     102.464 131.050 141.672  0.00  0.00    +0.000 A 
ATOM     16  C   UNL     1     101.692 131.033 141.964  0.00  0.00    +0.000 A 
ATOM     17  C   UNL     1     102.786 131.759 141.399  0.00  0.00    +0.000 A 
ATOM     18  C   UNL     1     101.243 131.724 141.982  0.00  0.00    +0.000 A 
ATOM     19  C   UNL     1     102.336 132.451 141.418  0.00  0.00    +0.000 A 
ATOM     20  C   UNL     1     101.565 132.433 141.709  0.00  0.00    +0.000 A 
ENDBRANCH   7  15
BRANCH   8  21
ATOM     21  O   UNL     1     102.406 130.061 140.353  0.00  0.00    +0.000 OA
ATOM     22  C   UNL     1     102.273 129.511 139.753  0.00  0.00    +0.000 C 
ENDBRANCH   8  21
TORSDOF 2
ENDMDL
MODEL 7
REMARK VINA RESULT:      -7.7      2.101      3.977
REMARK  Name = 44258694
REMARK  2 active torsions:
REMARK  status: ('A' for Active; 'I' for Inactive)
REMARK    1  A    between atoms: O_2  and  C_10
REMARK    2  A    between atoms: C_9  and  C_12
REMARK                            x       y       z     vdW  Elec       q    Type
REMARK                         _______ _______ _______ _____ _____    ______ ____
ROOT
ATOM      1  O   UNL     1     106.522 124.934 146.082  0.00  0.00    +0.000 OA
ATOM      2  O   UNL     1     106.406 127.369 145.656  0.00  0.00    +0.000 OA
ATOM      3  O   UNL     1     105.421 126.060 143.118  0.00  0.00    +0.000 OA
ATOM      4  O   UNL     1     105.499 124.398 143.409  0.00  0.00    +0.000 OA
ATOM      5  C   UNL     1     106.213 126.025 145.213  0.00  0.00    +0.000 A 
ATOM      6  C   UNL     1     106.251 125.214 145.355  0.00  0.00    +0.000 A 
ATOM      7  C   UNL     1     106.753 125.467 146.668  0.00  0.00    +0.000 A 
ATOM      8  C   UNL     1     106.715 126.279 146.526  0.00  0.00    +0.000 A 
ATOM      9  C   UNL     1     106.445 126.558 145.798  0.00  0.00    +0.000 A 
ATOM     10  C   UNL     1     105.933 126.328 144.458  0.00  0.00    +0.000 A 
ATOM     11  C   UNL     1     106.013 124.648 144.752  0.00  0.00    +0.000 A 
ATOM     12  C   UNL     1     105.690 125.779 143.845  0.00  0.00    +0.000 A 
ATOM     13  C   UNL     1     105.731 124.932 143.993  0.00  0.00    +0.000 A 
ENDROOT
BRANCH   7  15
ATOM     14  O   UNL     1     107.832 124.348 149.580  0.00  0.00    +0.000 OA
ATOM     15  C   UNL     1     107.024 125.188 147.396  0.00  0.00    +0.000 A 
ATOM     16  C   UNL     1     106.482 124.957 147.975  0.00  0.00    +0.000 A 
ATOM     17  C   UNL     1     107.834 125.138 147.545  0.00  0.00    +0.000 A 
ATOM     18  C   UNL     1     106.753 124.677 148.703  0.00  0.00    +0.000 A 
ATOM     19  C   UNL     1     108.103 124.858 148.273  0.00  0.00    +0.000 A 
ATOM     20  C   UNL     1     107.563 124.628 148.852  0.00  0.00    +0.000 A 
ENDBRANCH   7  15
BRANCH   8  21
ATOM     21  O   UNL     1     106.947 126.811 147.112  0.00  0.00    +0.000 OA
ATOM     22  C   UNL     1     106.726 127.604 147.059  0.00  0.00    +0.000 C 
ENDBRANCH   8  21
TORSDOF 2
ENDMDL
MODEL 8
REMARK VINA RESULT:      -7.7      9.941     11.809
REMARK  Name = 44258694
REMARK  2 active torsions:
REMARK  status: ('A' for Active; 'I' for Inactive)
REMARK    1  A    between atoms: O_2  and  C_10
REMARK    2  A    between atoms: C_9  and  C_12
REMARK                            x       y       z     vdW  Elec       q    Type
REMARK                         _______ _______ _______ _____ _____    ______ ____
ROOT
ATOM      1  O   UNL     1     113.541 126.352 138.922  0.00  0.00    +0.000 OA
ATOM      2  O   UNL     1     111.132 125.804 138.765  0.00  0.00    +0.000 OA
ATOM      3  O   UNL     1     111.473 127.183 141.432  0.00  0.00    +0.000 OA
ATOM      4  O   UNL     1     113.117 127.557 141.538  0.00  0.00    +0.000 OA
ATOM      5  C   UNL     1     112.227 126.372 139.485  0.00  0.00    +0.000 A 
ATOM      6  C   UNL     1     113.030 126.555 139.537  0.00  0.00    +0.000 A 
ATOM      7  C   UNL     1     113.248 125.966 138.253  0.00  0.00    +0.000 A 
ATOM      8  C   UNL     1     112.445 125.783 138.201  0.00  0.00    +0.000 A 
ATOM      9  C   UNL     1     111.935 125.987 138.817  0.00  0.00    +0.000 A 
ATOM     10  C   UNL     1     111.686 126.579 140.120  0.00  0.00    +0.000 A 
ATOM     11  C   UNL     1     113.348 126.957 140.228  0.00  0.00    +0.000 A 
ATOM     12  C   UNL     1     111.985 126.981 140.817  0.00  0.00    +0.000 A 
ATOM     13  C   UNL     1     112.822 127.171 140.872  0.00  0.00    +0.000 A 
ENDROOT
BRANCH   7  15
ATOM     14  O   UNL     1     115.291 125.152 135.792  0.00  0.00    +0.000 OA
ATOM     15  C   UNL     1     113.758 125.763 137.638  0.00  0.00    +0.000 A 
ATOM     16  C   UNL     1     114.181 125.054 137.670  0.00  0.00    +0.000 A 
ATOM     17  C   UNL     1     113.846 126.267 136.991  0.00  0.00    +0.000 A 
ATOM     18  C   UNL     1     114.692 124.851 137.055  0.00  0.00    +0.000 A 
ATOM     19  C   UNL     1     114.357 126.063 136.375  0.00  0.00    +0.000 A 
ATOM     20  C   UNL     1     114.780 125.356 136.408  0.00  0.00    +0.000 A 
ENDBRANCH   7  15
BRANCH   8  21
ATOM     21  O   UNL     1     112.153 125.397 137.534  0.00  0.00    +0.000 OA
ATOM     22  C   UNL     1     111.394 125.073 137.544  0.00  0.00    +0.000 C 
ENDBRANCH   8  21
TORSDOF 2
ENDMDL
MODEL 9
REMARK VINA RESULT:      -7.6     12.879     13.715
REMARK  Name = 44258694
REMARK  2 active torsions:
REMARK  status: ('A' for Active; 'I' for Inactive)
REMARK    1  A    between atoms: O_2  and  C_10
REMARK    2  A    between atoms: C_9  and  C_12
REMARK                            x       y       z     vdW  Elec       q    Type
REMARK                         _______ _______ _______ _____ _____    ______ ____
ROOT
ATOM      1  O   UNL     1     113.911 126.961 136.699  0.00  0.00    +0.000 OA
ATOM      2  O   UNL     1     111.675 126.145 136.021  0.00  0.00    +0.000 OA
ATOM      3  O   UNL     1     113.168 123.699 136.978  0.00  0.00    +0.000 OA
ATOM      4  O   UNL     1     114.695 124.256 137.441  0.00  0.00    +0.000 OA
ATOM      5  C   UNL     1     112.980 125.888 136.540  0.00  0.00    +0.000 A 
ATOM      6  C   UNL     1     113.726 126.160 136.766  0.00  0.00    +0.000 A 
ATOM      7  C   UNL     1     113.350 127.490 136.405  0.00  0.00    +0.000 A 
ATOM      8  C   UNL     1     112.605 127.219 136.179  0.00  0.00    +0.000 A 
ATOM      9  C   UNL     1     112.420 126.417 136.247  0.00  0.00    +0.000 A 
ATOM     10  C   UNL     1     112.776 125.056 136.606  0.00  0.00    +0.000 A 
ATOM     11  C   UNL     1     114.319 125.618 137.074  0.00  0.00    +0.000 A 
ATOM     12  C   UNL     1     113.355 124.500 136.911  0.00  0.00    +0.000 A 
ATOM     13  C   UNL     1     114.132 124.783 137.147  0.00  0.00    +0.000 A 
ENDROOT
BRANCH   7  15
ATOM     14  O   UNL     1     114.093 130.695 136.134  0.00  0.00    +0.000 OA
ATOM     15  C   UNL     1     113.536 128.291 136.338  0.00  0.00    +0.000 A 
ATOM     16  C   UNL     1     113.898 128.574 135.652  0.00  0.00    +0.000 A 
ATOM     17  C   UNL     1     113.359 128.809 136.955  0.00  0.00    +0.000 A 
ATOM     18  C   UNL     1     114.083 129.375 135.585  0.00  0.00    +0.000 A 
ATOM     19  C   UNL     1     113.545 129.611 136.888  0.00  0.00    +0.000 A 
ATOM     20  C   UNL     1     113.907 129.893 136.202  0.00  0.00    +0.000 A 
ENDBRANCH   7  15
BRANCH   8  21
ATOM     21  O   UNL     1     112.045 127.748 135.886  0.00  0.00    +0.000 OA
ATOM     22  C   UNL     1     111.308 127.473 135.638  0.00  0.00    +0.000 C 
ENDBRANCH   8  21
TORSDOF 2
ENDMDL
MODEL 10
REMARK VINA RESULT:      -7.6     12.170     12.803
REMARK  Name = 44258694
REMARK  2 active torsions:
REMARK  status: ('A' for Active; 'I' for Inactive)
REMARK    1  A    between atoms: O_2  and  C_10
REMARK    2  A    between atoms: C_9  and  C_12
REMARK                            x       y       z     vdW  Elec       q    Type
REMARK                         _______ _______ _______ _____ _____    ______ ____
ROOT
ATOM      1  O   UNL     1     112.009 125.296 136.332  0.00  0.00    +0.000 OA
ATOM      2  O   UNL     1     113.451 127.301 136.479  0.00  0.00    +0.000 OA
ATOM      3  O   UNL     1     115.131 125.022 137.533  0.00  0.00    +0.000 OA
ATOM      4  O   UNL     1     114.146 123.653 137.433  0.00  0.00    +0.000 OA
ATOM      5  C   UNL     1     113.257 125.900 136.676  0.00  0.00    +0.000 A 
ATOM      6  C   UNL     1     112.776 125.232 136.627  0.00  0.00    +0.000 A 
ATOM      7  C   UNL     1     111.722 126.030 136.086  0.00  0.00    +0.000 A 
ATOM      8  C   UNL     1     112.203 126.698 136.135  0.00  0.00    +0.000 A 
ATOM      9  C   UNL     1     112.970 126.633 136.430  0.00  0.00    +0.000 A 
ATOM     10  C   UNL     1     114.059 125.845 136.981  0.00  0.00    +0.000 A 
ATOM     11  C   UNL     1     113.063 124.461 136.880  0.00  0.00    +0.000 A 
ATOM     12  C   UNL     1     114.363 125.084 137.239  0.00  0.00    +0.000 A 
ATOM     13  C   UNL     1     113.862 124.387 137.188  0.00  0.00    +0.000 A 
ENDROOT
BRANCH   7  15
ATOM     14  O   UNL     1     108.650 126.286 134.905  0.00  0.00    +0.000 OA
ATOM     15  C   UNL     1     110.954 126.094 135.791  0.00  0.00    +0.000 A 
ATOM     16  C   UNL     1     110.807 125.954 134.991  0.00  0.00    +0.000 A 
ATOM     17  C   UNL     1     110.334 126.298 136.295  0.00  0.00    +0.000 A 
ATOM     18  C   UNL     1     110.039 126.018 134.696  0.00  0.00    +0.000 A 
ATOM     19  C   UNL     1     109.565 126.362 136.000  0.00  0.00    +0.000 A 
ATOM     20  C   UNL     1     109.419 126.222 135.200  0.00  0.00    +0.000 A 
ENDBRANCH   7  15
BRANCH   8  21
ATOM     21  O   UNL     1     111.916 127.431 135.889  0.00  0.00    +0.000 OA
ATOM     22  C   UNL     1     112.400 128.098 135.930  0.00  0.00    +0.000 C 
ENDBRANCH   8  21
TORSDOF 2
ENDMDL
