MODEL 1
REMARK VINA RESULT:      -8.9      0.000      0.000
REMARK  Name = 44258456
REMARK  12 active torsions:
REMARK  status: ('A' for Active; 'I' for Inactive)
REMARK    1  A    between atoms: O_1  and  C_17
REMARK    2  A    between atoms: O_1  and  C_21
REMARK    3  A    between atoms: O_6  and  C_23
REMARK    4  A    between atoms: O_6  and  C_30
REMARK    5  A    between atoms: O_10  and  C_28
REMARK    6  A    between atoms: O_10  and  C_34
REMARK    7  A    between atoms: O_11  and  C_32
REMARK    8  A    between atoms: O_13  and  C_35
REMARK    9  A    between atoms: O_16  and  C_48
REMARK   10  A    between atoms: C_20  and  C_27
REMARK   11  A    between atoms: C_26  and  C_28
REMARK   12  A    between atoms: C_40  and  C_42
REMARK                            x       y       z     vdW  Elec       q    Type
REMARK                         _______ _______ _______ _____ _____    ______ ____
ROOT
ATOM      1  O   UNL     1     112.047 129.523 138.493  0.00  0.00    +0.000 OA
ATOM      2  O   UNL     1     110.921 130.647 139.988  0.00  0.00    +0.000 OA
ATOM      3  O   UNL     1     113.646 129.787 139.955  0.00  0.00    +0.000 OA
ATOM      4  C   UNL     1     112.283 130.217 139.971  0.00  0.00    +0.000 C 
ATOM      5  C   UNL     1     111.543 130.258 139.610  0.00  0.00    +0.000 C 
ATOM      6  C   UNL     1     112.906 129.828 139.593  0.00  0.00    +0.000 C 
ATOM      7  C   UNL     1     111.425 129.911 138.871  0.00  0.00    +0.000 C 
ATOM      8  C   UNL     1     112.788 129.481 138.854  0.00  0.00    +0.000 C 
ENDROOT
BRANCH   7   9
ATOM      9  C   UNL     1     110.684 129.953 138.510  0.00  0.00    +0.000 C 
ATOM     10  C   UNL     1     110.193 129.290 138.500  0.00  0.00    +0.000 C 
ENDBRANCH   7   9
BRANCH   4  11
ATOM     11  O   UNL     1     112.402 130.564 140.710  0.00  0.00    +0.000 OA
BRANCH  11  16
ATOM     12  O   UNL     1     112.101 129.324 141.354  0.00  0.00    +0.000 OA
ATOM     13  O   UNL     1     112.376 131.329 142.172  0.00  0.00    +0.000 OA
ATOM     14  O   UNL     1     112.061 130.471 143.546  0.00  0.00    +0.000 OA
ATOM     15  O   UNL     1     111.774 128.849 143.459  0.00  0.00    +0.000 OA
ATOM     16  C   UNL     1     112.245 130.135 141.397  0.00  0.00    +0.000 C 
ATOM     17  C   UNL     1     112.232 130.518 142.129  0.00  0.00    +0.000 C 
ATOM     18  C   UNL     1     112.075 130.089 142.815  0.00  0.00    +0.000 C 
ATOM     19  C   UNL     1     111.931 129.278 142.772  0.00  0.00    +0.000 C 
ATOM     20  C   UNL     1     111.944 128.895 142.040  0.00  0.00    +0.000 C 
BRANCH  20  21
ATOM     21  C   UNL     1     111.800 128.084 141.997  0.00  0.00    +0.000 C 
BRANCH  21  22
ATOM     22  O   UNL     1     111.130 127.804 141.607  0.00  0.00    +0.000 OA
BRANCH  22  24
ATOM     23  O   UNL     1     111.680 126.485 141.602  0.00  0.00    +0.000 OA
ATOM     24  C   UNL     1     111.058 127.000 141.435  0.00  0.00    +0.000 C 
ATOM     25  C   UNL     1     110.364 126.711 141.095  0.00  0.00    +0.000 C 
ENDBRANCH  22  24
ENDBRANCH  21  22
ENDBRANCH  20  21
ENDBRANCH  11  16
ENDBRANCH   4  11
BRANCH   8  26
ATOM     26  O   UNL     1     113.409 129.093 138.477  0.00  0.00    +0.000 OA
BRANCH  26  29
ATOM     27  O   UNL     1     112.885 126.990 136.558  0.00  0.00    +0.000 OA
ATOM     28  O   UNL     1     113.141 127.759 138.958  0.00  0.00    +0.000 OA
ATOM     29  C   UNL     1     113.327 128.845 137.694  0.00  0.00    +0.000 A 
ATOM     30  C   UNL     1     113.151 128.056 137.528  0.00  0.00    +0.000 A 
ATOM     31  C   UNL     1     113.419 129.385 137.078  0.00  0.00    +0.000 A 
ATOM     32  C   UNL     1     113.068 127.808 136.746  0.00  0.00    +0.000 A 
ATOM     33  C   UNL     1     113.337 129.138 136.297  0.00  0.00    +0.000 A 
ATOM     34  C   UNL     1     113.056 127.502 138.178  0.00  0.00    +0.000 A 
ATOM     35  C   UNL     1     113.161 128.349 136.129  0.00  0.00    +0.000 A 
ATOM     36  C   UNL     1     112.873 126.679 138.012  0.00  0.00    +0.000 A 
ATOM     37  C   UNL     1     112.787 126.421 137.196  0.00  0.00    +0.000 A 
BRANCH  37  38
ATOM     38  C   UNL     1     112.611 125.633 137.026  0.00  0.00    +0.000 A 
ATOM     39  C   UNL     1     113.221 125.084 136.943  0.00  0.00    +0.000 A 
ATOM     40  C   UNL     1     111.826 125.395 136.940  0.00  0.00    +0.000 A 
ATOM     41  C   UNL     1     113.046 124.296 136.774  0.00  0.00    +0.000 A 
ATOM     42  C   UNL     1     111.652 124.607 136.771  0.00  0.00    +0.000 A 
ATOM     43  C   UNL     1     112.261 124.057 136.688  0.00  0.00    +0.000 A 
BRANCH  43  44
ATOM     44  O   UNL     1     112.085 123.269 136.518  0.00  0.00    +0.000 OA
ATOM     45  C   UNL     1     111.931 122.740 137.132  0.00  0.00    +0.000 C 
ENDBRANCH  43  44
ENDBRANCH  37  38
BRANCH  31  46
ATOM     46  O   UNL     1     113.595 130.175 137.245  0.00  0.00    +0.000 OA
ATOM     47  C   UNL     1     114.273 130.521 136.927  0.00  0.00    +0.000 C 
ENDBRANCH  31  46
BRANCH  33  48
ATOM     48  O   UNL     1     113.430 129.679 135.680  0.00  0.00    +0.000 OA
ATOM     49  C   UNL     1     113.175 129.486 134.920  0.00  0.00    +0.000 C 
ENDBRANCH  33  48
ENDBRANCH  26  29
ENDBRANCH   8  26
TORSDOF 12
ENDMDL
MODEL 2
REMARK VINA RESULT:      -8.8      2.084      4.007
REMARK  Name = 44258456
REMARK  12 active torsions:
REMARK  status: ('A' for Active; 'I' for Inactive)
REMARK    1  A    between atoms: O_1  and  C_17
REMARK    2  A    between atoms: O_1  and  C_21
REMARK    3  A    between atoms: O_6  and  C_23
REMARK    4  A    between atoms: O_6  and  C_30
REMARK    5  A    between atoms: O_10  and  C_28
REMARK    6  A    between atoms: O_10  and  C_34
REMARK    7  A    between atoms: O_11  and  C_32
REMARK    8  A    between atoms: O_13  and  C_35
REMARK    9  A    between atoms: O_16  and  C_48
REMARK   10  A    between atoms: C_20  and  C_27
REMARK   11  A    between atoms: C_26  and  C_28
REMARK   12  A    between atoms: C_40  and  C_42
REMARK                            x       y       z     vdW  Elec       q    Type
REMARK                         _______ _______ _______ _____ _____    ______ ____
ROOT
ATOM      1  O   UNL     1     111.420 129.447 139.152  0.00  0.00    +0.000 OA
ATOM      2  O   UNL     1     109.874 130.967 139.401  0.00  0.00    +0.000 OA
ATOM      3  O   UNL     1     112.262 130.966 137.831  0.00  0.00    +0.000 OA
ATOM      4  C   UNL     1     111.068 130.967 138.616  0.00  0.00    +0.000 C 
ATOM      5  C   UNL     1     110.559 130.587 139.142  0.00  0.00    +0.000 C 
ATOM      6  C   UNL     1     111.754 130.586 138.358  0.00  0.00    +0.000 C 
ATOM      7  C   UNL     1     110.735 129.827 139.411  0.00  0.00    +0.000 C 
ATOM      8  C   UNL     1     111.930 129.826 138.626  0.00  0.00    +0.000 C 
ENDROOT
BRANCH   7   9
ATOM      9  C   UNL     1     110.226 129.447 139.937  0.00  0.00    +0.000 C 
ATOM     10  C   UNL     1     109.716 128.858 139.665  0.00  0.00    +0.000 C 
ENDBRANCH   7   9
BRANCH   4  11
ATOM     11  O   UNL     1     110.892 131.727 138.348  0.00  0.00    +0.000 OA
BRANCH  11  16
ATOM     12  O   UNL     1     110.180 131.185 137.234  0.00  0.00    +0.000 OA
ATOM     13  O   UNL     1     110.815 133.228 137.666  0.00  0.00    +0.000 OA
ATOM     14  O   UNL     1     110.064 133.436 136.212  0.00  0.00    +0.000 OA
ATOM     15  O   UNL     1     109.390 132.143 135.439  0.00  0.00    +0.000 OA
ATOM     16  C   UNL     1     110.517 131.831 137.621  0.00  0.00    +0.000 C 
ATOM     17  C   UNL     1     110.478 132.582 137.280  0.00  0.00    +0.000 C 
ATOM     18  C   UNL     1     110.102 132.686 136.553  0.00  0.00    +0.000 C 
ATOM     19  C   UNL     1     109.766 132.040 136.166  0.00  0.00    +0.000 C 
ATOM     20  C   UNL     1     109.804 131.289 136.507  0.00  0.00    +0.000 C 
BRANCH  20  21
ATOM     21  C   UNL     1     109.467 130.643 136.120  0.00  0.00    +0.000 C 
BRANCH  21  22
ATOM     22  O   UNL     1     108.951 130.143 136.523  0.00  0.00    +0.000 OA
BRANCH  22  24
ATOM     23  O   UNL     1     107.805 129.522 135.939  0.00  0.00    +0.000 OA
ATOM     24  C   UNL     1     108.606 129.502 136.133  0.00  0.00    +0.000 C 
ATOM     25  C   UNL     1     109.062 128.844 135.939  0.00  0.00    +0.000 C 
ENDBRANCH  22  24
ENDBRANCH  21  22
ENDBRANCH  20  21
ENDBRANCH  11  16
ENDBRANCH   4  11
BRANCH   8  26
ATOM     26  O   UNL     1     112.614 129.446 138.368  0.00  0.00    +0.000 OA
BRANCH  26  29
ATOM     27  O   UNL     1     112.947 126.579 138.583  0.00  0.00    +0.000 OA
ATOM     28  O   UNL     1     112.071 128.600 137.333  0.00  0.00    +0.000 OA
ATOM     29  C   UNL     1     112.901 128.790 138.777  0.00  0.00    +0.000 A 
ATOM     30  C   UNL     1     112.780 128.031 138.476  0.00  0.00    +0.000 A 
ATOM     31  C   UNL     1     113.308 128.891 139.487  0.00  0.00    +0.000 A 
ATOM     32  C   UNL     1     113.066 127.375 138.885  0.00  0.00    +0.000 A 
ATOM     33  C   UNL     1     113.594 128.236 139.896  0.00  0.00    +0.000 A 
ATOM     34  C   UNL     1     112.354 127.938 137.736  0.00  0.00    +0.000 A 
ATOM     35  C   UNL     1     113.474 127.477 139.596  0.00  0.00    +0.000 A 
ATOM     36  C   UNL     1     112.225 127.150 137.417  0.00  0.00    +0.000 A 
ATOM     37  C   UNL     1     112.524 126.466 137.843  0.00  0.00    +0.000 A 
BRANCH  37  38
ATOM     38  C   UNL     1     112.404 125.706 137.545  0.00  0.00    +0.000 A 
ATOM     39  C   UNL     1     111.694 125.313 137.692  0.00  0.00    +0.000 A 
ATOM     40  C   UNL     1     112.995 125.340 137.099  0.00  0.00    +0.000 A 
ATOM     41  C   UNL     1     111.575 124.553 137.393  0.00  0.00    +0.000 A 
ATOM     42  C   UNL     1     112.874 124.581 136.801  0.00  0.00    +0.000 A 
ATOM     43  C   UNL     1     112.164 124.187 136.948  0.00  0.00    +0.000 A 
BRANCH  43  44
ATOM     44  O   UNL     1     112.045 123.427 136.650  0.00  0.00    +0.000 OA
ATOM     45  C   UNL     1     111.956 122.790 137.166  0.00  0.00    +0.000 C 
ENDBRANCH  43  44
ENDBRANCH  37  38
BRANCH  31  46
ATOM     46  O   UNL     1     113.429 129.651 139.788  0.00  0.00    +0.000 OA
ATOM     47  C   UNL     1     114.193 129.909 139.960  0.00  0.00    +0.000 C 
ENDBRANCH  31  46
BRANCH  33  48
ATOM     48  O   UNL     1     114.002 128.338 140.607  0.00  0.00    +0.000 OA
ATOM     49  C   UNL     1     114.272 127.680 141.026  0.00  0.00    +0.000 C 
ENDBRANCH  33  48
ENDBRANCH  26  29
ENDBRANCH   8  26
TORSDOF 12
ENDMDL
MODEL 3
REMARK VINA RESULT:      -8.7      1.973      5.809
REMARK  Name = 44258456
REMARK  12 active torsions:
REMARK  status: ('A' for Active; 'I' for Inactive)
REMARK    1  A    between atoms: O_1  and  C_17
REMARK    2  A    between atoms: O_1  and  C_21
REMARK    3  A    between atoms: O_6  and  C_23
REMARK    4  A    between atoms: O_6  and  C_30
REMARK    5  A    between atoms: O_10  and  C_28
REMARK    6  A    between atoms: O_10  and  C_34
REMARK    7  A    between atoms: O_11  and  C_32
REMARK    8  A    between atoms: O_13  and  C_35
REMARK    9  A    between atoms: O_16  and  C_48
REMARK   10  A    between atoms: C_20  and  C_27
REMARK   11  A    between atoms: C_26  and  C_28
REMARK   12  A    between atoms: C_40  and  C_42
REMARK                            x       y       z     vdW  Elec       q    Type
REMARK                         _______ _______ _______ _____ _____    ______ ____
ROOT
ATOM      1  O   UNL     1     111.752 127.503 139.602  0.00  0.00    +0.000 OA
ATOM      2  O   UNL     1     110.722 125.581 139.529  0.00  0.00    +0.000 OA
ATOM      3  O   UNL     1     113.060 126.503 138.169  0.00  0.00    +0.000 OA
ATOM      4  C   UNL     1     111.891 126.042 138.849  0.00  0.00    +0.000 C 
ATOM      5  C   UNL     1     111.272 126.177 139.377  0.00  0.00    +0.000 C 
ATOM      6  C   UNL     1     112.441 126.638 138.698  0.00  0.00    +0.000 C 
ATOM      7  C   UNL     1     111.203 126.908 139.754  0.00  0.00    +0.000 C 
ATOM      8  C   UNL     1     112.372 127.369 139.074  0.00  0.00    +0.000 C 
ENDROOT
BRANCH   7   9
ATOM      9  C   UNL     1     110.583 127.042 140.282  0.00  0.00    +0.000 C 
ATOM     10  C   UNL     1     109.918 127.464 140.038  0.00  0.00    +0.000 C 
ENDBRANCH   7   9
BRANCH   4  11
ATOM     11  O   UNL     1     111.960 125.311 138.473  0.00  0.00    +0.000 OA
BRANCH  11  16
ATOM     12  O   UNL     1     111.005 125.662 137.469  0.00  0.00    +0.000 OA
ATOM     13  O   UNL     1     112.613 124.185 137.458  0.00  0.00    +0.000 OA
ATOM     14  O   UNL     1     111.984 123.973 135.947  0.00  0.00    +0.000 OA
ATOM     15  O   UNL     1     110.703 124.886 135.451  0.00  0.00    +0.000 OA
ATOM     16  C   UNL     1     111.646 125.205 137.718  0.00  0.00    +0.000 C 
ATOM     17  C   UNL     1     111.973 124.641 137.210  0.00  0.00    +0.000 C 
ATOM     18  C   UNL     1     111.658 124.536 136.455  0.00  0.00    +0.000 C 
ATOM     19  C   UNL     1     111.018 124.992 136.207  0.00  0.00    +0.000 C 
ATOM     20  C   UNL     1     110.691 125.555 136.714  0.00  0.00    +0.000 C 
BRANCH  20  21
ATOM     21  C   UNL     1     110.050 126.012 136.466  0.00  0.00    +0.000 C 
BRANCH  21  22
ATOM     22  O   UNL     1     110.099 126.835 136.479  0.00  0.00    +0.000 OA
BRANCH  22  24
ATOM     23  O   UNL     1     108.720 127.107 136.734  0.00  0.00    +0.000 OA
ATOM     24  C   UNL     1     109.424 127.291 136.347  0.00  0.00    +0.000 C 
ATOM     25  C   UNL     1     109.454 127.931 135.828  0.00  0.00    +0.000 C 
ENDBRANCH  22  24
ENDBRANCH  21  22
ENDBRANCH  20  21
ENDBRANCH  11  16
ENDBRANCH   4  11
BRANCH   8  26
ATOM     26  O   UNL     1     112.922 127.964 138.923  0.00  0.00    +0.000 OA
BRANCH  26  29
ATOM     27  O   UNL     1     112.113 130.743 138.982  0.00  0.00    +0.000 OA
ATOM     28  O   UNL     1     112.275 128.529 137.762  0.00  0.00    +0.000 OA
ATOM     29  C   UNL     1     112.870 128.685 139.322  0.00  0.00    +0.000 A 
ATOM     30  C   UNL     1     112.523 129.337 138.954  0.00  0.00    +0.000 A 
ATOM     31  C   UNL     1     113.166 128.753 140.089  0.00  0.00    +0.000 A 
ATOM     32  C   UNL     1     112.472 130.056 139.353  0.00  0.00    +0.000 A 
ATOM     33  C   UNL     1     113.114 129.472 140.488  0.00  0.00    +0.000 A 
ATOM     34  C   UNL     1     112.220 129.253 138.155  0.00  0.00    +0.000 A 
ATOM     35  C   UNL     1     112.768 130.125 140.121  0.00  0.00    +0.000 A 
ATOM     36  C   UNL     1     111.857 129.928 137.766  0.00  0.00    +0.000 A 
ATOM     37  C   UNL     1     111.804 130.679 138.182  0.00  0.00    +0.000 A 
BRANCH  37  38
ATOM     38  C   UNL     1     111.457 131.332 137.817  0.00  0.00    +0.000 A 
ATOM     39  C   UNL     1     111.868 131.742 137.230  0.00  0.00    +0.000 A 
ATOM     40  C   UNL     1     110.701 131.576 138.038  0.00  0.00    +0.000 A 
ATOM     41  C   UNL     1     111.522 132.395 136.865  0.00  0.00    +0.000 A 
ATOM     42  C   UNL     1     110.356 132.229 137.672  0.00  0.00    +0.000 A 
ATOM     43  C   UNL     1     110.766 132.639 137.085  0.00  0.00    +0.000 A 
BRANCH  43  44
ATOM     44  O   UNL     1     110.420 133.293 136.720  0.00  0.00    +0.000 OA
ATOM     45  C   UNL     1     109.954 133.190 136.047  0.00  0.00    +0.000 C 
ENDBRANCH  43  44
ENDBRANCH  37  38
BRANCH  31  46
ATOM     46  O   UNL     1     113.513 128.101 140.457  0.00  0.00    +0.000 OA
ATOM     47  C   UNL     1     114.299 128.136 140.702  0.00  0.00    +0.000 C 
ENDBRANCH  31  46
BRANCH  33  48
ATOM     48  O   UNL     1     113.410 129.541 141.256  0.00  0.00    +0.000 OA
ATOM     49  C   UNL     1     113.104 130.112 141.767  0.00  0.00    +0.000 C 
ENDBRANCH  33  48
ENDBRANCH  26  29
ENDBRANCH   8  26
TORSDOF 12
ENDMDL
MODEL 4
REMARK VINA RESULT:      -8.7      2.033      4.540
REMARK  Name = 44258456
REMARK  12 active torsions:
REMARK  status: ('A' for Active; 'I' for Inactive)
REMARK    1  A    between atoms: O_1  and  C_17
REMARK    2  A    between atoms: O_1  and  C_21
REMARK    3  A    between atoms: O_6  and  C_23
REMARK    4  A    between atoms: O_6  and  C_30
REMARK    5  A    between atoms: O_10  and  C_28
REMARK    6  A    between atoms: O_10  and  C_34
REMARK    7  A    between atoms: O_11  and  C_32
REMARK    8  A    between atoms: O_13  and  C_35
REMARK    9  A    between atoms: O_16  and  C_48
REMARK   10  A    between atoms: C_20  and  C_27
REMARK   11  A    between atoms: C_26  and  C_28
REMARK   12  A    between atoms: C_40  and  C_42
REMARK                            x       y       z     vdW  Elec       q    Type
REMARK                         _______ _______ _______ _____ _____    ______ ____
ROOT
ATOM      1  O   UNL     1     112.362 126.566 139.021  0.00  0.00    +0.000 OA
ATOM      2  O   UNL     1     111.632 126.302 141.061  0.00  0.00    +0.000 OA
ATOM      3  O   UNL     1     110.340 125.897 138.545  0.00  0.00    +0.000 OA
ATOM      4  C   UNL     1     110.986 126.100 139.803  0.00  0.00    +0.000 C 
ATOM      5  C   UNL     1     111.653 126.318 140.236  0.00  0.00    +0.000 C 
ATOM      6  C   UNL     1     111.007 126.115 138.978  0.00  0.00    +0.000 C 
ATOM      7  C   UNL     1     112.341 126.551 139.845  0.00  0.00    +0.000 C 
ATOM      8  C   UNL     1     111.695 126.349 138.587  0.00  0.00    +0.000 C 
ENDROOT
BRANCH   7   9
ATOM      9  C   UNL     1     113.008 126.769 140.279  0.00  0.00    +0.000 C 
ATOM     10  C   UNL     1     113.208 127.566 140.356  0.00  0.00    +0.000 C 
ENDBRANCH   7   9
BRANCH   4  11
ATOM     11  O   UNL     1     110.298 125.866 140.194  0.00  0.00    +0.000 OA
BRANCH  11  16
ATOM     12  O   UNL     1     109.866 127.227 140.257  0.00  0.00    +0.000 OA
ATOM     13  O   UNL     1     109.022 125.417 141.139  0.00  0.00    +0.000 OA
ATOM     14  O   UNL     1     107.952 126.553 141.675  0.00  0.00    +0.000 OA
ATOM     15  O   UNL     1     108.158 128.138 141.266  0.00  0.00    +0.000 OA
ATOM     16  C   UNL     1     109.764 126.434 140.462  0.00  0.00    +0.000 C 
ATOM     17  C   UNL     1     109.125 126.209 140.935  0.00  0.00    +0.000 C 
ATOM     18  C   UNL     1     108.590 126.778 141.203  0.00  0.00    +0.000 C 
ATOM     19  C   UNL     1     108.693 127.570 140.998  0.00  0.00    +0.000 C 
ATOM     20  C   UNL     1     109.332 127.795 140.525  0.00  0.00    +0.000 C 
BRANCH  20  21
ATOM     21  C   UNL     1     109.434 128.588 140.321  0.00  0.00    +0.000 C 
BRANCH  21  22
ATOM     22  O   UNL     1     109.448 128.811 139.528  0.00  0.00    +0.000 OA
BRANCH  22  24
ATOM     23  O   UNL     1     110.399 129.873 139.629  0.00  0.00    +0.000 OA
ATOM     24  C   UNL     1     109.699 129.569 139.316  0.00  0.00    +0.000 C 
ATOM     25  C   UNL     1     109.250 130.021 138.793  0.00  0.00    +0.000 C 
ENDBRANCH  22  24
ENDBRANCH  21  22
ENDBRANCH  20  21
ENDBRANCH  11  16
ENDBRANCH   4  11
BRANCH   8  26
ATOM     26  O   UNL     1     111.716 126.364 137.763  0.00  0.00    +0.000 OA
BRANCH  26  29
ATOM     27  O   UNL     1     113.876 127.568 136.259  0.00  0.00    +0.000 OA
ATOM     28  O   UNL     1     111.664 127.778 137.476  0.00  0.00    +0.000 OA
ATOM     29  C   UNL     1     112.436 126.293 137.367  0.00  0.00    +0.000 A 
ATOM     30  C   UNL     1     112.784 126.956 137.020  0.00  0.00    +0.000 A 
ATOM     31  C   UNL     1     112.810 125.559 137.318  0.00  0.00    +0.000 A 
ATOM     32  C   UNL     1     113.503 126.885 136.624  0.00  0.00    +0.000 A 
ATOM     33  C   UNL     1     113.529 125.488 136.922  0.00  0.00    +0.000 A 
ATOM     34  C   UNL     1     112.385 127.715 137.078  0.00  0.00    +0.000 A 
ATOM     35  C   UNL     1     113.877 126.151 136.575  0.00  0.00    +0.000 A 
ATOM     36  C   UNL     1     112.741 128.410 136.719  0.00  0.00    +0.000 A 
ATOM     37  C   UNL     1     113.492 128.336 136.306  0.00  0.00    +0.000 A 
BRANCH  37  38
ATOM     38  C   UNL     1     113.841 128.997 135.958  0.00  0.00    +0.000 A 
ATOM     39  C   UNL     1     113.926 129.035 135.138  0.00  0.00    +0.000 A 
ATOM     40  C   UNL     1     114.106 129.621 136.430  0.00  0.00    +0.000 A 
ATOM     41  C   UNL     1     114.276 129.696 134.791  0.00  0.00    +0.000 A 
ATOM     42  C   UNL     1     114.455 130.281 136.081  0.00  0.00    +0.000 A 
ATOM     43  C   UNL     1     114.540 130.320 135.262  0.00  0.00    +0.000 A 
BRANCH  43  44
ATOM     44  O   UNL     1     114.890 130.981 134.914  0.00  0.00    +0.000 OA
ATOM     45  C   UNL     1     115.710 131.019 134.832  0.00  0.00    +0.000 C 
ENDBRANCH  43  44
ENDBRANCH  37  38
BRANCH  31  46
ATOM     46  O   UNL     1     112.462 124.896 137.665  0.00  0.00    +0.000 OA
ATOM     47  C   UNL     1     112.254 124.248 137.198  0.00  0.00    +0.000 C 
ENDBRANCH  31  46
BRANCH  33  48
ATOM     48  O   UNL     1     113.903 124.753 136.873  0.00  0.00    +0.000 OA
ATOM     49  C   UNL     1     114.707 124.711 136.696  0.00  0.00    +0.000 C 
ENDBRANCH  33  48
ENDBRANCH  26  29
ENDBRANCH   8  26
TORSDOF 12
ENDMDL
MODEL 5
REMARK VINA RESULT:      -8.6      2.125      5.557
REMARK  Name = 44258456
REMARK  12 active torsions:
REMARK  status: ('A' for Active; 'I' for Inactive)
REMARK    1  A    between atoms: O_1  and  C_17
REMARK    2  A    between atoms: O_1  and  C_21
REMARK    3  A    between atoms: O_6  and  C_23
REMARK    4  A    between atoms: O_6  and  C_30
REMARK    5  A    between atoms: O_10  and  C_28
REMARK    6  A    between atoms: O_10  and  C_34
REMARK    7  A    between atoms: O_11  and  C_32
REMARK    8  A    between atoms: O_13  and  C_35
REMARK    9  A    between atoms: O_16  and  C_48
REMARK   10  A    between atoms: C_20  and  C_27
REMARK   11  A    between atoms: C_26  and  C_28
REMARK   12  A    between atoms: C_40  and  C_42
REMARK                            x       y       z     vdW  Elec       q    Type
REMARK                         _______ _______ _______ _____ _____    ______ ____
ROOT
ATOM      1  O   UNL     1     111.483 127.908 139.019  0.00  0.00    +0.000 OA
ATOM      2  O   UNL     1     111.801 125.799 139.485  0.00  0.00    +0.000 OA
ATOM      3  O   UNL     1     113.562 127.755 138.370  0.00  0.00    +0.000 OA
ATOM      4  C   UNL     1     112.681 126.777 138.928  0.00  0.00    +0.000 C 
ATOM      5  C   UNL     1     111.942 126.572 139.229  0.00  0.00    +0.000 C 
ATOM      6  C   UNL     1     112.822 127.550 138.672  0.00  0.00    +0.000 C 
ATOM      7  C   UNL     1     111.343 127.137 139.275  0.00  0.00    +0.000 C 
ATOM      8  C   UNL     1     112.223 128.115 138.717  0.00  0.00    +0.000 C 
ENDROOT
BRANCH   7   9
ATOM      9  C   UNL     1     110.603 126.930 139.577  0.00  0.00    +0.000 C 
ATOM     10  C   UNL     1     109.971 126.798 139.063  0.00  0.00    +0.000 C 
ENDBRANCH   7   9
BRANCH   4  11
ATOM     11  O   UNL     1     113.280 126.212 138.882  0.00  0.00    +0.000 OA
BRANCH  11  16
ATOM     12  O   UNL     1     112.775 125.676 137.657  0.00  0.00    +0.000 OA
ATOM     13  O   UNL     1     114.778 125.620 138.523  0.00  0.00    +0.000 OA
ATOM     14  O   UNL     1     115.022 124.788 137.119  0.00  0.00    +0.000 OA
ATOM     15  O   UNL     1     113.768 124.549 136.074  0.00  0.00    +0.000 OA
ATOM     16  C   UNL     1     113.402 125.796 138.180  0.00  0.00    +0.000 C 
ATOM     17  C   UNL     1     114.152 125.500 138.001  0.00  0.00    +0.000 C 
ATOM     18  C   UNL     1     114.273 125.084 137.298  0.00  0.00    +0.000 C 
ATOM     19  C   UNL     1     113.647 124.964 136.776  0.00  0.00    +0.000 C 
ATOM     20  C   UNL     1     112.897 125.261 136.956  0.00  0.00    +0.000 C 
BRANCH  20  21
ATOM     21  C   UNL     1     112.270 125.141 136.432  0.00  0.00    +0.000 C 
BRANCH  21  22
ATOM     22  O   UNL     1     111.860 125.786 136.124  0.00  0.00    +0.000 OA
BRANCH  22  24
ATOM     23  O   UNL     1     110.719 124.978 135.829  0.00  0.00    +0.000 OA
ATOM     24  C   UNL     1     111.155 125.669 135.712  0.00  0.00    +0.000 C 
ATOM     25  C   UNL     1     110.885 126.241 135.184  0.00  0.00    +0.000 C 
ENDBRANCH  22  24
ENDBRANCH  21  22
ENDBRANCH  20  21
ENDBRANCH  11  16
ENDBRANCH   4  11
BRANCH   8  26
ATOM     26  O   UNL     1     112.363 128.886 138.462  0.00  0.00    +0.000 OA
BRANCH  26  29
ATOM     27  O   UNL     1     110.202 130.681 137.765  0.00  0.00    +0.000 OA
ATOM     28  O   UNL     1     111.805 128.824 137.133  0.00  0.00    +0.000 OA
ATOM     29  C   UNL     1     111.843 129.491 138.670  0.00  0.00    +0.000 A 
ATOM     30  C   UNL     1     111.296 129.774 138.120  0.00  0.00    +0.000 A 
ATOM     31  C   UNL     1     111.868 129.814 139.429  0.00  0.00    +0.000 A 
ATOM     32  C   UNL     1     110.776 130.378 138.328  0.00  0.00    +0.000 A 
ATOM     33  C   UNL     1     111.348 130.418 139.637  0.00  0.00    +0.000 A 
ATOM     34  C   UNL     1     111.280 129.429 137.333  0.00  0.00    +0.000 A 
ATOM     35  C   UNL     1     110.802 130.701 139.087  0.00  0.00    +0.000 A 
ATOM     36  C   UNL     1     110.714 129.718 136.755  0.00  0.00    +0.000 A 
ATOM     37  C   UNL     1     110.171 130.349 136.972  0.00  0.00    +0.000 A 
BRANCH  37  38
ATOM     38  C   UNL     1     109.624 130.633 136.424  0.00  0.00    +0.000 A 
ATOM     39  C   UNL     1     108.891 130.263 136.345  0.00  0.00    +0.000 A 
ATOM     40  C   UNL     1     109.810 131.286 135.956  0.00  0.00    +0.000 A 
ATOM     41  C   UNL     1     108.344 130.547 135.796  0.00  0.00    +0.000 A 
ATOM     42  C   UNL     1     109.262 131.569 135.408  0.00  0.00    +0.000 A 
ATOM     43  C   UNL     1     108.529 131.200 135.328  0.00  0.00    +0.000 A 
BRANCH  43  44
ATOM     44  O   UNL     1     107.982 131.484 134.780  0.00  0.00    +0.000 OA
ATOM     45  C   UNL     1     107.519 132.142 134.962  0.00  0.00    +0.000 C 
ENDBRANCH  43  44
ENDBRANCH  37  38
BRANCH  31  46
ATOM     46  O   UNL     1     112.414 129.532 139.979  0.00  0.00    +0.000 OA
ATOM     47  C   UNL     1     112.959 130.048 140.321  0.00  0.00    +0.000 C 
ENDBRANCH  31  46
BRANCH  33  48
ATOM     48  O   UNL     1     111.373 130.742 140.397  0.00  0.00    +0.000 OA
ATOM     49  C   UNL     1     110.689 131.053 140.735  0.00  0.00    +0.000 C 
ENDBRANCH  33  48
ENDBRANCH  26  29
ENDBRANCH   8  26
TORSDOF 12
ENDMDL
MODEL 6
REMARK VINA RESULT:      -8.5      1.534      1.726
REMARK  Name = 44258456
REMARK  12 active torsions:
REMARK  status: ('A' for Active; 'I' for Inactive)
REMARK    1  A    between atoms: O_1  and  C_17
REMARK    2  A    between atoms: O_1  and  C_21
REMARK    3  A    between atoms: O_6  and  C_23
REMARK    4  A    between atoms: O_6  and  C_30
REMARK    5  A    between atoms: O_10  and  C_28
REMARK    6  A    between atoms: O_10  and  C_34
REMARK    7  A    between atoms: O_11  and  C_32
REMARK    8  A    between atoms: O_13  and  C_35
REMARK    9  A    between atoms: O_16  and  C_48
REMARK   10  A    between atoms: C_20  and  C_27
REMARK   11  A    between atoms: C_26  and  C_28
REMARK   12  A    between atoms: C_40  and  C_42
REMARK                            x       y       z     vdW  Elec       q    Type
REMARK                         _______ _______ _______ _____ _____    ______ ____
ROOT
ATOM      1  O   UNL     1     111.626 129.987 137.303  0.00  0.00    +0.000 OA
ATOM      2  O   UNL     1     109.877 131.101 137.986  0.00  0.00    +0.000 OA
ATOM      3  O   UNL     1     112.376 130.571 139.268  0.00  0.00    +0.000 OA
ATOM      4  C   UNL     1     111.126 130.836 138.627  0.00  0.00    +0.000 C 
ATOM      5  C   UNL     1     110.627 130.756 137.975  0.00  0.00    +0.000 C 
ATOM      6  C   UNL     1     111.876 130.491 138.616  0.00  0.00    +0.000 C 
ATOM      7  C   UNL     1     110.877 130.331 137.313  0.00  0.00    +0.000 C 
ATOM      8  C   UNL     1     112.126 130.066 137.954  0.00  0.00    +0.000 C 
ENDROOT
BRANCH   7   9
ATOM      9  C   UNL     1     110.376 130.252 136.662  0.00  0.00    +0.000 C 
ATOM     10  C   UNL     1     109.957 129.550 136.548  0.00  0.00    +0.000 C 
ENDBRANCH   7   9
BRANCH   4  11
ATOM     11  O   UNL     1     110.877 131.260 139.289  0.00  0.00    +0.000 OA
BRANCH  11  16
ATOM     12  O   UNL     1     110.177 130.118 139.787  0.00  0.00    +0.000 OA
ATOM     13  O   UNL     1     110.724 131.994 140.758  0.00  0.00    +0.000 OA
ATOM     14  O   UNL     1     109.948 131.219 141.991  0.00  0.00    +0.000 OA
ATOM     15  O   UNL     1     109.325 129.710 141.754  0.00  0.00    +0.000 OA
ATOM     16  C   UNL     1     110.489 130.873 139.904  0.00  0.00    +0.000 C 
ATOM     17  C   UNL     1     110.413 131.240 140.640  0.00  0.00    +0.000 C 
ATOM     18  C   UNL     1     110.025 130.852 141.256  0.00  0.00    +0.000 C 
ATOM     19  C   UNL     1     109.713 130.098 141.138  0.00  0.00    +0.000 C 
ATOM     20  C   UNL     1     109.790 129.730 140.402  0.00  0.00    +0.000 C 
BRANCH  20  21
ATOM     21  C   UNL     1     109.478 128.976 140.284  0.00  0.00    +0.000 C 
BRANCH  21  22
ATOM     22  O   UNL     1     109.980 128.341 140.129  0.00  0.00    +0.000 OA
BRANCH  22  24
ATOM     23  O   UNL     1     109.072 127.613 139.301  0.00  0.00    +0.000 OA
ATOM     24  C   UNL     1     109.670 127.622 139.869  0.00  0.00    +0.000 C 
ATOM     25  C   UNL     1     109.957 126.913 140.175  0.00  0.00    +0.000 C 
ENDBRANCH  22  24
ENDBRANCH  21  22
ENDBRANCH  20  21
ENDBRANCH  11  16
ENDBRANCH   4  11
BRANCH   8  26
ATOM     26  O   UNL     1     112.875 129.722 137.944  0.00  0.00    +0.000 OA
BRANCH  26  29
ATOM     27  O   UNL     1     113.376 127.343 136.373  0.00  0.00    +0.000 OA
ATOM     28  O   UNL     1     112.513 128.436 138.489  0.00  0.00    +0.000 OA
ATOM     29  C   UNL     1     113.157 129.369 137.254  0.00  0.00    +0.000 A 
ATOM     30  C   UNL     1     113.123 128.548 137.166  0.00  0.00    +0.000 A 
ATOM     31  C   UNL     1     113.473 129.834 136.650  0.00  0.00    +0.000 A 
ATOM     32  C   UNL     1     113.405 128.195 136.477  0.00  0.00    +0.000 A 
ATOM     33  C   UNL     1     113.754 129.482 135.961  0.00  0.00    +0.000 A 
ATOM     34  C   UNL     1     112.793 128.074 137.801  0.00  0.00    +0.000 A 
ATOM     35  C   UNL     1     113.721 128.662 135.873  0.00  0.00    +0.000 A 
ATOM     36  C   UNL     1     112.754 127.220 137.717  0.00  0.00    +0.000 A 
ATOM     37  C   UNL     1     113.048 126.851 136.998  0.00  0.00    +0.000 A 
BRANCH  37  38
ATOM     38  C   UNL     1     113.016 126.032 136.908  0.00  0.00    +0.000 A 
ATOM     39  C   UNL     1     113.643 125.564 137.171  0.00  0.00    +0.000 A 
ATOM     40  C   UNL     1     112.357 125.681 136.556  0.00  0.00    +0.000 A 
ATOM     41  C   UNL     1     113.610 124.744 137.081  0.00  0.00    +0.000 A 
ATOM     42  C   UNL     1     112.326 124.862 136.467  0.00  0.00    +0.000 A 
ATOM     43  C   UNL     1     112.952 124.393 136.729  0.00  0.00    +0.000 A 
BRANCH  43  44
ATOM     44  O   UNL     1     112.920 123.574 136.640  0.00  0.00    +0.000 OA
ATOM     45  C   UNL     1     112.282 123.150 136.946  0.00  0.00    +0.000 C 
ENDBRANCH  43  44
ENDBRANCH  37  38
BRANCH  31  46
ATOM     46  O   UNL     1     113.506 130.655 136.738  0.00  0.00    +0.000 OA
ATOM     47  C   UNL     1     114.233 131.044 136.700  0.00  0.00    +0.000 C 
ENDBRANCH  31  46
BRANCH  33  48
ATOM     48  O   UNL     1     114.070 129.948 135.358  0.00  0.00    +0.000 OA
ATOM     49  C   UNL     1     114.206 129.622 134.612  0.00  0.00    +0.000 C 
ENDBRANCH  33  48
ENDBRANCH  26  29
ENDBRANCH   8  26
TORSDOF 12
ENDMDL
MODEL 7
REMARK VINA RESULT:      -8.5      2.261      5.194
REMARK  Name = 44258456
REMARK  12 active torsions:
REMARK  status: ('A' for Active; 'I' for Inactive)
REMARK    1  A    between atoms: O_1  and  C_17
REMARK    2  A    between atoms: O_1  and  C_21
REMARK    3  A    between atoms: O_6  and  C_23
REMARK    4  A    between atoms: O_6  and  C_30
REMARK    5  A    between atoms: O_10  and  C_28
REMARK    6  A    between atoms: O_10  and  C_34
REMARK    7  A    between atoms: O_11  and  C_32
REMARK    8  A    between atoms: O_13  and  C_35
REMARK    9  A    between atoms: O_16  and  C_48
REMARK   10  A    between atoms: C_20  and  C_27
REMARK   11  A    between atoms: C_26  and  C_28
REMARK   12  A    between atoms: C_40  and  C_42
REMARK                            x       y       z     vdW  Elec       q    Type
REMARK                         _______ _______ _______ _____ _____    ______ ____
ROOT
ATOM      1  O   UNL     1     112.056 127.338 136.322  0.00  0.00    +0.000 OA
ATOM      2  O   UNL     1     112.232 128.752 134.668  0.00  0.00    +0.000 OA
ATOM      3  O   UNL     1     114.152 127.880 136.597  0.00  0.00    +0.000 OA
ATOM      4  C   UNL     1     113.192 128.316 135.633  0.00  0.00    +0.000 C 
ATOM      5  C   UNL     1     112.428 128.289 135.323  0.00  0.00    +0.000 C 
ATOM      6  C   UNL     1     113.388 127.853 136.288  0.00  0.00    +0.000 C 
ATOM      7  C   UNL     1     111.860 127.800 135.668  0.00  0.00    +0.000 C 
ATOM      8  C   UNL     1     112.820 127.364 136.632  0.00  0.00    +0.000 C 
ENDROOT
BRANCH   7   9
ATOM      9  C   UNL     1     111.096 127.774 135.358  0.00  0.00    +0.000 C 
ATOM     10  C   UNL     1     110.487 128.192 135.726  0.00  0.00    +0.000 C 
ENDBRANCH   7   9
BRANCH   4  11
ATOM     11  O   UNL     1     113.760 128.805 135.288  0.00  0.00    +0.000 OA
BRANCH  11  16
ATOM     12  O   UNL     1     113.420 129.850 136.202  0.00  0.00    +0.000 OA
ATOM     13  O   UNL     1     114.987 129.731 134.688  0.00  0.00    +0.000 OA
ATOM     14  O   UNL     1     115.260 131.238 135.301  0.00  0.00    +0.000 OA
ATOM     15  O   UNL     1     114.306 131.820 136.515  0.00  0.00    +0.000 OA
ATOM     16  C   UNL     1     113.896 129.558 135.595  0.00  0.00    +0.000 C 
ATOM     17  C   UNL     1     114.510 130.022 135.294  0.00  0.00    +0.000 C 
ATOM     18  C   UNL     1     114.646 130.775 135.601  0.00  0.00    +0.000 C 
ATOM     19  C   UNL     1     114.170 131.066 136.208  0.00  0.00    +0.000 C 
ATOM     20  C   UNL     1     113.556 130.603 136.509  0.00  0.00    +0.000 C 
BRANCH  20  21
ATOM     21  C   UNL     1     113.079 130.894 137.116  0.00  0.00    +0.000 C 
BRANCH  21  22
ATOM     22  O   UNL     1     112.263 130.951 137.010  0.00  0.00    +0.000 OA
BRANCH  22  24
ATOM     23  O   UNL     1     112.016 131.004 138.416  0.00  0.00    +0.000 OA
ATOM     24  C   UNL     1     111.778 131.163 137.642  0.00  0.00    +0.000 C 
ATOM     25  C   UNL     1     111.056 131.535 137.501  0.00  0.00    +0.000 C 
ENDBRANCH  22  24
ENDBRANCH  21  22
ENDBRANCH  20  21
ENDBRANCH  11  16
ENDBRANCH   4  11
BRANCH   8  26
ATOM     26  O   UNL     1     113.016 126.902 137.286  0.00  0.00    +0.000 OA
BRANCH  26  29
ATOM     27  O   UNL     1     111.004 125.586 138.898  0.00  0.00    +0.000 OA
ATOM     28  O   UNL     1     112.372 127.644 138.344  0.00  0.00    +0.000 OA
ATOM     29  C   UNL     1     112.572 126.230 137.465  0.00  0.00    +0.000 A 
ATOM     30  C   UNL     1     112.023 126.250 138.081  0.00  0.00    +0.000 A 
ATOM     31  C   UNL     1     112.676 125.538 137.028  0.00  0.00    +0.000 A 
ATOM     32  C   UNL     1     111.579 125.579 138.259  0.00  0.00    +0.000 A 
ATOM     33  C   UNL     1     112.233 124.867 137.206  0.00  0.00    +0.000 A 
ATOM     34  C   UNL     1     111.923 126.976 138.529  0.00  0.00    +0.000 A 
ATOM     35  C   UNL     1     111.684 124.886 137.821  0.00  0.00    +0.000 A 
ATOM     36  C   UNL     1     111.353 127.004 139.171  0.00  0.00    +0.000 A 
ATOM     37  C   UNL     1     110.890 126.303 139.357  0.00  0.00    +0.000 A 
BRANCH  37  38
ATOM     38  C   UNL     1     110.341 126.320 139.972  0.00  0.00    +0.000 A 
ATOM     39  C   UNL     1     110.594 126.446 140.747  0.00  0.00    +0.000 A 
ATOM     40  C   UNL     1     109.539 126.212 139.812  0.00  0.00    +0.000 A 
ATOM     41  C   UNL     1     110.045 126.463 141.362  0.00  0.00    +0.000 A 
ATOM     42  C   UNL     1     108.991 126.229 140.428  0.00  0.00    +0.000 A 
ATOM     43  C   UNL     1     109.243 126.354 141.203  0.00  0.00    +0.000 A 
BRANCH  43  44
ATOM     44  O   UNL     1     108.694 126.371 141.818  0.00  0.00    +0.000 OA
ATOM     45  C   UNL     1     108.172 127.007 141.888  0.00  0.00    +0.000 C 
ENDBRANCH  43  44
ENDBRANCH  37  38
BRANCH  31  46
ATOM     46  O   UNL     1     113.226 125.519 136.412  0.00  0.00    +0.000 OA
ATOM     47  C   UNL     1     113.819 124.946 136.407  0.00  0.00    +0.000 C 
ENDBRANCH  31  46
BRANCH  33  48
ATOM     48  O   UNL     1     112.337 124.175 136.768  0.00  0.00    +0.000 OA
ATOM     49  C   UNL     1     111.817 123.542 136.867  0.00  0.00    +0.000 C 
ENDBRANCH  33  48
ENDBRANCH  26  29
ENDBRANCH   8  26
TORSDOF 12
ENDMDL
MODEL 8
REMARK VINA RESULT:      -8.3      2.621      5.720
REMARK  Name = 44258456
REMARK  12 active torsions:
REMARK  status: ('A' for Active; 'I' for Inactive)
REMARK    1  A    between atoms: O_1  and  C_17
REMARK    2  A    between atoms: O_1  and  C_21
REMARK    3  A    between atoms: O_6  and  C_23
REMARK    4  A    between atoms: O_6  and  C_30
REMARK    5  A    between atoms: O_10  and  C_28
REMARK    6  A    between atoms: O_10  and  C_34
REMARK    7  A    between atoms: O_11  and  C_32
REMARK    8  A    between atoms: O_13  and  C_35
REMARK    9  A    between atoms: O_16  and  C_48
REMARK   10  A    between atoms: C_20  and  C_27
REMARK   11  A    between atoms: C_26  and  C_28
REMARK   12  A    between atoms: C_40  and  C_42
REMARK                            x       y       z     vdW  Elec       q    Type
REMARK                         _______ _______ _______ _____ _____    ______ ____
ROOT
ATOM      1  O   UNL     1     112.668 128.378 137.418  0.00  0.00    +0.000 OA
ATOM      2  O   UNL     1     113.207 126.581 138.533  0.00  0.00    +0.000 OA
ATOM      3  O   UNL     1     113.545 127.243 135.773  0.00  0.00    +0.000 OA
ATOM      4  C   UNL     1     113.376 126.912 137.153  0.00  0.00    +0.000 C 
ATOM      5  C   UNL     1     113.114 127.114 137.908  0.00  0.00    +0.000 C 
ATOM      6  C   UNL     1     113.283 127.445 136.529  0.00  0.00    +0.000 C 
ATOM      7  C   UNL     1     112.760 127.847 138.041  0.00  0.00    +0.000 C 
ATOM      8  C   UNL     1     112.929 128.178 136.661  0.00  0.00    +0.000 C 
ENDROOT
BRANCH   7   9
ATOM      9  C   UNL     1     112.498 128.047 138.798  0.00  0.00    +0.000 C 
ATOM     10  C   UNL     1     111.697 127.989 138.985  0.00  0.00    +0.000 C 
ENDBRANCH   7   9
BRANCH   4  11
ATOM     11  O   UNL     1     113.730 126.179 137.020  0.00  0.00    +0.000 OA
BRANCH  11  16
ATOM     12  O   UNL     1     112.481 125.592 136.651  0.00  0.00    +0.000 OA
ATOM     13  O   UNL     1     114.356 124.676 137.291  0.00  0.00    +0.000 OA
ATOM     14  O   UNL     1     113.419 123.338 137.056  0.00  0.00    +0.000 OA
ATOM     15  O   UNL     1     111.857 123.502 136.551  0.00  0.00    +0.000 OA
ATOM     16  C   UNL     1     113.262 125.510 136.903  0.00  0.00    +0.000 C 
ATOM     17  C   UNL     1     113.575 124.758 137.038  0.00  0.00    +0.000 C 
ATOM     18  C   UNL     1     113.106 124.089 136.921  0.00  0.00    +0.000 C 
ATOM     19  C   UNL     1     112.326 124.171 136.669  0.00  0.00    +0.000 C 
ATOM     20  C   UNL     1     112.013 124.923 136.533  0.00  0.00    +0.000 C 
BRANCH  20  21
ATOM     21  C   UNL     1     111.231 125.005 136.281  0.00  0.00    +0.000 C 
BRANCH  21  22
ATOM     22  O   UNL     1     111.066 125.370 135.561  0.00  0.00    +0.000 OA
BRANCH  22  24
ATOM     23  O   UNL     1     109.774 125.780 136.011  0.00  0.00    +0.000 OA
ATOM     24  C   UNL     1     110.300 125.629 135.394  0.00  0.00    +0.000 C 
ATOM     25  C   UNL     1     110.061 125.737 134.613  0.00  0.00    +0.000 C 
ENDBRANCH  22  24
ENDBRANCH  21  22
ENDBRANCH  20  21
ENDBRANCH  11  16
ENDBRANCH   4  11
BRANCH   8  26
ATOM     26  O   UNL     1     112.837 128.710 136.038  0.00  0.00    +0.000 OA
BRANCH  26  29
ATOM     27  O   UNL     1     110.988 130.932 136.193  0.00  0.00    +0.000 OA
ATOM     28  O   UNL     1     111.448 128.487 135.716  0.00  0.00    +0.000 OA
ATOM     29  C   UNL     1     112.690 129.506 136.194  0.00  0.00    +0.000 A 
ATOM     30  C   UNL     1     111.926 129.809 136.115  0.00  0.00    +0.000 A 
ATOM     31  C   UNL     1     113.307 130.002 136.429  0.00  0.00    +0.000 A 
ATOM     32  C   UNL     1     111.779 130.604 136.271  0.00  0.00    +0.000 A 
ATOM     33  C   UNL     1     113.160 130.797 136.584  0.00  0.00    +0.000 A 
ATOM     34  C   UNL     1     111.292 129.283 135.870  0.00  0.00    +0.000 A 
ATOM     35  C   UNL     1     112.397 131.100 136.506  0.00  0.00    +0.000 A 
ATOM     36  C   UNL     1     110.494 129.591 135.786  0.00  0.00    +0.000 A 
ATOM     37  C   UNL     1     110.341 130.421 135.949  0.00  0.00    +0.000 A 
BRANCH  37  38
ATOM     38  C   UNL     1     109.578 130.726 135.871  0.00  0.00    +0.000 A 
ATOM     39  C   UNL     1     109.327 131.025 135.144  0.00  0.00    +0.000 A 
ATOM     40  C   UNL     1     109.068 130.730 136.519  0.00  0.00    +0.000 A 
ATOM     41  C   UNL     1     108.564 131.330 135.067  0.00  0.00    +0.000 A 
ATOM     42  C   UNL     1     108.305 131.035 136.440  0.00  0.00    +0.000 A 
ATOM     43  C   UNL     1     108.053 131.335 135.714  0.00  0.00    +0.000 A 
BRANCH  43  44
ATOM     44  O   UNL     1     107.291 131.639 135.636  0.00  0.00    +0.000 OA
ATOM     45  C   UNL     1     107.133 132.215 135.067  0.00  0.00    +0.000 C 
ENDBRANCH  43  44
ENDBRANCH  37  38
BRANCH  31  46
ATOM     46  O   UNL     1     114.071 129.699 136.507  0.00  0.00    +0.000 OA
ATOM     47  C   UNL     1     114.688 130.020 136.064  0.00  0.00    +0.000 C 
ENDBRANCH  31  46
BRANCH  33  48
ATOM     48  O   UNL     1     113.777 131.293 136.819  0.00  0.00    +0.000 OA
ATOM     49  C   UNL     1     113.653 132.106 136.881  0.00  0.00    +0.000 C 
ENDBRANCH  33  48
ENDBRANCH  26  29
ENDBRANCH   8  26
TORSDOF 12
ENDMDL
MODEL 9
REMARK VINA RESULT:      -8.2      2.102      2.850
REMARK  Name = 44258456
REMARK  12 active torsions:
REMARK  status: ('A' for Active; 'I' for Inactive)
REMARK    1  A    between atoms: O_1  and  C_17
REMARK    2  A    between atoms: O_1  and  C_21
REMARK    3  A    between atoms: O_6  and  C_23
REMARK    4  A    between atoms: O_6  and  C_30
REMARK    5  A    between atoms: O_10  and  C_28
REMARK    6  A    between atoms: O_10  and  C_34
REMARK    7  A    between atoms: O_11  and  C_32
REMARK    8  A    between atoms: O_13  and  C_35
REMARK    9  A    between atoms: O_16  and  C_48
REMARK   10  A    between atoms: C_20  and  C_27
REMARK   11  A    between atoms: C_26  and  C_28
REMARK   12  A    between atoms: C_40  and  C_42
REMARK                            x       y       z     vdW  Elec       q    Type
REMARK                         _______ _______ _______ _____ _____    ______ ____
ROOT
ATOM      1  O   UNL     1     110.378 129.961 138.584  0.00  0.00    +0.000 OA
ATOM      2  O   UNL     1     110.831 131.134 140.368  0.00  0.00    +0.000 OA
ATOM      3  O   UNL     1     108.419 129.846 139.538  0.00  0.00    +0.000 OA
ATOM      4  C   UNL     1     109.625 130.490 139.953  0.00  0.00    +0.000 C 
ATOM      5  C   UNL     1     110.416 130.680 139.818  0.00  0.00    +0.000 C 
ATOM      6  C   UNL     1     109.210 130.036 139.403  0.00  0.00    +0.000 C 
ATOM      7  C   UNL     1     110.793 130.415 139.133  0.00  0.00    +0.000 C 
ATOM      8  C   UNL     1     109.587 129.771 138.718  0.00  0.00    +0.000 C 
ENDROOT
BRANCH   7   9
ATOM      9  C   UNL     1     111.585 130.605 138.999  0.00  0.00    +0.000 C 
ATOM     10  C   UNL     1     112.173 130.044 139.140  0.00  0.00    +0.000 C 
ENDBRANCH   7   9
BRANCH   4  11
ATOM     11  O   UNL     1     109.248 130.755 140.638  0.00  0.00    +0.000 OA
BRANCH  11  16
ATOM     12  O   UNL     1     109.559 129.521 141.289  0.00  0.00    +0.000 OA
ATOM     13  O   UNL     1     108.612 131.337 142.045  0.00  0.00    +0.000 OA
ATOM     14  O   UNL     1     108.604 130.394 143.399  0.00  0.00    +0.000 OA
ATOM     15  O   UNL     1     109.233 128.869 143.346  0.00  0.00    +0.000 OA
ATOM     16  C   UNL     1     109.245 130.284 141.314  0.00  0.00    +0.000 C 
ATOM     17  C   UNL     1     108.926 130.575 142.018  0.00  0.00    +0.000 C 
ATOM     18  C   UNL     1     108.922 130.103 142.695  0.00  0.00    +0.000 C 
ATOM     19  C   UNL     1     109.237 129.341 142.669  0.00  0.00    +0.000 C 
ATOM     20  C   UNL     1     109.555 129.050 141.965  0.00  0.00    +0.000 C 
BRANCH  20  21
ATOM     21  C   UNL     1     109.870 128.287 141.939  0.00  0.00    +0.000 C 
BRANCH  21  22
ATOM     22  O   UNL     1     110.679 128.178 141.829  0.00  0.00    +0.000 OA
BRANCH  22  24
ATOM     23  O   UNL     1     110.514 126.759 141.808  0.00  0.00    +0.000 OA
ATOM     24  C   UNL     1     110.975 127.427 141.659  0.00  0.00    +0.000 C 
ATOM     25  C   UNL     1     111.731 127.343 141.341  0.00  0.00    +0.000 C 
ENDBRANCH  22  24
ENDBRANCH  21  22
ENDBRANCH  20  21
ENDBRANCH  11  16
ENDBRANCH   4  11
BRANCH   8  26
ATOM     26  O   UNL     1     109.172 129.317 138.169  0.00  0.00    +0.000 OA
BRANCH  26  29
ATOM     27  O   UNL     1     110.532 127.592 136.284  0.00  0.00    +0.000 OA
ATOM     28  O   UNL     1     109.561 127.992 138.589  0.00  0.00    +0.000 OA
ATOM     29  C   UNL     1     109.487 129.190 137.417  0.00  0.00    +0.000 A 
ATOM     30  C   UNL     1     109.843 128.467 137.236  0.00  0.00    +0.000 A 
ATOM     31  C   UNL     1     109.447 129.783 136.846  0.00  0.00    +0.000 A 
ATOM     32  C   UNL     1     110.158 128.339 136.486  0.00  0.00    +0.000 A 
ATOM     33  C   UNL     1     109.762 129.656 136.096  0.00  0.00    +0.000 A 
ATOM     34  C   UNL     1     109.879 127.856 137.839  0.00  0.00    +0.000 A 
ATOM     35  C   UNL     1     110.118 128.934 135.914  0.00  0.00    +0.000 A 
ATOM     36  C   UNL     1     110.248 127.102 137.658  0.00  0.00    +0.000 A 
ATOM     37  C   UNL     1     110.577 126.969 136.874  0.00  0.00    +0.000 A 
BRANCH  37  38
ATOM     38  C   UNL     1     110.933 126.247 136.691  0.00  0.00    +0.000 A 
ATOM     39  C   UNL     1     111.668 126.058 137.013  0.00  0.00    +0.000 A 
ATOM     40  C   UNL     1     110.554 125.717 136.185  0.00  0.00    +0.000 A 
ATOM     41  C   UNL     1     112.024 125.337 136.830  0.00  0.00    +0.000 A 
ATOM     42  C   UNL     1     110.911 124.997 136.002  0.00  0.00    +0.000 A 
ATOM     43  C   UNL     1     111.646 124.806 136.325  0.00  0.00    +0.000 A 
BRANCH  43  44
ATOM     44  O   UNL     1     112.003 124.085 136.141  0.00  0.00    +0.000 OA
ATOM     45  C   UNL     1     112.196 123.555 136.743  0.00  0.00    +0.000 C 
ENDBRANCH  43  44
ENDBRANCH  37  38
BRANCH  31  46
ATOM     46  O   UNL     1     109.091 130.506 137.028  0.00  0.00    +0.000 OA
ATOM     47  C   UNL     1     108.482 130.795 136.553  0.00  0.00    +0.000 C 
ENDBRANCH  31  46
BRANCH  33  48
ATOM     48  O   UNL     1     109.722 130.251 135.524  0.00  0.00    +0.000 OA
ATOM     49  C   UNL     1     110.063 130.134 134.782  0.00  0.00    +0.000 C 
ENDBRANCH  33  48
ENDBRANCH  26  29
ENDBRANCH   8  26
TORSDOF 12
ENDMDL
MODEL 10
REMARK VINA RESULT:      -8.2      2.096      6.145
REMARK  Name = 44258456
REMARK  12 active torsions:
REMARK  status: ('A' for Active; 'I' for Inactive)
REMARK    1  A    between atoms: O_1  and  C_17
REMARK    2  A    between atoms: O_1  and  C_21
REMARK    3  A    between atoms: O_6  and  C_23
REMARK    4  A    between atoms: O_6  and  C_30
REMARK    5  A    between atoms: O_10  and  C_28
REMARK    6  A    between atoms: O_10  and  C_34
REMARK    7  A    between atoms: O_11  and  C_32
REMARK    8  A    between atoms: O_13  and  C_35
REMARK    9  A    between atoms: O_16  and  C_48
REMARK   10  A    between atoms: C_20  and  C_27
REMARK   11  A    between atoms: C_26  and  C_28
REMARK   12  A    between atoms: C_40  and  C_42
REMARK                            x       y       z     vdW  Elec       q    Type
REMARK                         _______ _______ _______ _____ _____    ______ ____
ROOT
ATOM      1  O   UNL     1     112.398 129.115 138.521  0.00  0.00    +0.000 OA
ATOM      2  O   UNL     1     112.131 129.688 136.432  0.00  0.00    +0.000 OA
ATOM      3  O   UNL     1     110.442 128.204 138.196  0.00  0.00    +0.000 OA
ATOM      4  C   UNL     1     111.286 128.946 137.314  0.00  0.00    +0.000 C 
ATOM      5  C   UNL     1     111.987 129.359 137.175  0.00  0.00    +0.000 C 
ATOM      6  C   UNL     1     111.142 128.617 138.057  0.00  0.00    +0.000 C 
ATOM      7  C   UNL     1     112.543 129.443 137.779  0.00  0.00    +0.000 C 
ATOM      8  C   UNL     1     111.698 128.701 138.661  0.00  0.00    +0.000 C 
ENDROOT
BRANCH   7   9
ATOM      9  C   UNL     1     113.243 129.857 137.639  0.00  0.00    +0.000 C 
ATOM     10  C   UNL     1     113.330 130.627 137.920  0.00  0.00    +0.000 C 
ENDBRANCH   7   9
BRANCH   4  11
ATOM     11  O   UNL     1     110.730 128.862 136.710  0.00  0.00    +0.000 OA
BRANCH  11  16
ATOM     12  O   UNL     1     110.091 130.090 137.062  0.00  0.00    +0.000 OA
ATOM     13  O   UNL     1     109.372 128.385 135.905  0.00  0.00    +0.000 OA
ATOM     14  O   UNL     1     108.052 129.375 135.854  0.00  0.00    +0.000 OA
ATOM     15  O   UNL     1     108.092 130.841 136.609  0.00  0.00    +0.000 OA
ATOM     16  C   UNL     1     110.071 129.356 136.685  0.00  0.00    +0.000 C 
ATOM     17  C   UNL     1     109.391 129.118 136.282  0.00  0.00    +0.000 C 
ATOM     18  C   UNL     1     108.732 129.613 136.257  0.00  0.00    +0.000 C 
ATOM     19  C   UNL     1     108.751 130.346 136.634  0.00  0.00    +0.000 C 
ATOM     20  C   UNL     1     109.432 130.585 137.037  0.00  0.00    +0.000 C 
BRANCH  20  21
ATOM     21  C   UNL     1     109.451 131.318 137.414  0.00  0.00    +0.000 C 
BRANCH  21  22
ATOM     22  O   UNL     1     110.101 131.816 137.317  0.00  0.00    +0.000 OA
BRANCH  22  24
ATOM     23  O   UNL     1     110.178 132.399 138.619  0.00  0.00    +0.000 OA
ATOM     24  C   UNL     1     110.188 132.480 137.798  0.00  0.00    +0.000 C 
ATOM     25  C   UNL     1     110.286 133.225 137.460  0.00  0.00    +0.000 C 
ENDBRANCH  22  24
ENDBRANCH  21  22
ENDBRANCH  20  21
ENDBRANCH  11  16
ENDBRANCH   4  11
BRANCH   8  26
ATOM     26  O   UNL     1     111.554 128.373 139.403  0.00  0.00    +0.000 OA
BRANCH  26  29
ATOM     27  O   UNL     1     112.800 129.423 141.795  0.00  0.00    +0.000 OA
ATOM     28  O   UNL     1     110.952 129.506 140.064  0.00  0.00    +0.000 OA
ATOM     29  C   UNL     1     112.156 128.343 139.965  0.00  0.00    +0.000 A 
ATOM     30  C   UNL     1     112.171 128.890 140.584  0.00  0.00    +0.000 A 
ATOM     31  C   UNL     1     112.745 127.768 139.910  0.00  0.00    +0.000 A 
ATOM     32  C   UNL     1     112.773 128.861 141.146  0.00  0.00    +0.000 A 
ATOM     33  C   UNL     1     113.347 127.739 140.472  0.00  0.00    +0.000 A 
ATOM     34  C   UNL     1     111.552 129.484 140.631  0.00  0.00    +0.000 A 
ATOM     35  C   UNL     1     113.362 128.285 141.090  0.00  0.00    +0.000 A 
ATOM     36  C   UNL     1     111.561 130.056 141.272  0.00  0.00    +0.000 A 
ATOM     37  C   UNL     1     112.189 130.026 141.858  0.00  0.00    +0.000 A 
BRANCH  37  38
ATOM     38  C   UNL     1     112.206 130.570 142.478  0.00  0.00    +0.000 A 
ATOM     39  C   UNL     1     111.777 130.424 143.167  0.00  0.00    +0.000 A 
ATOM     40  C   UNL     1     112.651 131.261 142.407  0.00  0.00    +0.000 A 
ATOM     41  C   UNL     1     111.793 130.968 143.786  0.00  0.00    +0.000 A 
ATOM     42  C   UNL     1     112.667 131.805 143.027  0.00  0.00    +0.000 A 
ATOM     43  C   UNL     1     112.238 131.659 143.716  0.00  0.00    +0.000 A 
BRANCH  43  44
ATOM     44  O   UNL     1     112.255 132.204 144.336  0.00  0.00    +0.000 OA
ATOM     45  C   UNL     1     111.901 132.944 144.244  0.00  0.00    +0.000 C 
ENDBRANCH  43  44
ENDBRANCH  37  38
BRANCH  31  46
ATOM     46  O   UNL     1     112.731 127.222 139.291  0.00  0.00    +0.000 OA
ATOM     47  C   UNL     1     112.704 126.414 139.456  0.00  0.00    +0.000 C 
ENDBRANCH  31  46
BRANCH  33  48
ATOM     48  O   UNL     1     113.937 127.163 140.416  0.00  0.00    +0.000 OA
ATOM     49  C   UNL     1     114.619 127.226 140.875  0.00  0.00    +0.000 C 
ENDBRANCH  33  48
ENDBRANCH  26  29
ENDBRANCH   8  26
TORSDOF 12
ENDMDL
