MODEL 1
REMARK VINA RESULT:      -9.1      0.000      0.000
REMARK  Name = 44257830
REMARK  6 active torsions:
REMARK  status: ('A' for Active; 'I' for Inactive)
REMARK    1  A    between atoms: O_2  and  C_14
REMARK    2  A    between atoms: O_2  and  C_19
REMARK    3  A    between atoms: O_3  and  C_16
REMARK    4  A    between atoms: O_3  and  C_18
REMARK    5  A    between atoms: C_15  and  C_17
REMARK    6  A    between atoms: C_27  and  C_29
REMARK                            x       y       z     vdW  Elec       q    Type
REMARK                         _______ _______ _______ _____ _____    ______ ____
ROOT
ATOM      1  O   UNL     1     110.292 127.923 136.282  0.00  0.00    +0.000 OA
ATOM      2  O   UNL     1     107.875 129.473 135.960  0.00  0.00    +0.000 OA
ATOM      3  O   UNL     1     107.882 128.049 135.729  0.00  0.00    +0.000 OA
ATOM      4  C   UNL     1     109.937 130.112 136.556  0.00  0.00    +0.000 A 
ATOM      5  C   UNL     1     110.340 129.354 136.527  0.00  0.00    +0.000 A 
ATOM      6  C   UNL     1     109.101 130.156 136.364  0.00  0.00    +0.000 A 
ATOM      7  C   UNL     1     109.900 128.648 136.307  0.00  0.00    +0.000 A 
ATOM      8  C   UNL     1     109.097 128.690 136.123  0.00  0.00    +0.000 A 
ATOM      9  C   UNL     1     108.678 129.440 136.146  0.00  0.00    +0.000 A 
ATOM     10  C   UNL     1     108.685 128.007 135.913  0.00  0.00    +0.000 A 
ATOM     11  C   UNL     1     109.880 127.239 136.072  0.00  0.00    +0.000 A 
ATOM     12  C   UNL     1     109.076 127.281 135.888  0.00  0.00    +0.000 A 
ENDROOT
BRANCH  11  14
ATOM     13  O   UNL     1     111.446 124.337 135.969  0.00  0.00    +0.000 OA
ATOM     14  C   UNL     1     110.272 126.514 136.047  0.00  0.00    +0.000 A 
ATOM     15  C   UNL     1     110.481 126.133 136.748  0.00  0.00    +0.000 A 
ATOM     16  C   UNL     1     110.454 126.169 135.320  0.00  0.00    +0.000 A 
ATOM     17  C   UNL     1     110.872 125.407 136.722  0.00  0.00    +0.000 A 
ATOM     18  C   UNL     1     110.845 125.443 135.294  0.00  0.00    +0.000 A 
ATOM     19  C   UNL     1     111.054 125.062 135.995  0.00  0.00    +0.000 A 
ENDBRANCH  11  14
BRANCH   4  20
ATOM     20  O   UNL     1     110.351 130.794 136.766  0.00  0.00    +0.000 OA
BRANCH  20  28
ATOM     21  O   UNL     1     110.298 130.593 138.180  0.00  0.00    +0.000 OA
ATOM     22  O   UNL     1     110.043 133.032 138.516  0.00  0.00    +0.000 OA
ATOM     23  O   UNL     1     110.075 132.018 139.817  0.00  0.00    +0.000 OA
ATOM     24  C   UNL     1     110.128 132.219 138.404  0.00  0.00    +0.000 C 
ATOM     25  C   UNL     1     110.144 131.713 139.054  0.00  0.00    +0.000 C 
ATOM     26  C   UNL     1     110.197 131.914 137.641  0.00  0.00    +0.000 C 
ATOM     27  C   UNL     1     110.229 130.900 138.942  0.00  0.00    +0.000 C 
ATOM     28  C   UNL     1     110.282 131.101 137.528  0.00  0.00    +0.000 C 
BRANCH  27  30
ATOM     29  O   UNL     1     110.901 129.908 139.721  0.00  0.00    +0.000 OA
ATOM     30  C   UNL     1     110.245 130.392 139.592  0.00  0.00    +0.000 C 
ENDBRANCH  27  30
BRANCH  26  31
ATOM     31  O   UNL     1     110.181 132.420 136.990  0.00  0.00    +0.000 OA
BRANCH  31  33
ATOM     32  O   UNL     1     111.588 132.651 136.907  0.00  0.00    +0.000 OA
ATOM     33  C   UNL     1     110.814 132.929 136.848  0.00  0.00    +0.000 C 
ATOM     34  C   UNL     1     110.673 133.717 136.647  0.00  0.00    +0.000 C 
ENDBRANCH  31  33
ENDBRANCH  26  31
ENDBRANCH  20  28
ENDBRANCH   4  20
TORSDOF 6
ENDMDL
MODEL 2
REMARK VINA RESULT:      -9.0      7.051      9.177
REMARK  Name = 44257830
REMARK  6 active torsions:
REMARK  status: ('A' for Active; 'I' for Inactive)
REMARK    1  A    between atoms: O_2  and  C_14
REMARK    2  A    between atoms: O_2  and  C_19
REMARK    3  A    between atoms: O_3  and  C_16
REMARK    4  A    between atoms: O_3  and  C_18
REMARK    5  A    between atoms: C_15  and  C_17
REMARK    6  A    between atoms: C_27  and  C_29
REMARK                            x       y       z     vdW  Elec       q    Type
REMARK                         _______ _______ _______ _____ _____    ______ ____
ROOT
ATOM      1  O   UNL     1     103.064 130.270 141.983  0.00  0.00    +0.000 OA
ATOM      2  O   UNL     1     103.638 128.082 140.185  0.00  0.00    +0.000 OA
ATOM      3  O   UNL     1     102.760 129.157 139.793  0.00  0.00    +0.000 OA
ATOM      4  C   UNL     1     104.361 128.472 142.268  0.00  0.00    +0.000 A 
ATOM      5  C   UNL     1     103.956 129.214 142.428  0.00  0.00    +0.000 A 
ATOM      6  C   UNL     1     104.255 128.086 141.509  0.00  0.00    +0.000 A 
ATOM      7  C   UNL     1     103.450 129.559 141.824  0.00  0.00    +0.000 A 
ATOM      8  C   UNL     1     103.349 129.188 141.094  0.00  0.00    +0.000 A 
ATOM      9  C   UNL     1     103.745 128.446 140.917  0.00  0.00    +0.000 A 
ATOM     10  C   UNL     1     102.861 129.528 140.522  0.00  0.00    +0.000 A 
ATOM     11  C   UNL     1     102.577 130.610 141.411  0.00  0.00    +0.000 A 
ATOM     12  C   UNL     1     102.475 130.240 140.681  0.00  0.00    +0.000 A 
ENDROOT
BRANCH  11  14
ATOM     13  O   UNL     1     101.032 133.457 142.043  0.00  0.00    +0.000 OA
ATOM     14  C   UNL     1     102.190 131.322 141.569  0.00  0.00    +0.000 A 
ATOM     15  C   UNL     1     101.429 131.317 141.888  0.00  0.00    +0.000 A 
ATOM     16  C   UNL     1     102.565 132.039 141.409  0.00  0.00    +0.000 A 
ATOM     17  C   UNL     1     101.043 132.028 142.046  0.00  0.00    +0.000 A 
ATOM     18  C   UNL     1     102.179 132.751 141.567  0.00  0.00    +0.000 A 
ATOM     19  C   UNL     1     101.418 132.745 141.885  0.00  0.00    +0.000 A 
ENDBRANCH  11  14
BRANCH   4  20
ATOM     20  O   UNL     1     104.848 128.134 142.842  0.00  0.00    +0.000 OA
BRANCH  20  28
ATOM     21  O   UNL     1     106.052 128.731 142.358  0.00  0.00    +0.000 OA
ATOM     22  O   UNL     1     107.333 126.748 143.100  0.00  0.00    +0.000 OA
ATOM     23  O   UNL     1     108.110 128.006 142.370  0.00  0.00    +0.000 OA
ATOM     24  C   UNL     1     106.906 127.409 142.853  0.00  0.00    +0.000 C 
ATOM     25  C   UNL     1     107.295 128.038 142.488  0.00  0.00    +0.000 C 
ATOM     26  C   UNL     1     106.090 127.440 142.971  0.00  0.00    +0.000 C 
ATOM     27  C   UNL     1     106.868 128.699 142.241  0.00  0.00    +0.000 C 
ATOM     28  C   UNL     1     105.663 128.102 142.724  0.00  0.00    +0.000 C 
BRANCH  27  30
ATOM     29  O   UNL     1     107.111 129.497 141.080  0.00  0.00    +0.000 OA
ATOM     30  C   UNL     1     107.256 129.328 141.875  0.00  0.00    +0.000 C 
ENDBRANCH  27  30
BRANCH  26  31
ATOM     31  O   UNL     1     105.702 126.812 143.336  0.00  0.00    +0.000 OA
BRANCH  31  33
ATOM     32  O   UNL     1     105.799 127.275 144.685  0.00  0.00    +0.000 OA
ATOM     33  C   UNL     1     105.827 126.659 144.137  0.00  0.00    +0.000 C 
ATOM     34  C   UNL     1     105.980 125.888 144.392  0.00  0.00    +0.000 C 
ENDBRANCH  31  33
ENDBRANCH  26  31
ENDBRANCH  20  28
ENDBRANCH   4  20
TORSDOF 6
ENDMDL
MODEL 3
REMARK VINA RESULT:      -9.0      3.172      5.702
REMARK  Name = 44257830
REMARK  6 active torsions:
REMARK  status: ('A' for Active; 'I' for Inactive)
REMARK    1  A    between atoms: O_2  and  C_14
REMARK    2  A    between atoms: O_2  and  C_19
REMARK    3  A    between atoms: O_3  and  C_16
REMARK    4  A    between atoms: O_3  and  C_18
REMARK    5  A    between atoms: C_15  and  C_17
REMARK    6  A    between atoms: C_27  and  C_29
REMARK                            x       y       z     vdW  Elec       q    Type
REMARK                         _______ _______ _______ _____ _____    ______ ____
ROOT
ATOM      1  O   UNL     1     112.767 128.393 135.630  0.00  0.00    +0.000 OA
ATOM      2  O   UNL     1     110.019 128.390 134.740  0.00  0.00    +0.000 OA
ATOM      3  O   UNL     1     110.840 129.569 134.615  0.00  0.00    +0.000 OA
ATOM      4  C   UNL     1     111.240 126.763 135.677  0.00  0.00    +0.000 A 
ATOM      5  C   UNL     1     111.984 127.179 135.780  0.00  0.00    +0.000 A 
ATOM      6  C   UNL     1     110.571 127.171 135.324  0.00  0.00    +0.000 A 
ATOM      7  C   UNL     1     112.050 127.999 135.529  0.00  0.00    +0.000 A 
ATOM      8  C   UNL     1     111.407 128.391 135.190  0.00  0.00    +0.000 A 
ATOM      9  C   UNL     1     110.656 127.991 135.079  0.00  0.00    +0.000 A 
ATOM     10  C   UNL     1     111.482 129.178 134.953  0.00  0.00    +0.000 A 
ATOM     11  C   UNL     1     112.842 129.180 135.393  0.00  0.00    +0.000 A 
ATOM     12  C   UNL     1     112.199 129.573 135.054  0.00  0.00    +0.000 A 
ENDROOT
BRANCH  11  14
ATOM     13  O   UNL     1     115.710 130.760 135.799  0.00  0.00    +0.000 OA
ATOM     14  C   UNL     1     113.559 129.575 135.494  0.00  0.00    +0.000 A 
ATOM     15  C   UNL     1     114.160 129.489 134.936  0.00  0.00    +0.000 A 
ATOM     16  C   UNL     1     113.675 130.056 136.154  0.00  0.00    +0.000 A 
ATOM     17  C   UNL     1     114.877 129.884 135.037  0.00  0.00    +0.000 A 
ATOM     18  C   UNL     1     114.393 130.451 136.256  0.00  0.00    +0.000 A 
ATOM     19  C   UNL     1     114.993 130.365 135.698  0.00  0.00    +0.000 A 
ENDBRANCH  11  14
BRANCH   4  20
ATOM     20  O   UNL     1     111.168 125.976 135.915  0.00  0.00    +0.000 OA
BRANCH  20  28
ATOM     21  O   UNL     1     110.461 126.196 137.137  0.00  0.00    +0.000 OA
ATOM     22  O   UNL     1     111.828 124.453 138.241  0.00  0.00    +0.000 OA
ATOM     23  O   UNL     1     110.666 125.253 139.094  0.00  0.00    +0.000 OA
ATOM     24  C   UNL     1     111.372 125.034 137.873  0.00  0.00    +0.000 C 
ATOM     25  C   UNL     1     110.791 125.434 138.300  0.00  0.00    +0.000 C 
ATOM     26  C   UNL     1     111.499 125.214 137.077  0.00  0.00    +0.000 C 
ATOM     27  C   UNL     1     110.335 126.015 137.932  0.00  0.00    +0.000 C 
ATOM     28  C   UNL     1     111.043 125.795 136.709  0.00  0.00    +0.000 C 
BRANCH  27  30
ATOM     29  O   UNL     1     108.973 126.415 138.090  0.00  0.00    +0.000 OA
ATOM     30  C   UNL     1     109.754 126.415 138.358  0.00  0.00    +0.000 C 
ENDBRANCH  27  30
BRANCH  26  31
ATOM     31  O   UNL     1     112.080 124.815 136.650  0.00  0.00    +0.000 OA
BRANCH  31  33
ATOM     32  O   UNL     1     111.407 123.694 136.073  0.00  0.00    +0.000 OA
ATOM     33  C   UNL     1     112.019 124.000 136.534  0.00  0.00    +0.000 C 
ATOM     34  C   UNL     1     112.570 123.491 136.878  0.00  0.00    +0.000 C 
ENDBRANCH  31  33
ENDBRANCH  26  31
ENDBRANCH  20  28
ENDBRANCH   4  20
TORSDOF 6
ENDMDL
MODEL 4
REMARK VINA RESULT:      -8.9      3.810      6.828
REMARK  Name = 44257830
REMARK  6 active torsions:
REMARK  status: ('A' for Active; 'I' for Inactive)
REMARK    1  A    between atoms: O_2  and  C_14
REMARK    2  A    between atoms: O_2  and  C_19
REMARK    3  A    between atoms: O_3  and  C_16
REMARK    4  A    between atoms: O_3  and  C_18
REMARK    5  A    between atoms: C_15  and  C_17
REMARK    6  A    between atoms: C_27  and  C_29
REMARK                            x       y       z     vdW  Elec       q    Type
REMARK                         _______ _______ _______ _____ _____    ______ ____
ROOT
ATOM      1  O   UNL     1     113.209 128.474 139.707  0.00  0.00    +0.000 OA
ATOM      2  O   UNL     1     111.822 126.124 140.656  0.00  0.00    +0.000 OA
ATOM      3  O   UNL     1     112.423 127.056 141.578  0.00  0.00    +0.000 OA
ATOM      4  C   UNL     1     112.181 126.850 138.568  0.00  0.00    +0.000 A 
ATOM      5  C   UNL     1     112.623 127.568 138.736  0.00  0.00    +0.000 A 
ATOM      6  C   UNL     1     111.908 126.358 139.217  0.00  0.00    +0.000 A 
ATOM      7  C   UNL     1     112.785 127.784 139.552  0.00  0.00    +0.000 A 
ATOM      8  C   UNL     1     112.523 127.311 140.176  0.00  0.00    +0.000 A 
ATOM      9  C   UNL     1     112.081 126.590 140.027  0.00  0.00    +0.000 A 
ATOM     10  C   UNL     1     112.685 127.529 140.955  0.00  0.00    +0.000 A 
ATOM     11  C   UNL     1     113.371 128.691 140.487  0.00  0.00    +0.000 A 
ATOM     12  C   UNL     1     113.110 128.219 141.111  0.00  0.00    +0.000 A 
ENDROOT
BRANCH  11  14
ATOM     13  O   UNL     1     115.069 131.452 141.110  0.00  0.00    +0.000 OA
ATOM     14  C   UNL     1     113.796 129.382 140.643  0.00  0.00    +0.000 A 
ATOM     15  C   UNL     1     113.427 130.017 141.018  0.00  0.00    +0.000 A 
ATOM     16  C   UNL     1     114.589 129.437 140.423  0.00  0.00    +0.000 A 
ATOM     17  C   UNL     1     113.851 130.707 141.174  0.00  0.00    +0.000 A 
ATOM     18  C   UNL     1     115.013 130.127 140.579  0.00  0.00    +0.000 A 
ATOM     19  C   UNL     1     114.645 130.761 140.954  0.00  0.00    +0.000 A 
ENDBRANCH  11  14
BRANCH   4  20
ATOM     20  O   UNL     1     112.021 126.635 137.788  0.00  0.00    +0.000 OA
BRANCH  20  28
ATOM     21  O   UNL     1     113.134 125.747 137.664  0.00  0.00    +0.000 OA
ATOM     22  O   UNL     1     111.822 124.317 136.128  0.00  0.00    +0.000 OA
ATOM     23  O   UNL     1     113.372 123.907 136.516  0.00  0.00    +0.000 OA
ATOM     24  C   UNL     1     112.260 124.794 136.640  0.00  0.00    +0.000 C 
ATOM     25  C   UNL     1     113.034 124.588 136.834  0.00  0.00    +0.000 C 
ATOM     26  C   UNL     1     111.921 125.476 136.958  0.00  0.00    +0.000 C 
ATOM     27  C   UNL     1     113.471 125.065 137.346  0.00  0.00    +0.000 C 
ATOM     28  C   UNL     1     112.358 125.953 137.470  0.00  0.00    +0.000 C 
BRANCH  27  30
ATOM     29  O   UNL     1     114.861 125.393 137.400  0.00  0.00    +0.000 OA
ATOM     30  C   UNL     1     114.246 124.860 137.541  0.00  0.00    +0.000 C 
ENDBRANCH  27  30
BRANCH  26  31
ATOM     31  O   UNL     1     111.146 125.681 136.764  0.00  0.00    +0.000 OA
BRANCH  31  33
ATOM     32  O   UNL     1     111.414 126.500 135.624  0.00  0.00    +0.000 OA
ATOM     33  C   UNL     1     110.963 125.918 135.995  0.00  0.00    +0.000 C 
ATOM     34  C   UNL     1     110.327 125.573 135.597  0.00  0.00    +0.000 C 
ENDBRANCH  31  33
ENDBRANCH  26  31
ENDBRANCH  20  28
ENDBRANCH   4  20
TORSDOF 6
ENDMDL
MODEL 5
REMARK VINA RESULT:      -8.8      1.905      3.059
REMARK  Name = 44257830
REMARK  6 active torsions:
REMARK  status: ('A' for Active; 'I' for Inactive)
REMARK    1  A    between atoms: O_2  and  C_14
REMARK    2  A    between atoms: O_2  and  C_19
REMARK    3  A    between atoms: O_3  and  C_16
REMARK    4  A    between atoms: O_3  and  C_18
REMARK    5  A    between atoms: C_15  and  C_17
REMARK    6  A    between atoms: C_27  and  C_29
REMARK                            x       y       z     vdW  Elec       q    Type
REMARK                         _______ _______ _______ _____ _____    ______ ____
ROOT
ATOM      1  O   UNL     1     112.186 126.605 136.359  0.00  0.00    +0.000 OA
ATOM      2  O   UNL     1     109.605 126.049 135.186  0.00  0.00    +0.000 OA
ATOM      3  O   UNL     1     110.511 124.981 135.532  0.00  0.00    +0.000 OA
ATOM      4  C   UNL     1     110.566 128.001 135.714  0.00  0.00    +0.000 A 
ATOM      5  C   UNL     1     111.312 127.717 136.030  0.00  0.00    +0.000 A 
ATOM      6  C   UNL     1     109.984 127.438 135.427  0.00  0.00    +0.000 A 
ATOM      7  C   UNL     1     111.468 126.872 136.054  0.00  0.00    +0.000 A 
ATOM      8  C   UNL     1     110.909 126.331 135.779  0.00  0.00    +0.000 A 
ATOM      9  C   UNL     1     110.157 126.596 135.460  0.00  0.00    +0.000 A 
ATOM     10  C   UNL     1     111.069 125.522 135.808  0.00  0.00    +0.000 A 
ATOM     11  C   UNL     1     112.346 125.796 136.388  0.00  0.00    +0.000 A 
ATOM     12  C   UNL     1     111.788 125.254 136.112  0.00  0.00    +0.000 A 
ENDROOT
BRANCH  11  14
ATOM     13  O   UNL     1     115.219 124.725 137.606  0.00  0.00    +0.000 OA
ATOM     14  C   UNL     1     113.064 125.528 136.692  0.00  0.00    +0.000 A 
ATOM     15  C   UNL     1     113.671 125.302 136.181  0.00  0.00    +0.000 A 
ATOM     16  C   UNL     1     113.177 125.487 137.509  0.00  0.00    +0.000 A 
ATOM     17  C   UNL     1     114.389 125.034 136.485  0.00  0.00    +0.000 A 
ATOM     18  C   UNL     1     113.895 125.219 137.813  0.00  0.00    +0.000 A 
ATOM     19  C   UNL     1     114.501 124.993 137.302  0.00  0.00    +0.000 A 
ENDBRANCH  11  14
BRANCH   4  20
ATOM     20  O   UNL     1     110.408 128.811 135.686  0.00  0.00    +0.000 OA
BRANCH  20  28
ATOM     21  O   UNL     1     110.065 128.945 137.066  0.00  0.00    +0.000 OA
ATOM     22  O   UNL     1     108.378 130.659 136.480  0.00  0.00    +0.000 OA
ATOM     23  O   UNL     1     108.597 130.222 138.055  0.00  0.00    +0.000 OA
ATOM     24  C   UNL     1     108.940 130.088 136.676  0.00  0.00    +0.000 C 
ATOM     25  C   UNL     1     109.049 129.869 137.463  0.00  0.00    +0.000 C 
ATOM     26  C   UNL     1     109.393 129.735 136.082  0.00  0.00    +0.000 C 
ATOM     27  C   UNL     1     109.612 129.298 137.658  0.00  0.00    +0.000 C 
ATOM     28  C   UNL     1     109.955 129.164 136.278  0.00  0.00    +0.000 C 
BRANCH  27  30
ATOM     29  O   UNL     1     109.451 128.346 138.711  0.00  0.00    +0.000 OA
ATOM     30  C   UNL     1     109.721 129.079 138.446  0.00  0.00    +0.000 C 
ENDBRANCH  27  30
BRANCH  26  31
ATOM     31  O   UNL     1     109.284 129.953 135.295  0.00  0.00    +0.000 OA
BRANCH  31  33
ATOM     32  O   UNL     1     110.236 131.017 135.226  0.00  0.00    +0.000 OA
ATOM     33  C   UNL     1     109.492 130.711 135.044  0.00  0.00    +0.000 C 
ATOM     34  C   UNL     1     108.955 131.165 134.612  0.00  0.00    +0.000 C 
ENDBRANCH  31  33
ENDBRANCH  26  31
ENDBRANCH  20  28
ENDBRANCH   4  20
TORSDOF 6
ENDMDL
MODEL 6
REMARK VINA RESULT:      -8.8      2.211      3.600
REMARK  Name = 44257830
REMARK  6 active torsions:
REMARK  status: ('A' for Active; 'I' for Inactive)
REMARK    1  A    between atoms: O_2  and  C_14
REMARK    2  A    between atoms: O_2  and  C_19
REMARK    3  A    between atoms: O_3  and  C_16
REMARK    4  A    between atoms: O_3  and  C_18
REMARK    5  A    between atoms: C_15  and  C_17
REMARK    6  A    between atoms: C_27  and  C_29
REMARK                            x       y       z     vdW  Elec       q    Type
REMARK                         _______ _______ _______ _____ _____    ______ ____
ROOT
ATOM      1  O   UNL     1     112.615 127.238 137.076  0.00  0.00    +0.000 OA
ATOM      2  O   UNL     1     112.983 129.748 135.693  0.00  0.00    +0.000 OA
ATOM      3  O   UNL     1     113.919 128.663 135.528  0.00  0.00    +0.000 OA
ATOM      4  C   UNL     1     111.373 129.095 137.107  0.00  0.00    +0.000 A 
ATOM      5  C   UNL     1     111.643 128.297 137.278  0.00  0.00    +0.000 A 
ATOM      6  C   UNL     1     111.825 129.589 136.570  0.00  0.00    +0.000 A 
ATOM      7  C   UNL     1     112.362 128.004 136.908  0.00  0.00    +0.000 A 
ATOM      8  C   UNL     1     112.796 128.479 136.393  0.00  0.00    +0.000 A 
ATOM      9  C   UNL     1     112.542 129.279 136.210  0.00  0.00    +0.000 A 
ATOM     10  C   UNL     1     113.485 128.188 136.044  0.00  0.00    +0.000 A 
ATOM     11  C   UNL     1     113.304 126.946 136.728  0.00  0.00    +0.000 A 
ATOM     12  C   UNL     1     113.739 127.421 136.212  0.00  0.00    +0.000 A 
ENDROOT
BRANCH  11  14
ATOM     13  O   UNL     1     114.322 123.879 137.398  0.00  0.00    +0.000 OA
ATOM     14  C   UNL     1     113.558 126.179 136.895  0.00  0.00    +0.000 A 
ATOM     15  C   UNL     1     113.237 125.539 136.486  0.00  0.00    +0.000 A 
ATOM     16  C   UNL     1     114.134 126.052 137.472  0.00  0.00    +0.000 A 
ATOM     17  C   UNL     1     113.491 124.773 136.653  0.00  0.00    +0.000 A 
ATOM     18  C   UNL     1     114.388 125.285 137.640  0.00  0.00    +0.000 A 
ATOM     19  C   UNL     1     114.067 124.646 137.230  0.00  0.00    +0.000 A 
ENDBRANCH  11  14
BRANCH   4  20
ATOM     20  O   UNL     1     110.684 129.384 137.457  0.00  0.00    +0.000 OA
BRANCH  20  28
ATOM     21  O   UNL     1     109.758 128.725 136.590  0.00  0.00    +0.000 OA
ATOM     22  O   UNL     1     108.287 130.715 136.650  0.00  0.00    +0.000 OA
ATOM     23  O   UNL     1     107.852 129.394 135.764  0.00  0.00    +0.000 OA
ATOM     24  C   UNL     1     108.777 130.052 136.630  0.00  0.00    +0.000 C 
ATOM     25  C   UNL     1     108.560 129.391 136.187  0.00  0.00    +0.000 C 
ATOM     26  C   UNL     1     109.486 130.050 137.054  0.00  0.00    +0.000 C 
ATOM     27  C   UNL     1     109.050 128.728 136.167  0.00  0.00    +0.000 C 
ATOM     28  C   UNL     1     109.976 129.387 137.034  0.00  0.00    +0.000 C 
BRANCH  27  30
ATOM     29  O   UNL     1     108.615 127.368 136.106  0.00  0.00    +0.000 OA
ATOM     30  C   UNL     1     108.833 128.067 135.724  0.00  0.00    +0.000 C 
ENDBRANCH  27  30
BRANCH  26  31
ATOM     31  O   UNL     1     109.703 130.710 137.497  0.00  0.00    +0.000 OA
BRANCH  31  33
ATOM     32  O   UNL     1     109.080 130.348 138.731  0.00  0.00    +0.000 OA
ATOM     33  C   UNL     1     109.269 130.919 138.166  0.00  0.00    +0.000 C 
ATOM     34  C   UNL     1     109.022 131.700 138.272  0.00  0.00    +0.000 C 
ENDBRANCH  31  33
ENDBRANCH  26  31
ENDBRANCH  20  28
ENDBRANCH   4  20
TORSDOF 6
ENDMDL
MODEL 7
REMARK VINA RESULT:      -8.7      2.422      2.969
REMARK  Name = 44257830
REMARK  6 active torsions:
REMARK  status: ('A' for Active; 'I' for Inactive)
REMARK    1  A    between atoms: O_2  and  C_14
REMARK    2  A    between atoms: O_2  and  C_19
REMARK    3  A    between atoms: O_3  and  C_16
REMARK    4  A    between atoms: O_3  and  C_18
REMARK    5  A    between atoms: C_15  and  C_17
REMARK    6  A    between atoms: C_27  and  C_29
REMARK                            x       y       z     vdW  Elec       q    Type
REMARK                         _______ _______ _______ _____ _____    ______ ____
ROOT
ATOM      1  O   UNL     1     111.927 126.777 136.079  0.00  0.00    +0.000 OA
ATOM      2  O   UNL     1     110.211 128.579 134.612  0.00  0.00    +0.000 OA
ATOM      3  O   UNL     1     109.826 127.209 134.845  0.00  0.00    +0.000 OA
ATOM      4  C   UNL     1     112.215 128.929 135.548  0.00  0.00    +0.000 A 
ATOM      5  C   UNL     1     112.364 128.147 135.874  0.00  0.00    +0.000 A 
ATOM      6  C   UNL     1     111.486 129.079 135.120  0.00  0.00    +0.000 A 
ATOM      7  C   UNL     1     111.779 127.525 135.765  0.00  0.00    +0.000 A 
ATOM      8  C   UNL     1     111.079 127.669 135.354  0.00  0.00    +0.000 A 
ATOM      9  C   UNL     1     110.914 128.444 135.022  0.00  0.00    +0.000 A 
ATOM     10  C   UNL     1     110.526 127.065 135.256  0.00  0.00    +0.000 A 
ATOM     11  C   UNL     1     111.374 126.173 135.982  0.00  0.00    +0.000 A 
ATOM     12  C   UNL     1     110.673 126.316 135.570  0.00  0.00    +0.000 A 
ENDROOT
BRANCH  11  14
ATOM     13  O   UNL     1     111.964 123.178 137.237  0.00  0.00    +0.000 OA
ATOM     14  C   UNL     1     111.522 125.424 136.296  0.00  0.00    +0.000 A 
ATOM     15  C   UNL     1     111.418 125.287 137.103  0.00  0.00    +0.000 A 
ATOM     16  C   UNL     1     111.773 124.812 135.803  0.00  0.00    +0.000 A 
ATOM     17  C   UNL     1     111.565 124.539 137.417  0.00  0.00    +0.000 A 
ATOM     18  C   UNL     1     111.920 124.064 136.117  0.00  0.00    +0.000 A 
ATOM     19  C   UNL     1     111.816 123.927 136.923  0.00  0.00    +0.000 A 
ENDBRANCH  11  14
BRANCH   4  20
ATOM     20  O   UNL     1     112.770 129.531 135.647  0.00  0.00    +0.000 OA
BRANCH  20  28
ATOM     21  O   UNL     1     112.198 130.042 136.853  0.00  0.00    +0.000 OA
ATOM     22  O   UNL     1     114.453 130.675 137.654  0.00  0.00    +0.000 OA
ATOM     23  O   UNL     1     113.130 130.975 138.592  0.00  0.00    +0.000 OA
ATOM     24  C   UNL     1     113.702 130.464 137.387  0.00  0.00    +0.000 C 
ATOM     25  C   UNL     1     113.041 130.614 137.856  0.00  0.00    +0.000 C 
ATOM     26  C   UNL     1     113.612 130.103 136.650  0.00  0.00    +0.000 C 
ATOM     27  C   UNL     1     112.289 130.403 137.589  0.00  0.00    +0.000 C 
ATOM     28  C   UNL     1     112.861 129.892 136.384  0.00  0.00    +0.000 C 
BRANCH  27  30
ATOM     29  O   UNL     1     111.037 131.063 137.787  0.00  0.00    +0.000 OA
ATOM     30  C   UNL     1     111.627 130.554 138.058  0.00  0.00    +0.000 C 
ENDBRANCH  27  30
BRANCH  26  31
ATOM     31  O   UNL     1     114.273 129.953 136.181  0.00  0.00    +0.000 OA
BRANCH  31  33
ATOM     32  O   UNL     1     114.252 131.224 135.529  0.00  0.00    +0.000 OA
ATOM     33  C   UNL     1     114.673 130.577 135.820  0.00  0.00    +0.000 C 
ATOM     34  C   UNL     1     115.496 130.556 135.750  0.00  0.00    +0.000 C 
ENDBRANCH  31  33
ENDBRANCH  26  31
ENDBRANCH  20  28
ENDBRANCH   4  20
TORSDOF 6
ENDMDL
MODEL 8
REMARK VINA RESULT:      -8.6      1.651      2.422
REMARK  Name = 44257830
REMARK  6 active torsions:
REMARK  status: ('A' for Active; 'I' for Inactive)
REMARK    1  A    between atoms: O_2  and  C_14
REMARK    2  A    between atoms: O_2  and  C_19
REMARK    3  A    between atoms: O_3  and  C_16
REMARK    4  A    between atoms: O_3  and  C_18
REMARK    5  A    between atoms: C_15  and  C_17
REMARK    6  A    between atoms: C_27  and  C_29
REMARK                            x       y       z     vdW  Elec       q    Type
REMARK                         _______ _______ _______ _____ _____    ______ ____
ROOT
ATOM      1  O   UNL     1     110.942 127.142 136.470  0.00  0.00    +0.000 OA
ATOM      2  O   UNL     1     112.304 129.602 135.807  0.00  0.00    +0.000 OA
ATOM      3  O   UNL     1     113.028 128.361 135.932  0.00  0.00    +0.000 OA
ATOM      4  C   UNL     1     110.135 129.208 136.201  0.00  0.00    +0.000 A 
ATOM      5  C   UNL     1     110.165 128.363 136.356  0.00  0.00    +0.000 A 
ATOM      6  C   UNL     1     110.859 129.631 136.015  0.00  0.00    +0.000 A 
ATOM      7  C   UNL     1     110.920 127.953 136.321  0.00  0.00    +0.000 A 
ATOM      8  C   UNL     1     111.615 128.359 136.142  0.00  0.00    +0.000 A 
ATOM      9  C   UNL     1     111.604 129.204 135.985  0.00  0.00    +0.000 A 
ATOM     10  C   UNL     1     112.333 127.955 136.111  0.00  0.00    +0.000 A 
ATOM     11  C   UNL     1     111.660 126.737 136.440  0.00  0.00    +0.000 A 
ATOM     12  C   UNL     1     112.356 127.143 136.260  0.00  0.00    +0.000 A 
ENDROOT
BRANCH  11  14
ATOM     13  O   UNL     1     111.753 123.493 137.034  0.00  0.00    +0.000 OA
ATOM     14  C   UNL     1     111.683 125.926 136.588  0.00  0.00    +0.000 A 
ATOM     15  C   UNL     1     111.857 125.651 137.346  0.00  0.00    +0.000 A 
ATOM     16  C   UNL     1     111.533 125.390 135.979  0.00  0.00    +0.000 A 
ATOM     17  C   UNL     1     111.880 124.839 137.495  0.00  0.00    +0.000 A 
ATOM     18  C   UNL     1     111.556 124.579 136.128  0.00  0.00    +0.000 A 
ATOM     19  C   UNL     1     111.729 124.304 136.885  0.00  0.00    +0.000 A 
ENDBRANCH  11  14
BRANCH   4  20
ATOM     20  O   UNL     1     109.415 129.611 136.232  0.00  0.00    +0.000 OA
BRANCH  20  28
ATOM     21  O   UNL     1     109.373 129.764 137.652  0.00  0.00    +0.000 OA
ATOM     22  O   UNL     1     108.338 131.996 137.381  0.00  0.00    +0.000 OA
ATOM     23  O   UNL     1     108.640 131.405 138.890  0.00  0.00    +0.000 OA
ATOM     24  C   UNL     1     108.683 131.252 137.471  0.00  0.00    +0.000 C 
ATOM     25  C   UNL     1     108.834 130.957 138.226  0.00  0.00    +0.000 C 
ATOM     26  C   UNL     1     108.877 130.803 136.806  0.00  0.00    +0.000 C 
ATOM     27  C   UNL     1     109.179 130.213 138.317  0.00  0.00    +0.000 C 
ATOM     28  C   UNL     1     109.221 130.059 136.897  0.00  0.00    +0.000 C 
BRANCH  27  30
ATOM     29  O   UNL     1     108.953 129.228 139.327  0.00  0.00    +0.000 OA
ATOM     30  C   UNL     1     109.330 129.917 139.072  0.00  0.00    +0.000 C 
ENDBRANCH  27  30
BRANCH  26  31
ATOM     31  O   UNL     1     108.726 131.098 136.051  0.00  0.00    +0.000 OA
BRANCH  31  33
ATOM     32  O   UNL     1     107.404 130.585 135.877  0.00  0.00    +0.000 OA
ATOM     33  C   UNL     1     107.948 131.199 135.796  0.00  0.00    +0.000 C 
ATOM     34  C   UNL     1     107.713 131.916 135.459  0.00  0.00    +0.000 C 
ENDBRANCH  31  33
ENDBRANCH  26  31
ENDBRANCH  20  28
ENDBRANCH   4  20
TORSDOF 6
ENDMDL
MODEL 9
REMARK VINA RESULT:      -8.6      6.905      8.136
REMARK  Name = 44257830
REMARK  6 active torsions:
REMARK  status: ('A' for Active; 'I' for Inactive)
REMARK    1  A    between atoms: O_2  and  C_14
REMARK    2  A    between atoms: O_2  and  C_19
REMARK    3  A    between atoms: O_3  and  C_16
REMARK    4  A    between atoms: O_3  and  C_18
REMARK    5  A    between atoms: C_15  and  C_17
REMARK    6  A    between atoms: C_27  and  C_29
REMARK                            x       y       z     vdW  Elec       q    Type
REMARK                         _______ _______ _______ _____ _____    ______ ____
ROOT
ATOM      1  O   UNL     1     104.856 124.612 140.205  0.00  0.00    +0.000 OA
ATOM      2  O   UNL     1     107.358 123.451 141.063  0.00  0.00    +0.000 OA
ATOM      3  O   UNL     1     106.474 122.739 140.172  0.00  0.00    +0.000 OA
ATOM      4  C   UNL     1     106.435 125.430 141.558  0.00  0.00    +0.000 A 
ATOM      5  C   UNL     1     105.709 125.372 141.102  0.00  0.00    +0.000 A 
ATOM      6  C   UNL     1     106.997 124.780 141.547  0.00  0.00    +0.000 A 
ATOM      7  C   UNL     1     105.554 124.663 140.641  0.00  0.00    +0.000 A 
ATOM      8  C   UNL     1     106.094 124.038 140.630  0.00  0.00    +0.000 A 
ATOM      9  C   UNL     1     106.825 124.079 141.079  0.00  0.00    +0.000 A 
ATOM     10  C   UNL     1     105.934 123.363 140.183  0.00  0.00    +0.000 A 
ATOM     11  C   UNL     1     104.696 123.937 139.759  0.00  0.00    +0.000 A 
ATOM     12  C   UNL     1     105.236 123.312 139.747  0.00  0.00    +0.000 A 
ENDROOT
BRANCH  11  14
ATOM     13  O   UNL     1     101.902 123.734 138.015  0.00  0.00    +0.000 OA
ATOM     14  C   UNL     1     103.998 123.886 139.323  0.00  0.00    +0.000 A 
ATOM     15  C   UNL     1     103.360 123.451 139.614  0.00  0.00    +0.000 A 
ATOM     16  C   UNL     1     103.936 124.271 138.596  0.00  0.00    +0.000 A 
ATOM     17  C   UNL     1     102.662 123.400 139.179  0.00  0.00    +0.000 A 
ATOM     18  C   UNL     1     103.237 124.220 138.160  0.00  0.00    +0.000 A 
ATOM     19  C   UNL     1     102.601 123.785 138.451  0.00  0.00    +0.000 A 
ENDBRANCH  11  14
BRANCH   4  20
ATOM     20  O   UNL     1     106.592 126.106 142.004  0.00  0.00    +0.000 OA
BRANCH  20  28
ATOM     21  O   UNL     1     106.221 125.542 143.263  0.00  0.00    +0.000 OA
ATOM     22  O   UNL     1     105.353 127.742 143.993  0.00  0.00    +0.000 OA
ATOM     23  O   UNL     1     105.271 126.445 145.008  0.00  0.00    +0.000 OA
ATOM     24  C   UNL     1     105.642 127.009 143.750  0.00  0.00    +0.000 C 
ATOM     25  C   UNL     1     105.601 126.361 144.258  0.00  0.00    +0.000 C 
ATOM     26  C   UNL     1     105.972 126.925 142.998  0.00  0.00    +0.000 C 
ATOM     27  C   UNL     1     105.890 125.627 144.014  0.00  0.00    +0.000 C 
ATOM     28  C   UNL     1     106.262 126.191 142.755  0.00  0.00    +0.000 C 
BRANCH  27  30
ATOM     29  O   UNL     1     106.544 124.613 144.780  0.00  0.00    +0.000 OA
ATOM     30  C   UNL     1     105.850 124.979 144.522  0.00  0.00    +0.000 C 
ENDBRANCH  27  30
BRANCH  26  31
ATOM     31  O   UNL     1     106.013 127.573 142.490  0.00  0.00    +0.000 OA
BRANCH  31  33
ATOM     32  O   UNL     1     107.329 128.036 142.803  0.00  0.00    +0.000 OA
ATOM     33  C   UNL     1     106.533 128.193 142.654  0.00  0.00    +0.000 C 
ATOM     34  C   UNL     1     106.256 128.970 142.668  0.00  0.00    +0.000 C 
ENDBRANCH  31  33
ENDBRANCH  26  31
ENDBRANCH  20  28
ENDBRANCH   4  20
TORSDOF 6
ENDMDL
MODEL 10
REMARK VINA RESULT:      -8.6      4.570      7.992
REMARK  Name = 44257830
REMARK  6 active torsions:
REMARK  status: ('A' for Active; 'I' for Inactive)
REMARK    1  A    between atoms: O_2  and  C_14
REMARK    2  A    between atoms: O_2  and  C_19
REMARK    3  A    between atoms: O_3  and  C_16
REMARK    4  A    between atoms: O_3  and  C_18
REMARK    5  A    between atoms: C_15  and  C_17
REMARK    6  A    between atoms: C_27  and  C_29
REMARK                            x       y       z     vdW  Elec       q    Type
REMARK                         _______ _______ _______ _____ _____    ______ ____
ROOT
ATOM      1  O   UNL     1     111.596 131.260 144.072  0.00  0.00    +0.000 OA
ATOM      2  O   UNL     1     111.725 128.440 143.458  0.00  0.00    +0.000 OA
ATOM      3  O   UNL     1     111.629 128.901 144.822  0.00  0.00    +0.000 OA
ATOM      4  C   UNL     1     111.748 130.221 142.100  0.00  0.00    +0.000 A 
ATOM      5  C   UNL     1     111.693 130.850 142.683  0.00  0.00    +0.000 A 
ATOM      6  C   UNL     1     111.759 129.402 142.360  0.00  0.00    +0.000 A 
ATOM      7  C   UNL     1     111.649 130.652 143.518  0.00  0.00    +0.000 A 
ATOM      8  C   UNL     1     111.660 129.866 143.768  0.00  0.00    +0.000 A 
ATOM      9  C   UNL     1     111.715 129.224 143.200  0.00  0.00    +0.000 A 
ATOM     10  C   UNL     1     111.618 129.688 144.572  0.00  0.00    +0.000 A 
ATOM     11  C   UNL     1     111.554 131.082 144.877  0.00  0.00    +0.000 A 
ATOM     12  C   UNL     1     111.565 130.296 145.127  0.00  0.00    +0.000 A 
ENDROOT
BRANCH  11  14
ATOM     13  O   UNL     1     111.342 133.515 147.096  0.00  0.00    +0.000 OA
ATOM     14  C   UNL     1     111.501 131.691 145.432  0.00  0.00    +0.000 A 
ATOM     15  C   UNL     1     112.182 131.965 145.809  0.00  0.00    +0.000 A 
ATOM     16  C   UNL     1     110.768 132.024 145.609  0.00  0.00    +0.000 A 
ATOM     17  C   UNL     1     112.129 132.573 146.364  0.00  0.00    +0.000 A 
ATOM     18  C   UNL     1     110.715 132.633 146.165  0.00  0.00    +0.000 A 
ATOM     19  C   UNL     1     111.395 132.907 146.541  0.00  0.00    +0.000 A 
ENDBRANCH  11  14
BRANCH   4  20
ATOM     20  O   UNL     1     111.790 130.402 141.297  0.00  0.00    +0.000 OA
BRANCH  20  28
ATOM     21  O   UNL     1     113.204 130.606 141.270  0.00  0.00    +0.000 OA
ATOM     22  O   UNL     1     113.292 129.702 138.968  0.00  0.00    +0.000 OA
ATOM     23  O   UNL     1     114.676 130.208 139.710  0.00  0.00    +0.000 OA
ATOM     24  C   UNL     1     113.263 130.004 139.736  0.00  0.00    +0.000 C 
ATOM     25  C   UNL     1     113.954 130.256 140.106  0.00  0.00    +0.000 C 
ATOM     26  C   UNL     1     112.540 130.052 140.132  0.00  0.00    +0.000 C 
ATOM     27  C   UNL     1     113.925 130.558 140.873  0.00  0.00    +0.000 C 
ATOM     28  C   UNL     1     112.511 130.353 140.899  0.00  0.00    +0.000 C 
BRANCH  27  30
ATOM     29  O   UNL     1     114.694 131.599 141.478  0.00  0.00    +0.000 OA
ATOM     30  C   UNL     1     114.617 130.811 141.244  0.00  0.00    +0.000 C 
ENDBRANCH  27  30
BRANCH  26  31
ATOM     31  O   UNL     1     111.849 129.799 139.762  0.00  0.00    +0.000 OA
BRANCH  31  33
ATOM     32  O   UNL     1     111.481 131.046 139.168  0.00  0.00    +0.000 OA
ATOM     33  C   UNL     1     111.543 130.224 139.124  0.00  0.00    +0.000 C 
ATOM     34  C   UNL     1     111.299 129.828 138.442  0.00  0.00    +0.000 C 
ENDBRANCH  31  33
ENDBRANCH  26  31
ENDBRANCH  20  28
ENDBRANCH   4  20
TORSDOF 6
ENDMDL
