MODEL 1
REMARK VINA RESULT:     -11.5      0.000      0.000
REMARK  Name = 44258968
REMARK  13 active torsions:
REMARK  status: ('A' for Active; 'I' for Inactive)
REMARK    1  A    between atoms: O_1  and  C_23
REMARK    2  A    between atoms: O_1  and  C_25
REMARK    3  A    between atoms: O_5  and  C_30
REMARK    4  A    between atoms: O_5  and  C_40
REMARK    5  A    between atoms: O_10  and  C_33
REMARK    6  A    between atoms: O_10  and  C_44
REMARK    7  A    between atoms: O_14  and  C_39
REMARK    8  A    between atoms: O_14  and  C_48
REMARK    9  A    between atoms: C_31  and  C_33
REMARK   10  A    between atoms: C_37  and  C_41
REMARK   11  A    between atoms: C_42  and  C_46
REMARK   12  A    between atoms: C_44  and  C_49
REMARK   13  A    between atoms: C_56  and  C_57
REMARK                            x       y       z     vdW  Elec       q    Type
REMARK                         _______ _______ _______ _____ _____    ______ ____
ROOT
ATOM      1  O   UNL     1     111.976 126.458 137.306  0.00  0.00    +0.000 OA
ATOM      2  O   UNL     1     113.610 125.534 138.418  0.00  0.00    +0.000 OA
ATOM      3  O   UNL     1     113.572 124.582 137.071  0.00  0.00    +0.000 OA
ATOM      4  O   UNL     1     112.470 124.881 135.881  0.00  0.00    +0.000 OA
ATOM      5  C   UNL     1     112.528 126.308 137.902  0.00  0.00    +0.000 C 
ATOM      6  C   UNL     1     113.059 125.683 137.823  0.00  0.00    +0.000 C 
ATOM      7  C   UNL     1     113.040 125.207 137.149  0.00  0.00    +0.000 C 
ATOM      8  C   UNL     1     112.489 125.357 136.555  0.00  0.00    +0.000 C 
ATOM      9  C   UNL     1     111.957 125.982 136.632  0.00  0.00    +0.000 C 
ENDROOT
BRANCH   5  10
ATOM     10  O   UNL     1     112.547 126.784 138.576  0.00  0.00    +0.000 OA
BRANCH  10  14
ATOM     11  O   UNL     1     111.625 128.762 138.643  0.00  0.00    +0.000 OA
ATOM     12  O   UNL     1     111.013 126.397 139.045  0.00  0.00    +0.000 OA
ATOM     13  O   UNL     1     109.887 127.586 139.246  0.00  0.00    +0.000 OA
ATOM     14  C   UNL     1     111.983 127.379 138.676  0.00  0.00    +0.000 C 
ATOM     15  C   UNL     1     111.217 127.185 138.911  0.00  0.00    +0.000 C 
ATOM     16  C   UNL     1     110.653 127.780 139.012  0.00  0.00    +0.000 C 
ATOM     17  C   UNL     1     112.187 128.167 138.542  0.00  0.00    +0.000 C 
ATOM     18  C   UNL     1     110.857 128.568 138.878  0.00  0.00    +0.000 C 
ATOM     19  C   UNL     1     110.295 129.163 138.978  0.00  0.00    +0.000 C 
BRANCH  17  20
ATOM     20  O   UNL     1     112.955 128.360 138.308  0.00  0.00    +0.000 OA
BRANCH  20  25
ATOM     21  O   UNL     1     114.060 130.224 138.564  0.00  0.00    +0.000 OA
ATOM     22  O   UNL     1     113.113 128.406 139.949  0.00  0.00    +0.000 OA
ATOM     23  O   UNL     1     113.580 129.043 141.157  0.00  0.00    +0.000 OA
ATOM     24  O   UNL     1     115.033 131.567 140.958  0.00  0.00    +0.000 OA
ATOM     25  C   UNL     1     113.349 128.989 138.667  0.00  0.00    +0.000 A 
ATOM     26  C   UNL     1     113.665 129.595 138.205  0.00  0.00    +0.000 A 
ATOM     27  C   UNL     1     113.428 129.012 139.488  0.00  0.00    +0.000 A 
ATOM     28  C   UNL     1     113.823 129.641 139.847  0.00  0.00    +0.000 A 
ATOM     29  C   UNL     1     114.139 130.248 139.385  0.00  0.00    +0.000 A 
ATOM     30  C   UNL     1     113.899 129.653 140.703  0.00  0.00    +0.000 A 
ATOM     31  C   UNL     1     114.553 130.908 139.747  0.00  0.00    +0.000 A 
ATOM     32  C   UNL     1     114.309 130.306 141.083  0.00  0.00    +0.000 A 
ATOM     33  C   UNL     1     114.638 130.937 140.602  0.00  0.00    +0.000 A 
BRANCH  26  35
ATOM     34  O   UNL     1     113.349 129.505 134.921  0.00  0.00    +0.000 OA
ATOM     35  C   UNL     1     113.586 129.573 137.385  0.00  0.00    +0.000 A 
ATOM     36  C   UNL     1     113.017 130.040 137.012  0.00  0.00    +0.000 A 
ATOM     37  C   UNL     1     114.076 129.083 136.936  0.00  0.00    +0.000 A 
ATOM     38  C   UNL     1     112.938 130.018 136.191  0.00  0.00    +0.000 A 
ATOM     39  C   UNL     1     113.997 129.060 136.115  0.00  0.00    +0.000 A 
ATOM     40  C   UNL     1     113.428 129.527 135.742  0.00  0.00    +0.000 A 
ENDBRANCH  26  35
ENDBRANCH  20  25
ENDBRANCH  17  20
ENDBRANCH  10  14
ENDBRANCH   5  10
BRANCH   9  41
ATOM     41  C   UNL     1     111.406 126.132 136.038  0.00  0.00    +0.000 C 
BRANCH  41  42
ATOM     42  O   UNL     1     111.409 126.857 135.644  0.00  0.00    +0.000 OA
BRANCH  42  44
ATOM     43  O   UNL     1     110.400 126.631 134.659  0.00  0.00    +0.000 OA
ATOM     44  C   UNL     1     110.737 127.111 135.240  0.00  0.00    +0.000 C 
BRANCH  44  45
ATOM     45  C   UNL     1     110.401 127.843 135.415  0.00  0.00    +0.000 C 
ATOM     46  C   UNL     1     109.906 128.212 134.869  0.00  0.00    +0.000 C 
BRANCH  46  50
ATOM     47  C   UNL     1     108.897 130.411 135.395  0.00  0.00    +0.000 A 
ATOM     48  C   UNL     1     109.495 130.356 134.828  0.00  0.00    +0.000 A 
ATOM     49  C   UNL     1     108.636 129.733 135.786  0.00  0.00    +0.000 A 
ATOM     50  C   UNL     1     109.569 128.945 135.045  0.00  0.00    +0.000 A 
ATOM     51  C   UNL     1     109.831 129.622 134.653  0.00  0.00    +0.000 A 
ATOM     52  C   UNL     1     108.972 129.000 135.610  0.00  0.00    +0.000 A 
BRANCH  47  53
ATOM     53  O   UNL     1     108.562 131.144 135.569  0.00  0.00    +0.000 OA
BRANCH  53  62
ATOM     54  O   UNL     1     109.550 131.783 136.380  0.00  0.00    +0.000 OA
ATOM     55  O   UNL     1     109.399 132.718 138.346  0.00  0.00    +0.000 OA
ATOM     56  O   UNL     1     107.841 132.228 138.113  0.00  0.00    +0.000 OA
ATOM     57  O   UNL     1     107.422 131.441 136.725  0.00  0.00    +0.000 OA
ATOM     58  C   UNL     1     109.189 132.325 137.652  0.00  0.00    +0.000 C 
ATOM     59  C   UNL     1     108.411 132.080 137.536  0.00  0.00    +0.000 C 
ATOM     60  C   UNL     1     109.759 132.176 137.074  0.00  0.00    +0.000 C 
ATOM     61  C   UNL     1     108.202 131.686 136.842  0.00  0.00    +0.000 C 
ATOM     62  C   UNL     1     108.771 131.538 136.264  0.00  0.00    +0.000 C 
BRANCH  60  64
ATOM     63  O   UNL     1     110.897 132.929 136.648  0.00  0.00    +0.000 OA
ATOM     64  C   UNL     1     110.539 132.422 137.190  0.00  0.00    +0.000 C 
ENDBRANCH  60  64
ENDBRANCH  53  62
ENDBRANCH  47  53
ENDBRANCH  46  50
ENDBRANCH  44  45
ENDBRANCH  42  44
ENDBRANCH  41  42
ENDBRANCH   9  41
TORSDOF 13
ENDMDL
MODEL 2
REMARK VINA RESULT:     -11.1      1.265      4.952
REMARK  Name = 44258968
REMARK  13 active torsions:
REMARK  status: ('A' for Active; 'I' for Inactive)
REMARK    1  A    between atoms: O_1  and  C_23
REMARK    2  A    between atoms: O_1  and  C_25
REMARK    3  A    between atoms: O_5  and  C_30
REMARK    4  A    between atoms: O_5  and  C_40
REMARK    5  A    between atoms: O_10  and  C_33
REMARK    6  A    between atoms: O_10  and  C_44
REMARK    7  A    between atoms: O_14  and  C_39
REMARK    8  A    between atoms: O_14  and  C_48
REMARK    9  A    between atoms: C_31  and  C_33
REMARK   10  A    between atoms: C_37  and  C_41
REMARK   11  A    between atoms: C_42  and  C_46
REMARK   12  A    between atoms: C_44  and  C_49
REMARK   13  A    between atoms: C_56  and  C_57
REMARK                            x       y       z     vdW  Elec       q    Type
REMARK                         _______ _______ _______ _____ _____    ______ ____
ROOT
ATOM      1  O   UNL     1     109.231 130.162 137.216  0.00  0.00    +0.000 OA
ATOM      2  O   UNL     1     109.531 132.296 137.557  0.00  0.00    +0.000 OA
ATOM      3  O   UNL     1     108.725 132.320 136.118  0.00  0.00    +0.000 OA
ATOM      4  O   UNL     1     108.255 130.906 135.411  0.00  0.00    +0.000 OA
ATOM      5  C   UNL     1     109.466 130.870 137.570  0.00  0.00    +0.000 C 
ATOM      6  C   UNL     1     109.296 131.589 137.203  0.00  0.00    +0.000 C 
ATOM      7  C   UNL     1     108.893 131.601 136.484  0.00  0.00    +0.000 C 
ATOM      8  C   UNL     1     108.659 130.894 136.131  0.00  0.00    +0.000 C 
ATOM      9  C   UNL     1     108.827 130.174 136.497  0.00  0.00    +0.000 C 
ENDROOT
BRANCH   5  10
ATOM     10  O   UNL     1     109.869 130.858 138.289  0.00  0.00    +0.000 OA
BRANCH  10  14
ATOM     11  O   UNL     1     110.941 129.108 139.033  0.00  0.00    +0.000 OA
ATOM     12  O   UNL     1     108.650 130.043 139.047  0.00  0.00    +0.000 OA
ATOM     13  O   UNL     1     108.958 128.605 139.795  0.00  0.00    +0.000 OA
ATOM     14  C   UNL     1     110.022 130.138 138.664  0.00  0.00    +0.000 C 
ATOM     15  C   UNL     1     109.413 129.731 139.042  0.00  0.00    +0.000 C 
ATOM     16  C   UNL     1     109.567 129.012 139.416  0.00  0.00    +0.000 C 
ATOM     17  C   UNL     1     110.786 129.826 138.659  0.00  0.00    +0.000 C 
ATOM     18  C   UNL     1     110.331 128.700 139.412  0.00  0.00    +0.000 C 
ATOM     19  C   UNL     1     110.485 127.981 139.785  0.00  0.00    +0.000 C 
BRANCH  17  20
ATOM     20  O   UNL     1     111.396 130.234 138.280  0.00  0.00    +0.000 OA
BRANCH  20  25
ATOM     21  O   UNL     1     113.562 130.030 138.456  0.00  0.00    +0.000 OA
ATOM     22  O   UNL     1     111.620 130.636 139.865  0.00  0.00    +0.000 OA
ATOM     23  O   UNL     1     112.477 130.845 141.006  0.00  0.00    +0.000 OA
ATOM     24  O   UNL     1     115.353 130.433 140.717  0.00  0.00    +0.000 OA
ATOM     25  C   UNL     1     112.156 130.233 138.603  0.00  0.00    +0.000 A 
ATOM     26  C   UNL     1     112.802 130.031 138.133  0.00  0.00    +0.000 A 
ATOM     27  C   UNL     1     112.267 130.434 139.395  0.00  0.00    +0.000 A 
ATOM     28  C   UNL     1     113.026 130.433 139.718  0.00  0.00    +0.000 A 
ATOM     29  C   UNL     1     113.674 130.231 139.248  0.00  0.00    +0.000 A 
ATOM     30  C   UNL     1     113.130 130.645 140.545  0.00  0.00    +0.000 A 
ATOM     31  C   UNL     1     114.470 130.226 139.572  0.00  0.00    +0.000 A 
ATOM     32  C   UNL     1     113.919 130.645 140.886  0.00  0.00    +0.000 A 
ATOM     33  C   UNL     1     114.592 130.435 140.397  0.00  0.00    +0.000 A 
BRANCH  26  35
ATOM     34  O   UNL     1     112.356 129.227 134.964  0.00  0.00    +0.000 OA
ATOM     35  C   UNL     1     112.691 129.830 137.342  0.00  0.00    +0.000 A 
ATOM     36  C   UNL     1     112.585 130.422 136.777  0.00  0.00    +0.000 A 
ATOM     37  C   UNL     1     112.686 129.037 137.113  0.00  0.00    +0.000 A 
ATOM     38  C   UNL     1     112.473 130.221 135.984  0.00  0.00    +0.000 A 
ATOM     39  C   UNL     1     112.574 128.835 136.321  0.00  0.00    +0.000 A 
ATOM     40  C   UNL     1     112.467 129.427 135.756  0.00  0.00    +0.000 A 
ENDBRANCH  26  35
ENDBRANCH  20  25
ENDBRANCH  17  20
ENDBRANCH  10  14
ENDBRANCH   5  10
BRANCH   9  41
ATOM     41  C   UNL     1     108.593 129.467 136.144  0.00  0.00    +0.000 C 
BRANCH  41  42
ATOM     42  O   UNL     1     109.160 128.919 135.899  0.00  0.00    +0.000 OA
BRANCH  42  44
ATOM     43  O   UNL     1     108.259 127.899 135.464  0.00  0.00    +0.000 OA
ATOM     44  C   UNL     1     108.962 128.121 135.834  0.00  0.00    +0.000 C 
BRANCH  44  45
ATOM     45  C   UNL     1     109.467 127.544 136.140  0.00  0.00    +0.000 C 
ATOM     46  C   UNL     1     109.657 126.881 135.688  0.00  0.00    +0.000 C 
BRANCH  46  50
ATOM     47  C   UNL     1     111.170 125.150 136.605  0.00  0.00    +0.000 A 
ATOM     48  C   UNL     1     110.615 125.515 137.096  0.00  0.00    +0.000 A 
ATOM     49  C   UNL     1     111.221 125.362 135.810  0.00  0.00    +0.000 A 
ATOM     50  C   UNL     1     110.161 126.304 135.994  0.00  0.00    +0.000 A 
ATOM     51  C   UNL     1     110.111 126.091 136.789  0.00  0.00    +0.000 A 
ATOM     52  C   UNL     1     110.716 125.939 135.504  0.00  0.00    +0.000 A 
BRANCH  47  53
ATOM     53  O   UNL     1     111.674 124.573 136.911  0.00  0.00    +0.000 OA
BRANCH  53  62
ATOM     54  O   UNL     1     112.535 125.378 137.720  0.00  0.00    +0.000 OA
ATOM     55  O   UNL     1     114.709 125.400 137.910  0.00  0.00    +0.000 OA
ATOM     56  O   UNL     1     114.506 124.204 136.791  0.00  0.00    +0.000 OA
ATOM     57  O   UNL     1     112.988 123.791 136.292  0.00  0.00    +0.000 OA
ATOM     58  C   UNL     1     113.951 125.193 137.660  0.00  0.00    +0.000 C 
ATOM     59  C   UNL     1     113.849 124.596 137.101  0.00  0.00    +0.000 C 
ATOM     60  C   UNL     1     113.294 125.585 137.969  0.00  0.00    +0.000 C 
ATOM     61  C   UNL     1     113.091 124.389 136.852  0.00  0.00    +0.000 C 
ATOM     62  C   UNL     1     112.434 124.780 137.161  0.00  0.00    +0.000 C 
BRANCH  60  64
ATOM     63  O   UNL     1     113.037 126.121 139.269  0.00  0.00    +0.000 OA
ATOM     64  C   UNL     1     113.395 126.183 138.529  0.00  0.00    +0.000 C 
ENDBRANCH  60  64
ENDBRANCH  53  62
ENDBRANCH  47  53
ENDBRANCH  46  50
ENDBRANCH  44  45
ENDBRANCH  42  44
ENDBRANCH  41  42
ENDBRANCH   9  41
TORSDOF 13
ENDMDL
MODEL 3
REMARK VINA RESULT:     -10.9      1.144      2.567
REMARK  Name = 44258968
REMARK  13 active torsions:
REMARK  status: ('A' for Active; 'I' for Inactive)
REMARK    1  A    between atoms: O_1  and  C_23
REMARK    2  A    between atoms: O_1  and  C_25
REMARK    3  A    between atoms: O_5  and  C_30
REMARK    4  A    between atoms: O_5  and  C_40
REMARK    5  A    between atoms: O_10  and  C_33
REMARK    6  A    between atoms: O_10  and  C_44
REMARK    7  A    between atoms: O_14  and  C_39
REMARK    8  A    between atoms: O_14  and  C_48
REMARK    9  A    between atoms: C_31  and  C_33
REMARK   10  A    between atoms: C_37  and  C_41
REMARK   11  A    between atoms: C_42  and  C_46
REMARK   12  A    between atoms: C_44  and  C_49
REMARK   13  A    between atoms: C_56  and  C_57
REMARK                            x       y       z     vdW  Elec       q    Type
REMARK                         _______ _______ _______ _____ _____    ______ ____
ROOT
ATOM      1  O   UNL     1     112.467 125.942 137.128  0.00  0.00    +0.000 OA
ATOM      2  O   UNL     1     114.381 125.233 137.900  0.00  0.00    +0.000 OA
ATOM      3  O   UNL     1     113.838 123.883 137.122  0.00  0.00    +0.000 OA
ATOM      4  O   UNL     1     112.382 123.906 136.348  0.00  0.00    +0.000 OA
ATOM      5  C   UNL     1     113.196 125.931 137.515  0.00  0.00    +0.000 C 
ATOM      6  C   UNL     1     113.653 125.244 137.513  0.00  0.00    +0.000 C 
ATOM      7  C   UNL     1     113.381 124.569 137.124  0.00  0.00    +0.000 C 
ATOM      8  C   UNL     1     112.653 124.581 136.737  0.00  0.00    +0.000 C 
ATOM      9  C   UNL     1     112.195 125.267 136.739  0.00  0.00    +0.000 C 
ENDROOT
BRANCH   5  10
ATOM     10  O   UNL     1     113.467 126.606 137.904  0.00  0.00    +0.000 OA
BRANCH  10  14
ATOM     11  O   UNL     1     112.390 128.504 137.948  0.00  0.00    +0.000 OA
ATOM     12  O   UNL     1     113.955 127.275 136.477  0.00  0.00    +0.000 OA
ATOM     13  O   UNL     1     113.400 128.763 136.031  0.00  0.00    +0.000 OA
ATOM     14  C   UNL     1     113.190 127.350 137.681  0.00  0.00    +0.000 C 
ATOM     15  C   UNL     1     113.434 127.684 136.968  0.00  0.00    +0.000 C 
ATOM     16  C   UNL     1     113.156 128.428 136.744  0.00  0.00    +0.000 C 
ATOM     17  C   UNL     1     112.668 127.760 138.171  0.00  0.00    +0.000 C 
ATOM     18  C   UNL     1     112.634 128.838 137.234  0.00  0.00    +0.000 C 
ATOM     19  C   UNL     1     112.356 129.582 137.011  0.00  0.00    +0.000 C 
BRANCH  17  20
ATOM     20  O   UNL     1     112.424 127.425 138.885  0.00  0.00    +0.000 OA
BRANCH  20  25
ATOM     21  O   UNL     1     111.551 128.382 140.641  0.00  0.00    +0.000 OA
ATOM     22  O   UNL     1     113.691 128.349 139.399  0.00  0.00    +0.000 OA
ATOM     23  O   UNL     1     114.274 129.293 140.321  0.00  0.00    +0.000 OA
ATOM     24  O   UNL     1     112.662 130.288 142.543  0.00  0.00    +0.000 OA
ATOM     25  C   UNL     1     112.344 127.898 139.556  0.00  0.00    +0.000 A 
ATOM     26  C   UNL     1     111.631 127.909 139.970  0.00  0.00    +0.000 A 
ATOM     27  C   UNL     1     112.978 128.360 139.813  0.00  0.00    +0.000 A 
ATOM     28  C   UNL     1     112.898 128.833 140.484  0.00  0.00    +0.000 A 
ATOM     29  C   UNL     1     112.184 128.844 140.899  0.00  0.00    +0.000 A 
ATOM     30  C   UNL     1     113.565 129.311 140.742  0.00  0.00    +0.000 A 
ATOM     31  C   UNL     1     112.088 129.333 141.599  0.00  0.00    +0.000 A 
ATOM     32  C   UNL     1     113.487 129.805 141.440  0.00  0.00    +0.000 A 
ATOM     33  C   UNL     1     112.745 129.816 141.871  0.00  0.00    +0.000 A 
BRANCH  26  35
ATOM     34  O   UNL     1     109.097 126.060 138.944  0.00  0.00    +0.000 OA
ATOM     35  C   UNL     1     110.998 127.447 139.714  0.00  0.00    +0.000 A 
ATOM     36  C   UNL     1     110.965 126.647 139.911  0.00  0.00    +0.000 A 
ATOM     37  C   UNL     1     110.397 127.785 139.260  0.00  0.00    +0.000 A 
ATOM     38  C   UNL     1     110.331 126.184 139.654  0.00  0.00    +0.000 A 
ATOM     39  C   UNL     1     109.763 127.323 139.003  0.00  0.00    +0.000 A 
ATOM     40  C   UNL     1     109.730 126.523 139.200  0.00  0.00    +0.000 A 
ENDBRANCH  26  35
ENDBRANCH  20  25
ENDBRANCH  17  20
ENDBRANCH  10  14
ENDBRANCH   5  10
BRANCH   9  41
ATOM     41  C   UNL     1     111.467 125.279 136.353  0.00  0.00    +0.000 C 
BRANCH  41  42
ATOM     42  O   UNL     1     111.280 125.901 135.843  0.00  0.00    +0.000 OA
BRANCH  42  44
ATOM     43  O   UNL     1     110.172 125.345 135.133  0.00  0.00    +0.000 OA
ATOM     44  C   UNL     1     110.515 125.973 135.544  0.00  0.00    +0.000 C 
BRANCH  44  45
ATOM     45  C   UNL     1     110.092 126.673 135.654  0.00  0.00    +0.000 C 
ATOM     46  C   UNL     1     110.065 127.238 135.054  0.00  0.00    +0.000 C 
BRANCH  46  50
ATOM     47  C   UNL     1     108.797 129.338 135.383  0.00  0.00    +0.000 A 
ATOM     48  C   UNL     1     109.447 129.323 134.874  0.00  0.00    +0.000 A 
ATOM     49  C   UNL     1     108.569 128.652 135.782  0.00  0.00    +0.000 A 
ATOM     50  C   UNL     1     109.642 127.938 135.164  0.00  0.00    +0.000 A 
ATOM     51  C   UNL     1     109.869 128.623 134.765  0.00  0.00    +0.000 A 
ATOM     52  C   UNL     1     108.992 127.952 135.671  0.00  0.00    +0.000 A 
BRANCH  47  53
ATOM     53  O   UNL     1     108.375 130.038 135.492  0.00  0.00    +0.000 OA
BRANCH  53  62
ATOM     54  O   UNL     1     108.740 130.433 136.816  0.00  0.00    +0.000 OA
ATOM     55  O   UNL     1     109.500 132.330 137.583  0.00  0.00    +0.000 OA
ATOM     56  O   UNL     1     109.333 132.686 135.981  0.00  0.00    +0.000 OA
ATOM     57  O   UNL     1     108.770 131.540 134.935  0.00  0.00    +0.000 OA
ATOM     58  C   UNL     1     109.219 131.757 137.060  0.00  0.00    +0.000 C 
ATOM     59  C   UNL     1     109.135 131.935 136.259  0.00  0.00    +0.000 C 
ATOM     60  C   UNL     1     109.021 131.006 137.338  0.00  0.00    +0.000 C 
ATOM     61  C   UNL     1     108.854 131.363 135.737  0.00  0.00    +0.000 C 
ATOM     62  C   UNL     1     108.656 130.612 136.015  0.00  0.00    +0.000 C 
BRANCH  60  64
ATOM     63  O   UNL     1     108.468 130.515 138.562  0.00  0.00    +0.000 OA
ATOM     64  C   UNL     1     109.105 130.828 138.140  0.00  0.00    +0.000 C 
ENDBRANCH  60  64
ENDBRANCH  53  62
ENDBRANCH  47  53
ENDBRANCH  46  50
ENDBRANCH  44  45
ENDBRANCH  42  44
ENDBRANCH  41  42
ENDBRANCH   9  41
TORSDOF 13
ENDMDL
MODEL 4
REMARK VINA RESULT:     -10.9      1.811      3.915
REMARK  Name = 44258968
REMARK  13 active torsions:
REMARK  status: ('A' for Active; 'I' for Inactive)
REMARK    1  A    between atoms: O_1  and  C_23
REMARK    2  A    between atoms: O_1  and  C_25
REMARK    3  A    between atoms: O_5  and  C_30
REMARK    4  A    between atoms: O_5  and  C_40
REMARK    5  A    between atoms: O_10  and  C_33
REMARK    6  A    between atoms: O_10  and  C_44
REMARK    7  A    between atoms: O_14  and  C_39
REMARK    8  A    between atoms: O_14  and  C_48
REMARK    9  A    between atoms: C_31  and  C_33
REMARK   10  A    between atoms: C_37  and  C_41
REMARK   11  A    between atoms: C_42  and  C_46
REMARK   12  A    between atoms: C_44  and  C_49
REMARK   13  A    between atoms: C_56  and  C_57
REMARK                            x       y       z     vdW  Elec       q    Type
REMARK                         _______ _______ _______ _____ _____    ______ ____
ROOT
ATOM      1  O   UNL     1     112.015 125.837 136.960  0.00  0.00    +0.000 OA
ATOM      2  O   UNL     1     111.544 123.830 137.677  0.00  0.00    +0.000 OA
ATOM      3  O   UNL     1     113.056 123.594 137.059  0.00  0.00    +0.000 OA
ATOM      4  O   UNL     1     113.873 124.853 136.375  0.00  0.00    +0.000 OA
ATOM      5  C   UNL     1     111.606 125.206 137.302  0.00  0.00    +0.000 C 
ATOM      6  C   UNL     1     111.954 124.459 137.335  0.00  0.00    +0.000 C 
ATOM      7  C   UNL     1     112.709 124.341 137.026  0.00  0.00    +0.000 C 
ATOM      8  C   UNL     1     113.117 124.971 136.684  0.00  0.00    +0.000 C 
ATOM      9  C   UNL     1     112.771 125.719 136.651  0.00  0.00    +0.000 C 
ENDROOT
BRANCH   5  10
ATOM     10  O   UNL     1     110.850 125.324 137.611  0.00  0.00    +0.000 OA
BRANCH  10  14
ATOM     11  O   UNL     1     110.088 127.295 138.159  0.00  0.00    +0.000 OA
ATOM     12  O   UNL     1     110.227 125.830 136.169  0.00  0.00    +0.000 OA
ATOM     13  O   UNL     1     109.512 127.312 136.053  0.00  0.00    +0.000 OA
ATOM     14  C   UNL     1     110.492 126.065 137.553  0.00  0.00    +0.000 C 
ATOM     15  C   UNL     1     110.181 126.318 136.832  0.00  0.00    +0.000 C 
ATOM     16  C   UNL     1     109.823 127.059 136.774  0.00  0.00    +0.000 C 
ATOM     17  C   UNL     1     110.445 126.554 138.216  0.00  0.00    +0.000 C 
ATOM     18  C   UNL     1     109.776 127.548 137.437  0.00  0.00    +0.000 C 
ATOM     19  C   UNL     1     109.419 128.289 137.380  0.00  0.00    +0.000 C 
BRANCH  17  20
ATOM     20  O   UNL     1     110.757 126.301 138.938  0.00  0.00    +0.000 OA
BRANCH  20  25
ATOM     21  O   UNL     1     110.308 126.988 140.960  0.00  0.00    +0.000 OA
ATOM     22  O   UNL     1     109.191 125.806 139.095  0.00  0.00    +0.000 OA
ATOM     23  O   UNL     1     107.973 125.690 139.860  0.00  0.00    +0.000 OA
ATOM     24  O   UNL     1     107.885 126.791 142.563  0.00  0.00    +0.000 OA
ATOM     25  C   UNL     1     110.346 126.448 139.638  0.00  0.00    +0.000 A 
ATOM     26  C   UNL     1     110.719 126.841 140.259  0.00  0.00    +0.000 A 
ATOM     27  C   UNL     1     109.563 126.200 139.716  0.00  0.00    +0.000 A 
ATOM     28  C   UNL     1     109.153 126.346 140.417  0.00  0.00    +0.000 A 
ATOM     29  C   UNL     1     109.525 126.740 141.039  0.00  0.00    +0.000 A 
ATOM     30  C   UNL     1     108.337 126.083 140.487  0.00  0.00    +0.000 A 
ATOM     31  C   UNL     1     109.108 126.898 141.774  0.00  0.00    +0.000 A 
ATOM     32  C   UNL     1     107.905 126.233 141.214  0.00  0.00    +0.000 A 
ATOM     33  C   UNL     1     108.293 126.643 141.861  0.00  0.00    +0.000 A 
BRANCH  26  35
ATOM     34  O   UNL     1     113.851 127.833 139.945  0.00  0.00    +0.000 OA
ATOM     35  C   UNL     1     111.501 127.089 140.181  0.00  0.00    +0.000 A 
ATOM     36  C   UNL     1     111.669 127.879 140.011  0.00  0.00    +0.000 A 
ATOM     37  C   UNL     1     112.117 126.547 140.272  0.00  0.00    +0.000 A 
ATOM     38  C   UNL     1     112.452 128.127 139.932  0.00  0.00    +0.000 A 
ATOM     39  C   UNL     1     112.900 126.795 140.194  0.00  0.00    +0.000 A 
ATOM     40  C   UNL     1     113.068 127.584 140.024  0.00  0.00    +0.000 A 
ENDBRANCH  26  35
ENDBRANCH  20  25
ENDBRANCH  17  20
ENDBRANCH  10  14
ENDBRANCH   5  10
BRANCH   9  41
ATOM     41  C   UNL     1     113.179 126.348 136.309  0.00  0.00    +0.000 C 
BRANCH  41  42
ATOM     42  O   UNL     1     113.316 127.036 136.743  0.00  0.00    +0.000 OA
BRANCH  42  44
ATOM     43  O   UNL     1     114.220 127.719 135.873  0.00  0.00    +0.000 OA
ATOM     44  C   UNL     1     113.553 127.726 136.359  0.00  0.00    +0.000 C 
BRANCH  44  45
ATOM     45  C   UNL     1     113.125 128.424 136.461  0.00  0.00    +0.000 C 
ATOM     46  C   UNL     1     113.506 129.109 136.717  0.00  0.00    +0.000 C 
BRANCH  46  50
ATOM     47  C   UNL     1     112.221 131.203 137.023  0.00  0.00    +0.000 A 
ATOM     48  C   UNL     1     112.899 131.064 137.474  0.00  0.00    +0.000 A 
ATOM     49  C   UNL     1     111.973 130.644 136.469  0.00  0.00    +0.000 A 
ATOM     50  C   UNL     1     113.077 129.807 136.818  0.00  0.00    +0.000 A 
ATOM     51  C   UNL     1     113.326 130.366 137.372  0.00  0.00    +0.000 A 
ATOM     52  C   UNL     1     112.401 129.946 136.368  0.00  0.00    +0.000 A 
BRANCH  47  53
ATOM     53  O   UNL     1     111.794 131.901 137.125  0.00  0.00    +0.000 OA
BRANCH  53  62
ATOM     54  O   UNL     1     111.082 131.563 138.318  0.00  0.00    +0.000 OA
ATOM     55  O   UNL     1     108.994 131.876 138.872  0.00  0.00    +0.000 OA
ATOM     56  O   UNL     1     109.018 132.538 137.361  0.00  0.00    +0.000 OA
ATOM     57  O   UNL     1     110.418 132.551 136.488  0.00  0.00    +0.000 OA
ATOM     58  C   UNL     1     109.694 131.882 138.435  0.00  0.00    +0.000 C 
ATOM     59  C   UNL     1     109.706 132.213 137.680  0.00  0.00    +0.000 C 
ATOM     60  C   UNL     1     110.382 131.557 138.754  0.00  0.00    +0.000 C 
ATOM     61  C   UNL     1     110.405 132.220 137.244  0.00  0.00    +0.000 C 
ATOM     62  C   UNL     1     111.093 131.895 137.562  0.00  0.00    +0.000 C 
BRANCH  60  64
ATOM     63  O   UNL     1     110.862 131.527 140.100  0.00  0.00    +0.000 OA
ATOM     64  C   UNL     1     110.370 131.226 139.510  0.00  0.00    +0.000 C 
ENDBRANCH  60  64
ENDBRANCH  53  62
ENDBRANCH  47  53
ENDBRANCH  46  50
ENDBRANCH  44  45
ENDBRANCH  42  44
ENDBRANCH  41  42
ENDBRANCH   9  41
TORSDOF 13
ENDMDL
MODEL 5
REMARK VINA RESULT:     -10.7      1.970      5.012
REMARK  Name = 44258968
REMARK  13 active torsions:
REMARK  status: ('A' for Active; 'I' for Inactive)
REMARK    1  A    between atoms: O_1  and  C_23
REMARK    2  A    between atoms: O_1  and  C_25
REMARK    3  A    between atoms: O_5  and  C_30
REMARK    4  A    between atoms: O_5  and  C_40
REMARK    5  A    between atoms: O_10  and  C_33
REMARK    6  A    between atoms: O_10  and  C_44
REMARK    7  A    between atoms: O_14  and  C_39
REMARK    8  A    between atoms: O_14  and  C_48
REMARK    9  A    between atoms: C_31  and  C_33
REMARK   10  A    between atoms: C_37  and  C_41
REMARK   11  A    between atoms: C_42  and  C_46
REMARK   12  A    between atoms: C_44  and  C_49
REMARK   13  A    between atoms: C_56  and  C_57
REMARK                            x       y       z     vdW  Elec       q    Type
REMARK                         _______ _______ _______ _____ _____    ______ ____
ROOT
ATOM      1  O   UNL     1     111.203 126.144 137.326  0.00  0.00    +0.000 OA
ATOM      2  O   UNL     1     110.065 125.555 135.559  0.00  0.00    +0.000 OA
ATOM      3  O   UNL     1     111.291 124.451 135.523  0.00  0.00    +0.000 OA
ATOM      4  O   UNL     1     112.458 124.477 136.689  0.00  0.00    +0.000 OA
ATOM      5  C   UNL     1     110.618 126.132 136.742  0.00  0.00    +0.000 C 
ATOM      6  C   UNL     1     110.649 125.567 136.141  0.00  0.00    +0.000 C 
ATOM      7  C   UNL     1     111.262 125.015 136.124  0.00  0.00    +0.000 C 
ATOM      8  C   UNL     1     111.845 125.028 136.706  0.00  0.00    +0.000 C 
ATOM      9  C   UNL     1     111.816 125.593 137.308  0.00  0.00    +0.000 C 
ENDROOT
BRANCH   5  10
ATOM     10  O   UNL     1     110.005 126.683 136.760  0.00  0.00    +0.000 OA
BRANCH  10  14
ATOM     11  O   UNL     1     110.099 128.526 137.926  0.00  0.00    +0.000 OA
ATOM     12  O   UNL     1     109.443 126.157 138.219  0.00  0.00    +0.000 OA
ATOM     13  O   UNL     1     109.319 127.210 139.484  0.00  0.00    +0.000 OA
ATOM     14  C   UNL     1     109.943 127.209 137.392  0.00  0.00    +0.000 C 
ATOM     15  C   UNL     1     109.662 126.947 138.122  0.00  0.00    +0.000 C 
ATOM     16  C   UNL     1     109.599 127.473 138.754  0.00  0.00    +0.000 C 
ATOM     17  C   UNL     1     110.161 127.999 137.295  0.00  0.00    +0.000 C 
ATOM     18  C   UNL     1     109.818 128.262 138.657  0.00  0.00    +0.000 C 
ATOM     19  C   UNL     1     109.756 128.789 139.288  0.00  0.00    +0.000 C 
BRANCH  17  20
ATOM     20  O   UNL     1     110.442 128.262 136.565  0.00  0.00    +0.000 OA
BRANCH  20  25
ATOM     21  O   UNL     1     110.595 130.295 135.787  0.00  0.00    +0.000 OA
ATOM     22  O   UNL     1     108.848 128.669 136.439  0.00  0.00    +0.000 OA
ATOM     23  O   UNL     1     107.806 129.608 136.100  0.00  0.00    +0.000 OA
ATOM     24  O   UNL     1     108.547 132.242 135.082  0.00  0.00    +0.000 OA
ATOM     25  C   UNL     1     110.228 129.008 136.284  0.00  0.00    +0.000 A 
ATOM     26  C   UNL     1     110.810 129.550 136.067  0.00  0.00    +0.000 A 
ATOM     27  C   UNL     1     109.430 129.211 136.222  0.00  0.00    +0.000 A 
ATOM     28  C   UNL     1     109.215 129.956 135.941  0.00  0.00    +0.000 A 
ATOM     29  C   UNL     1     109.798 130.499 135.724  0.00  0.00    +0.000 A 
ATOM     30  C   UNL     1     108.381 130.157 135.880  0.00  0.00    +0.000 A 
ATOM     31  C   UNL     1     109.587 131.279 135.430  0.00  0.00    +0.000 A 
ATOM     32  C   UNL     1     108.152 130.932 135.589  0.00  0.00    +0.000 A 
ATOM     33  C   UNL     1     108.758 131.496 135.363  0.00  0.00    +0.000 A 
BRANCH  26  35
ATOM     34  O   UNL     1     113.998 128.737 136.317  0.00  0.00    +0.000 OA
ATOM     35  C   UNL     1     111.606 129.347 136.130  0.00  0.00    +0.000 A 
ATOM     36  C   UNL     1     111.963 128.891 135.542  0.00  0.00    +0.000 A 
ATOM     37  C   UNL     1     112.047 129.600 136.779  0.00  0.00    +0.000 A 
ATOM     38  C   UNL     1     112.761 128.687 135.604  0.00  0.00    +0.000 A 
ATOM     39  C   UNL     1     112.845 129.397 136.843  0.00  0.00    +0.000 A 
ATOM     40  C   UNL     1     113.201 128.941 136.255  0.00  0.00    +0.000 A 
ENDBRANCH  26  35
ENDBRANCH  20  25
ENDBRANCH  17  20
ENDBRANCH  10  14
ENDBRANCH   5  10
BRANCH   9  41
ATOM     41  C   UNL     1     112.399 125.606 137.890  0.00  0.00    +0.000 C 
BRANCH  41  42
ATOM     42  O   UNL     1     112.684 126.326 138.174  0.00  0.00    +0.000 OA
BRANCH  42  44
ATOM     43  O   UNL     1     113.963 125.983 138.709  0.00  0.00    +0.000 OA
ATOM     44  C   UNL     1     113.224 126.340 138.796  0.00  0.00    +0.000 C 
BRANCH  44  45
ATOM     45  C   UNL     1     113.028 126.712 139.506  0.00  0.00    +0.000 C 
ATOM     46  C   UNL     1     113.326 127.462 139.675  0.00  0.00    +0.000 C 
BRANCH  46  50
ATOM     47  C   UNL     1     112.737 128.577 141.806  0.00  0.00    +0.000 A 
ATOM     48  C   UNL     1     112.463 127.813 141.650  0.00  0.00    +0.000 A 
ATOM     49  C   UNL     1     113.207 128.968 141.252  0.00  0.00    +0.000 A 
ATOM     50  C   UNL     1     113.130 127.834 140.386  0.00  0.00    +0.000 A 
ATOM     51  C   UNL     1     112.660 127.443 140.939  0.00  0.00    +0.000 A 
ATOM     52  C   UNL     1     113.403 128.596 140.542  0.00  0.00    +0.000 A 
BRANCH  47  53
ATOM     53  O   UNL     1     112.540 128.947 142.516  0.00  0.00    +0.000 OA
BRANCH  53  62
ATOM     54  O   UNL     1     111.620 129.957 142.096  0.00  0.00    +0.000 OA
ATOM     55  O   UNL     1     109.629 130.470 142.828  0.00  0.00    +0.000 OA
ATOM     56  O   UNL     1     110.012 129.211 143.823  0.00  0.00    +0.000 OA
ATOM     57  O   UNL     1     111.468 128.450 143.667  0.00  0.00    +0.000 OA
ATOM     58  C   UNL     1     110.357 130.089 142.750  0.00  0.00    +0.000 C 
ATOM     59  C   UNL     1     110.548 129.460 143.247  0.00  0.00    +0.000 C 
ATOM     60  C   UNL     1     110.893 130.337 142.174  0.00  0.00    +0.000 C 
ATOM     61  C   UNL     1     111.275 129.079 143.170  0.00  0.00    +0.000 C 
ATOM     62  C   UNL     1     111.812 129.328 142.594  0.00  0.00    +0.000 C 
BRANCH  60  64
ATOM     63  O   UNL     1     111.162 131.651 141.679  0.00  0.00    +0.000 OA
ATOM     64  C   UNL     1     110.701 130.967 141.676  0.00  0.00    +0.000 C 
ENDBRANCH  60  64
ENDBRANCH  53  62
ENDBRANCH  47  53
ENDBRANCH  46  50
ENDBRANCH  44  45
ENDBRANCH  42  44
ENDBRANCH  41  42
ENDBRANCH   9  41
TORSDOF 13
ENDMDL
MODEL 6
REMARK VINA RESULT:     -10.5      2.258      5.839
REMARK  Name = 44258968
REMARK  13 active torsions:
REMARK  status: ('A' for Active; 'I' for Inactive)
REMARK    1  A    between atoms: O_1  and  C_23
REMARK    2  A    between atoms: O_1  and  C_25
REMARK    3  A    between atoms: O_5  and  C_30
REMARK    4  A    between atoms: O_5  and  C_40
REMARK    5  A    between atoms: O_10  and  C_33
REMARK    6  A    between atoms: O_10  and  C_44
REMARK    7  A    between atoms: O_14  and  C_39
REMARK    8  A    between atoms: O_14  and  C_48
REMARK    9  A    between atoms: C_31  and  C_33
REMARK   10  A    between atoms: C_37  and  C_41
REMARK   11  A    between atoms: C_42  and  C_46
REMARK   12  A    between atoms: C_44  and  C_49
REMARK   13  A    between atoms: C_56  and  C_57
REMARK                            x       y       z     vdW  Elec       q    Type
REMARK                         _______ _______ _______ _____ _____    ______ ____
ROOT
ATOM      1  O   UNL     1     112.635 129.723 138.088  0.00  0.00    +0.000 OA
ATOM      2  O   UNL     1     113.866 129.420 136.311  0.00  0.00    +0.000 OA
ATOM      3  O   UNL     1     114.747 130.563 137.111  0.00  0.00    +0.000 OA
ATOM      4  O   UNL     1     114.221 131.146 138.561  0.00  0.00    +0.000 OA
ATOM      5  C   UNL     1     112.899 129.431 137.362  0.00  0.00    +0.000 C 
ATOM      6  C   UNL     1     113.603 129.712 137.037  0.00  0.00    +0.000 C 
ATOM      7  C   UNL     1     114.043 130.284 137.437  0.00  0.00    +0.000 C 
ATOM      8  C   UNL     1     113.780 130.574 138.161  0.00  0.00    +0.000 C 
ATOM      9  C   UNL     1     113.075 130.295 138.488  0.00  0.00    +0.000 C 
ENDROOT
BRANCH   5  10
ATOM     10  O   UNL     1     112.458 128.860 136.962  0.00  0.00    +0.000 OA
BRANCH  10  14
ATOM     11  O   UNL     1     110.971 127.617 137.966  0.00  0.00    +0.000 OA
ATOM     12  O   UNL     1     111.113 129.805 136.818  0.00  0.00    +0.000 OA
ATOM     13  O   UNL     1     109.673 129.291 137.439  0.00  0.00    +0.000 OA
ATOM     14  C   UNL     1     111.738 128.603 137.272  0.00  0.00    +0.000 C 
ATOM     15  C   UNL     1     111.066 129.075 137.201  0.00  0.00    +0.000 C 
ATOM     16  C   UNL     1     110.345 128.819 137.511  0.00  0.00    +0.000 C 
ATOM     17  C   UNL     1     111.690 127.874 137.655  0.00  0.00    +0.000 C 
ATOM     18  C   UNL     1     110.298 128.089 137.893  0.00  0.00    +0.000 C 
ATOM     19  C   UNL     1     109.578 127.832 138.204  0.00  0.00    +0.000 C 
BRANCH  17  20
ATOM     20  O   UNL     1     112.363 127.401 137.727  0.00  0.00    +0.000 OA
BRANCH  20  25
ATOM     21  O   UNL     1     112.531 125.250 138.054  0.00  0.00    +0.000 OA
ATOM     22  O   UNL     1     111.713 126.821 136.326  0.00  0.00    +0.000 OA
ATOM     23  O   UNL     1     111.323 125.725 135.473  0.00  0.00    +0.000 OA
ATOM     24  O   UNL     1     111.769 122.988 136.385  0.00  0.00    +0.000 OA
ATOM     25  C   UNL     1     112.311 126.587 137.603  0.00  0.00    +0.000 A 
ATOM     26  C   UNL     1     112.584 126.064 138.178  0.00  0.00    +0.000 A 
ATOM     27  C   UNL     1     111.986 126.298 136.901  0.00  0.00    +0.000 A 
ATOM     28  C   UNL     1     111.934 125.484 136.777  0.00  0.00    +0.000 A 
ATOM     29  C   UNL     1     112.207 124.960 137.353  0.00  0.00    +0.000 A 
ATOM     30  C   UNL     1     111.593 125.194 136.042  0.00  0.00    +0.000 A 
ATOM     31  C   UNL     1     112.158 124.110 137.235  0.00  0.00    +0.000 A 
ATOM     32  C   UNL     1     111.536 124.347 135.907  0.00  0.00    +0.000 A 
ATOM     33  C   UNL     1     111.820 123.802 136.507  0.00  0.00    +0.000 A 
BRANCH  26  35
ATOM     34  O   UNL     1     113.883 127.223 140.982  0.00  0.00    +0.000 OA
ATOM     35  C   UNL     1     112.908 126.353 138.878  0.00  0.00    +0.000 A 
ATOM     36  C   UNL     1     112.447 126.393 139.561  0.00  0.00    +0.000 A 
ATOM     37  C   UNL     1     113.694 126.604 138.897  0.00  0.00    +0.000 A 
ATOM     38  C   UNL     1     112.772 126.683 140.263  0.00  0.00    +0.000 A 
ATOM     39  C   UNL     1     114.020 126.894 139.598  0.00  0.00    +0.000 A 
ATOM     40  C   UNL     1     113.559 126.933 140.281  0.00  0.00    +0.000 A 
ENDBRANCH  26  35
ENDBRANCH  20  25
ENDBRANCH  17  20
ENDBRANCH  10  14
ENDBRANCH   5  10
BRANCH   9  41
ATOM     41  C   UNL     1     112.812 130.585 139.213  0.00  0.00    +0.000 C 
BRANCH  41  42
ATOM     42  O   UNL     1     112.675 130.068 139.841  0.00  0.00    +0.000 OA
BRANCH  42  44
ATOM     43  O   UNL     1     112.431 131.023 140.874  0.00  0.00    +0.000 OA
ATOM     44  C   UNL     1     112.238 130.317 140.494  0.00  0.00    +0.000 C 
BRANCH  44  45
ATOM     45  C   UNL     1     111.607 129.861 140.767  0.00  0.00    +0.000 C 
ATOM     46  C   UNL     1     111.394 129.886 141.563  0.00  0.00    +0.000 C 
BRANCH  46  50
ATOM     47  C   UNL     1     109.503 128.516 142.385  0.00  0.00    +0.000 A 
ATOM     48  C   UNL     1     110.267 128.375 142.663  0.00  0.00    +0.000 A 
ATOM     49  C   UNL     1     109.369 129.115 141.833  0.00  0.00    +0.000 A 
ATOM     50  C   UNL     1     110.763 129.430 141.837  0.00  0.00    +0.000 A 
ATOM     51  C   UNL     1     110.897 128.832 142.389  0.00  0.00    +0.000 A 
ATOM     52  C   UNL     1     110.000 129.571 141.559  0.00  0.00    +0.000 A 
BRANCH  47  53
ATOM     53  O   UNL     1     108.873 128.059 142.659  0.00  0.00    +0.000 OA
BRANCH  53  62
ATOM     54  O   UNL     1     109.024 126.921 141.809  0.00  0.00    +0.000 OA
ATOM     55  O   UNL     1     107.543 125.751 140.712  0.00  0.00    +0.000 OA
ATOM     56  O   UNL     1     106.577 126.874 141.439  0.00  0.00    +0.000 OA
ATOM     57  O   UNL     1     107.242 128.028 142.412  0.00  0.00    +0.000 OA
ATOM     58  C   UNL     1     107.875 126.329 141.199  0.00  0.00    +0.000 C 
ATOM     59  C   UNL     1     107.393 126.890 141.562  0.00  0.00    +0.000 C 
ATOM     60  C   UNL     1     108.691 126.344 141.322  0.00  0.00    +0.000 C 
ATOM     61  C   UNL     1     107.725 127.466 142.048  0.00  0.00    +0.000 C 
ATOM     62  C   UNL     1     108.540 127.482 142.172  0.00  0.00    +0.000 C 
BRANCH  60  64
ATOM     63  O   UNL     1     109.723 125.359 141.405  0.00  0.00    +0.000 OA
ATOM     64  C   UNL     1     109.174 125.782 140.958  0.00  0.00    +0.000 C 
ENDBRANCH  60  64
ENDBRANCH  53  62
ENDBRANCH  47  53
ENDBRANCH  46  50
ENDBRANCH  44  45
ENDBRANCH  42  44
ENDBRANCH  41  42
ENDBRANCH   9  41
TORSDOF 13
ENDMDL
MODEL 7
REMARK VINA RESULT:     -10.5      1.923      4.822
REMARK  Name = 44258968
REMARK  13 active torsions:
REMARK  status: ('A' for Active; 'I' for Inactive)
REMARK    1  A    between atoms: O_1  and  C_23
REMARK    2  A    between atoms: O_1  and  C_25
REMARK    3  A    between atoms: O_5  and  C_30
REMARK    4  A    between atoms: O_5  and  C_40
REMARK    5  A    between atoms: O_10  and  C_33
REMARK    6  A    between atoms: O_10  and  C_44
REMARK    7  A    between atoms: O_14  and  C_39
REMARK    8  A    between atoms: O_14  and  C_48
REMARK    9  A    between atoms: C_31  and  C_33
REMARK   10  A    between atoms: C_37  and  C_41
REMARK   11  A    between atoms: C_42  and  C_46
REMARK   12  A    between atoms: C_44  and  C_49
REMARK   13  A    between atoms: C_56  and  C_57
REMARK                            x       y       z     vdW  Elec       q    Type
REMARK                         _______ _______ _______ _____ _____    ______ ____
ROOT
ATOM      1  O   UNL     1     112.727 126.194 138.225  0.00  0.00    +0.000 OA
ATOM      2  O   UNL     1     112.476 125.420 136.200  0.00  0.00    +0.000 OA
ATOM      3  O   UNL     1     114.043 125.003 136.501  0.00  0.00    +0.000 OA
ATOM      4  O   UNL     1     114.733 125.380 137.951  0.00  0.00    +0.000 OA
ATOM      5  C   UNL     1     112.381 126.005 137.499  0.00  0.00    +0.000 C 
ATOM      6  C   UNL     1     112.821 125.608 136.925  0.00  0.00    +0.000 C 
ATOM      7  C   UNL     1     113.605 125.400 137.076  0.00  0.00    +0.000 C 
ATOM      8  C   UNL     1     113.949 125.588 137.801  0.00  0.00    +0.000 C 
ATOM      9  C   UNL     1     113.511 125.985 138.376  0.00  0.00    +0.000 C 
ENDROOT
BRANCH   5  10
ATOM     10  O   UNL     1     111.598 126.214 137.348  0.00  0.00    +0.000 OA
BRANCH  10  14
ATOM     11  O   UNL     1     110.556 127.773 138.465  0.00  0.00    +0.000 OA
ATOM     12  O   UNL     1     111.004 125.344 138.619  0.00  0.00    +0.000 OA
ATOM     13  O   UNL     1     110.111 126.093 139.787  0.00  0.00    +0.000 OA
ATOM     14  C   UNL     1     111.151 126.588 137.933  0.00  0.00    +0.000 C 
ATOM     15  C   UNL     1     110.854 126.153 138.567  0.00  0.00    +0.000 C 
ATOM     16  C   UNL     1     110.408 126.528 139.152  0.00  0.00    +0.000 C 
ATOM     17  C   UNL     1     111.002 127.398 137.882  0.00  0.00    +0.000 C 
ATOM     18  C   UNL     1     110.259 127.338 139.101  0.00  0.00    +0.000 C 
ATOM     19  C   UNL     1     109.813 127.713 139.684  0.00  0.00    +0.000 C 
BRANCH  17  20
ATOM     20  O   UNL     1     111.299 127.833 137.246  0.00  0.00    +0.000 OA
BRANCH  20  25
ATOM     21  O   UNL     1     110.671 129.766 136.451  0.00  0.00    +0.000 OA
ATOM     22  O   UNL     1     109.776 127.475 136.724  0.00  0.00    +0.000 OA
ATOM     23  O   UNL     1     108.528 127.858 136.108  0.00  0.00    +0.000 OA
ATOM     24  O   UNL     1     108.181 130.610 135.199  0.00  0.00    +0.000 OA
ATOM     25  C   UNL     1     110.836 128.418 136.894  0.00  0.00    +0.000 A 
ATOM     26  C   UNL     1     111.134 129.181 136.803  0.00  0.00    +0.000 A 
ATOM     27  C   UNL     1     110.074 128.238 136.633  0.00  0.00    +0.000 A 
ATOM     28  C   UNL     1     109.610 128.823 136.281  0.00  0.00    +0.000 A 
ATOM     29  C   UNL     1     109.909 129.587 136.190  0.00  0.00    +0.000 A 
ATOM     30  C   UNL     1     108.818 128.624 136.012  0.00  0.00    +0.000 A 
ATOM     31  C   UNL     1     109.436 130.204 135.825  0.00  0.00    +0.000 A 
ATOM     32  C   UNL     1     108.331 129.229 135.645  0.00  0.00    +0.000 A 
ATOM     33  C   UNL     1     108.642 130.024 135.550  0.00  0.00    +0.000 A 
BRANCH  26  35
ATOM     34  O   UNL     1     114.181 129.898 137.848  0.00  0.00    +0.000 OA
ATOM     35  C   UNL     1     111.895 129.360 137.064  0.00  0.00    +0.000 A 
ATOM     36  C   UNL     1     112.548 129.147 136.608  0.00  0.00    +0.000 A 
ATOM     37  C   UNL     1     112.004 129.752 137.782  0.00  0.00    +0.000 A 
ATOM     38  C   UNL     1     113.311 129.326 136.869  0.00  0.00    +0.000 A 
ATOM     39  C   UNL     1     112.766 129.932 138.044  0.00  0.00    +0.000 A 
ATOM     40  C   UNL     1     113.419 129.719 137.587  0.00  0.00    +0.000 A 
ENDBRANCH  26  35
ENDBRANCH  20  25
ENDBRANCH  17  20
ENDBRANCH  10  14
ENDBRANCH   5  10
BRANCH   9  41
ATOM     41  C   UNL     1     113.855 126.174 139.101  0.00  0.00    +0.000 C 
BRANCH  41  42
ATOM     42  O   UNL     1     113.850 126.954 139.370  0.00  0.00    +0.000 OA
BRANCH  42  44
ATOM     43  O   UNL     1     114.663 126.790 140.533  0.00  0.00    +0.000 OA
ATOM     44  C   UNL     1     114.002 127.117 140.164  0.00  0.00    +0.000 C 
BRANCH  44  45
ATOM     45  C   UNL     1     113.493 127.608 140.589  0.00  0.00    +0.000 C 
ATOM     46  C   UNL     1     113.778 128.302 140.931  0.00  0.00    +0.000 C 
BRANCH  46  50
ATOM     47  C   UNL     1     112.249 129.773 142.207  0.00  0.00    +0.000 A 
ATOM     48  C   UNL     1     112.118 128.958 142.189  0.00  0.00    +0.000 A 
ATOM     49  C   UNL     1     112.890 130.097 141.800  0.00  0.00    +0.000 A 
ATOM     50  C   UNL     1     113.268 128.793 141.356  0.00  0.00    +0.000 A 
ATOM     51  C   UNL     1     112.628 128.468 141.763  0.00  0.00    +0.000 A 
ATOM     52  C   UNL     1     113.399 129.606 141.375  0.00  0.00    +0.000 A 
BRANCH  47  53
ATOM     53  O   UNL     1     111.740 130.262 142.633  0.00  0.00    +0.000 OA
BRANCH  53  62
ATOM     54  O   UNL     1     110.953 130.750 141.544  0.00  0.00    +0.000 OA
ATOM     55  O   UNL     1     108.802 131.077 141.369  0.00  0.00    +0.000 OA
ATOM     56  O   UNL     1     108.907 130.510 142.915  0.00  0.00    +0.000 OA
ATOM     57  O   UNL     1     110.375 130.103 143.547  0.00  0.00    +0.000 OA
ATOM     58  C   UNL     1     109.537 130.873 141.685  0.00  0.00    +0.000 C 
ATOM     59  C   UNL     1     109.589 130.590 142.458  0.00  0.00    +0.000 C 
ATOM     60  C   UNL     1     110.219 130.953 141.228  0.00  0.00    +0.000 C 
ATOM     61  C   UNL     1     110.323 130.386 142.773  0.00  0.00    +0.000 C 
ATOM     62  C   UNL     1     111.005 130.466 142.316  0.00  0.00    +0.000 C 
BRANCH  60  64
ATOM     63  O   UNL     1     110.582 131.916 140.235  0.00  0.00    +0.000 OA
ATOM     64  C   UNL     1     110.167 131.237 140.455  0.00  0.00    +0.000 C 
ENDBRANCH  60  64
ENDBRANCH  53  62
ENDBRANCH  47  53
ENDBRANCH  46  50
ENDBRANCH  44  45
ENDBRANCH  42  44
ENDBRANCH  41  42
ENDBRANCH   9  41
TORSDOF 13
ENDMDL
MODEL 8
REMARK VINA RESULT:     -10.4      1.573      5.270
REMARK  Name = 44258968
REMARK  13 active torsions:
REMARK  status: ('A' for Active; 'I' for Inactive)
REMARK    1  A    between atoms: O_1  and  C_23
REMARK    2  A    between atoms: O_1  and  C_25
REMARK    3  A    between atoms: O_5  and  C_30
REMARK    4  A    between atoms: O_5  and  C_40
REMARK    5  A    between atoms: O_10  and  C_33
REMARK    6  A    between atoms: O_10  and  C_44
REMARK    7  A    between atoms: O_14  and  C_39
REMARK    8  A    between atoms: O_14  and  C_48
REMARK    9  A    between atoms: C_31  and  C_33
REMARK   10  A    between atoms: C_37  and  C_41
REMARK   11  A    between atoms: C_42  and  C_46
REMARK   12  A    between atoms: C_44  and  C_49
REMARK   13  A    between atoms: C_56  and  C_57
REMARK                            x       y       z     vdW  Elec       q    Type
REMARK                         _______ _______ _______ _____ _____    ______ ____
ROOT
ATOM      1  O   UNL     1     109.480 128.544 137.284  0.00  0.00    +0.000 OA
ATOM      2  O   UNL     1     109.107 127.673 135.318  0.00  0.00    +0.000 OA
ATOM      3  O   UNL     1     108.397 129.153 135.144  0.00  0.00    +0.000 OA
ATOM      4  O   UNL     1     108.409 130.226 136.396  0.00  0.00    +0.000 OA
ATOM      5  C   UNL     1     109.474 128.007 136.657  0.00  0.00    +0.000 C 
ATOM      6  C   UNL     1     109.113 128.210 135.944  0.00  0.00    +0.000 C 
ATOM      7  C   UNL     1     108.758 128.950 135.857  0.00  0.00    +0.000 C 
ATOM      8  C   UNL     1     108.764 129.486 136.483  0.00  0.00    +0.000 C 
ATOM      9  C   UNL     1     109.125 129.283 137.197  0.00  0.00    +0.000 C 
ENDROOT
BRANCH   5  10
ATOM     10  O   UNL     1     109.829 127.267 136.743  0.00  0.00    +0.000 OA
BRANCH  10  14
ATOM     11  O   UNL     1     111.305 126.907 138.311  0.00  0.00    +0.000 OA
ATOM     12  O   UNL     1     108.865 126.693 137.954  0.00  0.00    +0.000 OA
ATOM     13  O   UNL     1     109.528 126.262 139.402  0.00  0.00    +0.000 OA
ATOM     14  C   UNL     1     110.160 127.051 137.468  0.00  0.00    +0.000 C 
ATOM     15  C   UNL     1     109.678 126.764 138.073  0.00  0.00    +0.000 C 
ATOM     16  C   UNL     1     110.009 126.549 138.797  0.00  0.00    +0.000 C 
ATOM     17  C   UNL     1     110.973 127.122 137.587  0.00  0.00    +0.000 C 
ATOM     18  C   UNL     1     110.822 126.620 138.916  0.00  0.00    +0.000 C 
ATOM     19  C   UNL     1     111.154 126.405 139.640  0.00  0.00    +0.000 C 
BRANCH  17  20
ATOM     20  O   UNL     1     111.455 127.410 136.982  0.00  0.00    +0.000 OA
BRANCH  20  25
ATOM     21  O   UNL     1     113.616 127.239 136.727  0.00  0.00    +0.000 OA
ATOM     22  O   UNL     1     111.615 125.783 136.753  0.00  0.00    +0.000 OA
ATOM     23  O   UNL     1     112.427 124.615 136.513  0.00  0.00    +0.000 OA
ATOM     24  O   UNL     1     115.317 124.925 136.243  0.00  0.00    +0.000 OA
ATOM     25  C   UNL     1     112.202 127.082 136.859  0.00  0.00    +0.000 A 
ATOM     26  C   UNL     1     112.869 127.567 136.850  0.00  0.00    +0.000 A 
ATOM     27  C   UNL     1     112.282 126.268 136.744  0.00  0.00    +0.000 A 
ATOM     28  C   UNL     1     113.029 125.940 136.621  0.00  0.00    +0.000 A 
ATOM     29  C   UNL     1     113.696 126.426 136.613  0.00  0.00    +0.000 A 
ATOM     30  C   UNL     1     113.099 125.092 136.503  0.00  0.00    +0.000 A 
ATOM     31  C   UNL     1     114.480 126.097 136.486  0.00  0.00    +0.000 A 
ATOM     32  C   UNL     1     113.875 124.745 136.375  0.00  0.00    +0.000 A 
ATOM     33  C   UNL     1     114.569 125.250 136.366  0.00  0.00    +0.000 A 
BRANCH  26  35
ATOM     34  O   UNL     1     112.550 130.819 137.308  0.00  0.00    +0.000 OA
ATOM     35  C   UNL     1     112.789 128.379 136.964  0.00  0.00    +0.000 A 
ATOM     36  C   UNL     1     112.857 128.698 137.722  0.00  0.00    +0.000 A 
ATOM     37  C   UNL     1     112.641 128.875 136.321  0.00  0.00    +0.000 A 
ATOM     38  C   UNL     1     112.777 129.511 137.837  0.00  0.00    +0.000 A 
ATOM     39  C   UNL     1     112.562 129.688 136.435  0.00  0.00    +0.000 A 
ATOM     40  C   UNL     1     112.630 130.006 137.193  0.00  0.00    +0.000 A 
ENDBRANCH  26  35
ENDBRANCH  20  25
ENDBRANCH  17  20
ENDBRANCH  10  14
ENDBRANCH   5  10
BRANCH   9  41
ATOM     41  C   UNL     1     109.131 129.819 137.823  0.00  0.00    +0.000 C 
BRANCH  41  42
ATOM     42  O   UNL     1     108.903 129.576 138.578  0.00  0.00    +0.000 OA
BRANCH  42  44
ATOM     43  O   UNL     1     108.312 130.549 139.441  0.00  0.00    +0.000 OA
ATOM     44  C   UNL     1     108.963 130.096 139.215  0.00  0.00    +0.000 C 
BRANCH  44  45
ATOM     45  C   UNL     1     109.675 130.162 139.628  0.00  0.00    +0.000 C 
ATOM     46  C   UNL     1     109.683 130.100 140.450  0.00  0.00    +0.000 C 
BRANCH  46  50
ATOM     47  C   UNL     1     111.817 130.299 141.688  0.00  0.00    +0.000 A 
ATOM     48  C   UNL     1     111.414 129.579 141.673  0.00  0.00    +0.000 A 
ATOM     49  C   UNL     1     111.508 130.953 141.291  0.00  0.00    +0.000 A 
ATOM     50  C   UNL     1     110.394 130.167 140.863  0.00  0.00    +0.000 A 
ATOM     51  C   UNL     1     110.703 129.513 141.260  0.00  0.00    +0.000 A 
ATOM     52  C   UNL     1     110.797 130.886 140.878  0.00  0.00    +0.000 A 
BRANCH  47  53
ATOM     53  O   UNL     1     112.528 130.365 142.101  0.00  0.00    +0.000 OA
BRANCH  53  62
ATOM     54  O   UNL     1     113.461 129.615 141.321  0.00  0.00    +0.000 OA
ATOM     55  O   UNL     1     115.397 130.176 140.481  0.00  0.00    +0.000 OA
ATOM     56  O   UNL     1     114.964 131.580 141.231  0.00  0.00    +0.000 OA
ATOM     57  O   UNL     1     113.529 131.675 142.041  0.00  0.00    +0.000 OA
ATOM     58  C   UNL     1     114.679 130.224 140.886  0.00  0.00    +0.000 C 
ATOM     59  C   UNL     1     114.463 130.925 141.261  0.00  0.00    +0.000 C 
ATOM     60  C   UNL     1     114.179 129.569 140.916  0.00  0.00    +0.000 C 
ATOM     61  C   UNL     1     113.746 130.973 141.666  0.00  0.00    +0.000 C 
ATOM     62  C   UNL     1     113.246 130.318 141.696  0.00  0.00    +0.000 C 
BRANCH  60  64
ATOM     63  O   UNL     1     114.347 128.149 140.947  0.00  0.00    +0.000 OA
ATOM     64  C   UNL     1     114.395 128.866 140.541  0.00  0.00    +0.000 C 
ENDBRANCH  60  64
ENDBRANCH  53  62
ENDBRANCH  47  53
ENDBRANCH  46  50
ENDBRANCH  44  45
ENDBRANCH  42  44
ENDBRANCH  41  42
ENDBRANCH   9  41
TORSDOF 13
ENDMDL
MODEL 9
REMARK VINA RESULT:     -10.4      1.181      5.271
REMARK  Name = 44258968
REMARK  13 active torsions:
REMARK  status: ('A' for Active; 'I' for Inactive)
REMARK    1  A    between atoms: O_1  and  C_23
REMARK    2  A    between atoms: O_1  and  C_25
REMARK    3  A    between atoms: O_5  and  C_30
REMARK    4  A    between atoms: O_5  and  C_40
REMARK    5  A    between atoms: O_10  and  C_33
REMARK    6  A    between atoms: O_10  and  C_44
REMARK    7  A    between atoms: O_14  and  C_39
REMARK    8  A    between atoms: O_14  and  C_48
REMARK    9  A    between atoms: C_31  and  C_33
REMARK   10  A    between atoms: C_37  and  C_41
REMARK   11  A    between atoms: C_42  and  C_46
REMARK   12  A    between atoms: C_44  and  C_49
REMARK   13  A    between atoms: C_56  and  C_57
REMARK                            x       y       z     vdW  Elec       q    Type
REMARK                         _______ _______ _______ _____ _____    ______ ____
ROOT
ATOM      1  O   UNL     1     109.836 130.760 137.145  0.00  0.00    +0.000 OA
ATOM      2  O   UNL     1     110.070 132.505 138.434  0.00  0.00    +0.000 OA
ATOM      3  O   UNL     1     108.435 132.497 138.212  0.00  0.00    +0.000 OA
ATOM      4  O   UNL     1     107.734 131.332 137.279  0.00  0.00    +0.000 OA
ATOM      5  C   UNL     1     110.186 131.343 137.612  0.00  0.00    +0.000 C 
ATOM      6  C   UNL     1     109.719 131.922 137.967  0.00  0.00    +0.000 C 
ATOM      7  C   UNL     1     108.901 131.919 137.857  0.00  0.00    +0.000 C 
ATOM      8  C   UNL     1     108.551 131.336 137.390  0.00  0.00    +0.000 C 
ATOM      9  C   UNL     1     109.018 130.756 137.034  0.00  0.00    +0.000 C 
ENDROOT
BRANCH   5  10
ATOM     10  O   UNL     1     111.004 131.347 137.723  0.00  0.00    +0.000 OA
BRANCH  10  14
ATOM     11  O   UNL     1     112.271 129.612 137.340  0.00  0.00    +0.000 OA
ATOM     12  O   UNL     1     111.302 131.528 136.110  0.00  0.00    +0.000 OA
ATOM     13  O   UNL     1     112.247 130.431 135.317  0.00  0.00    +0.000 OA
ATOM     14  C   UNL     1     111.476 130.799 137.326  0.00  0.00    +0.000 C 
ATOM     15  C   UNL     1     111.625 130.889 136.520  0.00  0.00    +0.000 C 
ATOM     16  C   UNL     1     112.097 130.341 136.123  0.00  0.00    +0.000 C 
ATOM     17  C   UNL     1     111.799 130.160 137.736  0.00  0.00    +0.000 C 
ATOM     18  C   UNL     1     112.420 129.702 136.533  0.00  0.00    +0.000 C 
ATOM     19  C   UNL     1     112.892 129.153 136.138  0.00  0.00    +0.000 C 
BRANCH  17  20
ATOM     20  O   UNL     1     111.650 130.070 138.543  0.00  0.00    +0.000 OA
BRANCH  20  25
ATOM     21  O   UNL     1     112.761 128.946 140.047  0.00  0.00    +0.000 OA
ATOM     22  O   UNL     1     113.066 130.916 138.582  0.00  0.00    +0.000 OA
ATOM     23  O   UNL     1     114.396 131.129 139.097  0.00  0.00    +0.000 OA
ATOM     24  O   UNL     1     115.437 129.315 141.134  0.00  0.00    +0.000 OA
ATOM     25  C   UNL     1     112.256 129.836 139.051  0.00  0.00    +0.000 A 
ATOM     26  C   UNL     1     112.154 129.179 139.539  0.00  0.00    +0.000 A 
ATOM     27  C   UNL     1     112.964 130.259 139.070  0.00  0.00    +0.000 A 
ATOM     28  C   UNL     1     113.570 130.025 139.578  0.00  0.00    +0.000 A 
ATOM     29  C   UNL     1     113.469 129.368 140.067  0.00  0.00    +0.000 A 
ATOM     30  C   UNL     1     114.304 130.474 139.589  0.00  0.00    +0.000 A 
ATOM     31  C   UNL     1     114.093 129.115 140.601  0.00  0.00    +0.000 A 
ATOM     32  C   UNL     1     114.939 130.235 140.117  0.00  0.00    +0.000 A 
ATOM     33  C   UNL     1     114.833 129.551 140.625  0.00  0.00    +0.000 A 
BRANCH  26  35
ATOM     34  O   UNL     1     109.323 127.486 139.462  0.00  0.00    +0.000 OA
ATOM     35  C   UNL     1     111.447 128.757 139.520  0.00  0.00    +0.000 A 
ATOM     36  C   UNL     1     111.404 128.043 139.109  0.00  0.00    +0.000 A 
ATOM     37  C   UNL     1     110.781 129.047 139.912  0.00  0.00    +0.000 A 
ATOM     38  C   UNL     1     110.696 127.619 139.090  0.00  0.00    +0.000 A 
ATOM     39  C   UNL     1     110.073 128.624 139.893  0.00  0.00    +0.000 A 
ATOM     40  C   UNL     1     110.030 127.910 139.482  0.00  0.00    +0.000 A 
ENDBRANCH  26  35
ENDBRANCH  20  25
ENDBRANCH  17  20
ENDBRANCH  10  14
ENDBRANCH   5  10
BRANCH   9  41
ATOM     41  C   UNL     1     108.668 130.173 136.567  0.00  0.00    +0.000 C 
BRANCH  41  42
ATOM     42  O   UNL     1     108.815 129.376 136.723  0.00  0.00    +0.000 OA
BRANCH  42  44
ATOM     43  O   UNL     1     108.109 128.937 135.562  0.00  0.00    +0.000 OA
ATOM     44  C   UNL     1     108.687 128.811 136.136  0.00  0.00    +0.000 C 
BRANCH  44  45
ATOM     45  C   UNL     1     109.136 128.119 136.124  0.00  0.00    +0.000 C 
ATOM     46  C   UNL     1     109.370 127.791 135.405  0.00  0.00    +0.000 C 
BRANCH  46  50
ATOM     47  C   UNL     1     110.719 125.716 135.367  0.00  0.00    +0.000 A 
ATOM     48  C   UNL     1     110.864 126.313 134.815  0.00  0.00    +0.000 A 
ATOM     49  C   UNL     1     110.124 125.811 135.930  0.00  0.00    +0.000 A 
ATOM     50  C   UNL     1     109.820 127.099 135.392  0.00  0.00    +0.000 A 
ATOM     51  C   UNL     1     110.415 127.004 134.829  0.00  0.00    +0.000 A 
ATOM     52  C   UNL     1     109.675 126.503 135.943  0.00  0.00    +0.000 A 
BRANCH  47  53
ATOM     53  O   UNL     1     111.169 125.025 135.353  0.00  0.00    +0.000 OA
BRANCH  53  62
ATOM     54  O   UNL     1     112.283 125.510 136.105  0.00  0.00    +0.000 OA
ATOM     55  O   UNL     1     113.512 124.541 137.626  0.00  0.00    +0.000 OA
ATOM     56  O   UNL     1     112.456 123.328 137.259  0.00  0.00    +0.000 OA
ATOM     57  O   UNL     1     111.284 123.570 136.123  0.00  0.00    +0.000 OA
ATOM     58  C   UNL     1     112.926 124.661 137.058  0.00  0.00    +0.000 C 
ATOM     59  C   UNL     1     112.398 124.055 136.874  0.00  0.00    +0.000 C 
ATOM     60  C   UNL     1     112.868 125.389 136.673  0.00  0.00    +0.000 C 
ATOM     61  C   UNL     1     111.812 124.176 136.307  0.00  0.00    +0.000 C 
ATOM     62  C   UNL     1     111.755 124.903 135.922  0.00  0.00    +0.000 C 
BRANCH  60  64
ATOM     63  O   UNL     1     113.931 126.264 136.287  0.00  0.00    +0.000 OA
ATOM     64  C   UNL     1     113.397 125.996 136.856  0.00  0.00    +0.000 C 
ENDBRANCH  60  64
ENDBRANCH  53  62
ENDBRANCH  47  53
ENDBRANCH  46  50
ENDBRANCH  44  45
ENDBRANCH  42  44
ENDBRANCH  41  42
ENDBRANCH   9  41
TORSDOF 13
ENDMDL
MODEL 10
REMARK VINA RESULT:     -10.4      1.751      4.821
REMARK  Name = 44258968
REMARK  13 active torsions:
REMARK  status: ('A' for Active; 'I' for Inactive)
REMARK    1  A    between atoms: O_1  and  C_23
REMARK    2  A    between atoms: O_1  and  C_25
REMARK    3  A    between atoms: O_5  and  C_30
REMARK    4  A    between atoms: O_5  and  C_40
REMARK    5  A    between atoms: O_10  and  C_33
REMARK    6  A    between atoms: O_10  and  C_44
REMARK    7  A    between atoms: O_14  and  C_39
REMARK    8  A    between atoms: O_14  and  C_48
REMARK    9  A    between atoms: C_31  and  C_33
REMARK   10  A    between atoms: C_37  and  C_41
REMARK   11  A    between atoms: C_42  and  C_46
REMARK   12  A    between atoms: C_44  and  C_49
REMARK   13  A    between atoms: C_56  and  C_57
REMARK                            x       y       z     vdW  Elec       q    Type
REMARK                         _______ _______ _______ _____ _____    ______ ____
ROOT
ATOM      1  O   UNL     1     110.472 126.868 136.790  0.00  0.00    +0.000 OA
ATOM      2  O   UNL     1     110.520 126.731 134.612  0.00  0.00    +0.000 OA
ATOM      3  O   UNL     1     108.907 126.540 134.902  0.00  0.00    +0.000 OA
ATOM      4  O   UNL     1     108.338 126.568 136.449  0.00  0.00    +0.000 OA
ATOM      5  C   UNL     1     110.757 126.854 136.015  0.00  0.00    +0.000 C 
ATOM      6  C   UNL     1     110.235 126.745 135.386  0.00  0.00    +0.000 C 
ATOM      7  C   UNL     1     109.428 126.650 135.531  0.00  0.00    +0.000 C 
ATOM      8  C   UNL     1     109.144 126.664 136.305  0.00  0.00    +0.000 C 
ATOM      9  C   UNL     1     109.666 126.773 136.935  0.00  0.00    +0.000 C 
ENDROOT
BRANCH   5  10
ATOM     10  O   UNL     1     111.564 126.950 135.870  0.00  0.00    +0.000 OA
BRANCH  10  14
ATOM     11  O   UNL     1     112.931 127.644 137.424  0.00  0.00    +0.000 OA
ATOM     12  O   UNL     1     112.040 125.515 136.531  0.00  0.00    +0.000 OA
ATOM     13  O   UNL     1     113.110 125.499 137.786  0.00  0.00    +0.000 OA
ATOM     14  C   UNL     1     112.099 126.941 136.498  0.00  0.00    +0.000 C 
ATOM     15  C   UNL     1     112.337 126.224 136.828  0.00  0.00    +0.000 C 
ATOM     16  C   UNL     1     112.872 126.216 137.456  0.00  0.00    +0.000 C 
ATOM     17  C   UNL     1     112.396 127.651 136.796  0.00  0.00    +0.000 C 
ATOM     18  C   UNL     1     113.169 126.926 137.754  0.00  0.00    +0.000 C 
ATOM     19  C   UNL     1     113.704 126.919 138.382  0.00  0.00    +0.000 C 
BRANCH  17  20
ATOM     20  O   UNL     1     112.158 128.369 136.466  0.00  0.00    +0.000 OA
BRANCH  20  25
ATOM     21  O   UNL     1     113.141 130.317 136.512  0.00  0.00    +0.000 OA
ATOM     22  O   UNL     1     113.513 128.056 135.579  0.00  0.00    +0.000 OA
ATOM     23  O   UNL     1     114.761 128.474 134.986  0.00  0.00    +0.000 OA
ATOM     24  O   UNL     1     115.648 131.232 135.346  0.00  0.00    +0.000 OA
ATOM     25  C   UNL     1     112.712 128.966 136.333  0.00  0.00    +0.000 A 
ATOM     26  C   UNL     1     112.588 129.720 136.644  0.00  0.00    +0.000 A 
ATOM     27  C   UNL     1     113.389 128.809 135.890  0.00  0.00    +0.000 A 
ATOM     28  C   UNL     1     113.943 129.406 135.757  0.00  0.00    +0.000 A 
ATOM     29  C   UNL     1     113.819 130.161 136.069  0.00  0.00    +0.000 A 
ATOM     30  C   UNL     1     114.646 129.231 135.293  0.00  0.00    +0.000 A 
ATOM     31  C   UNL     1     114.388 130.791 135.938  0.00  0.00    +0.000 A 
ATOM     32  C   UNL     1     115.226 129.849 135.153  0.00  0.00    +0.000 A 
ATOM     33  C   UNL     1     115.096 130.633 135.477  0.00  0.00    +0.000 A 
BRANCH  26  35
ATOM     34  O   UNL     1     109.877 130.348 138.419  0.00  0.00    +0.000 OA
ATOM     35  C   UNL     1     111.910 129.877 137.088  0.00  0.00    +0.000 A 
ATOM     36  C   UNL     1     111.942 129.851 137.912  0.00  0.00    +0.000 A 
ATOM     37  C   UNL     1     111.201 130.059 136.708  0.00  0.00    +0.000 A 
ATOM     38  C   UNL     1     111.264 130.008 138.356  0.00  0.00    +0.000 A 
ATOM     39  C   UNL     1     110.523 130.216 137.151  0.00  0.00    +0.000 A 
ATOM     40  C   UNL     1     110.554 130.191 137.975  0.00  0.00    +0.000 A 
ENDBRANCH  26  35
ENDBRANCH  20  25
ENDBRANCH  17  20
ENDBRANCH  10  14
ENDBRANCH   5  10
BRANCH   9  41
ATOM     41  C   UNL     1     109.382 126.787 137.708  0.00  0.00    +0.000 C 
BRANCH  41  42
ATOM     42  O   UNL     1     109.836 126.473 138.321  0.00  0.00    +0.000 OA
BRANCH  42  44
ATOM     43  O   UNL     1     108.914 126.145 139.362  0.00  0.00    +0.000 OA
ATOM     44  C   UNL     1     109.585 126.550 139.103  0.00  0.00    +0.000 C 
BRANCH  44  45
ATOM     45  C   UNL     1     110.003 127.032 139.626  0.00  0.00    +0.000 C 
ATOM     46  C   UNL     1     110.351 126.706 140.298  0.00  0.00    +0.000 C 
BRANCH  46  50
ATOM     47  C   UNL     1     111.606 128.153 141.868  0.00  0.00    +0.000 A 
ATOM     48  C   UNL     1     110.874 128.399 141.573  0.00  0.00    +0.000 A 
ATOM     49  C   UNL     1     111.918 127.424 141.639  0.00  0.00    +0.000 A 
ATOM     50  C   UNL     1     110.770 127.188 140.822  0.00  0.00    +0.000 A 
ATOM     51  C   UNL     1     110.457 127.916 141.051  0.00  0.00    +0.000 A 
ATOM     52  C   UNL     1     111.500 126.942 141.115  0.00  0.00    +0.000 A 
BRANCH  47  53
ATOM     53  O   UNL     1     112.023 128.635 142.390  0.00  0.00    +0.000 OA
BRANCH  53  62
ATOM     54  O   UNL     1     113.050 129.125 141.527  0.00  0.00    +0.000 OA
ATOM     55  O   UNL     1     113.828 131.143 141.233  0.00  0.00    +0.000 OA
ATOM     56  O   UNL     1     112.676 131.417 142.381  0.00  0.00    +0.000 OA
ATOM     57  O   UNL     1     111.773 130.163 142.960  0.00  0.00    +0.000 OA
ATOM     58  C   UNL     1     113.377 130.516 141.523  0.00  0.00    +0.000 C 
ATOM     59  C   UNL     1     112.801 130.653 142.097  0.00  0.00    +0.000 C 
ATOM     60  C   UNL     1     113.501 129.752 141.238  0.00  0.00    +0.000 C 
ATOM     61  C   UNL     1     112.350 130.027 142.386  0.00  0.00    +0.000 C 
ATOM     62  C   UNL     1     112.474 129.263 142.101  0.00  0.00    +0.000 C 
BRANCH  60  64
ATOM     63  O   UNL     1     114.732 129.144 140.839  0.00  0.00    +0.000 OA
ATOM     64  C   UNL     1     114.078 129.615 140.663  0.00  0.00    +0.000 C 
ENDBRANCH  60  64
ENDBRANCH  53  62
ENDBRANCH  47  53
ENDBRANCH  46  50
ENDBRANCH  44  45
ENDBRANCH  42  44
ENDBRANCH  41  42
ENDBRANCH   9  41
TORSDOF 13
ENDMDL
