MODEL 1
REMARK VINA RESULT:      -7.5      0.000      0.000
REMARK  Name = 44260086
REMARK  7 active torsions:
REMARK  status: ('A' for Active; 'I' for Inactive)
REMARK    1  A    between atoms: O_2  and  C_14
REMARK    2  A    between atoms: O_3  and  C_15
REMARK    3  A    between atoms: O_4  and  C_19
REMARK    4  A    between atoms: O_5  and  C_20
REMARK    5  A    between atoms: O_8  and  C_23
REMARK    6  A    between atoms: O_10  and  C_25
REMARK    7  A    between atoms: C_13  and  C_18
REMARK                            x       y       z     vdW  Elec       q    Type
REMARK                         _______ _______ _______ _____ _____    ______ ____
ROOT
ATOM      1  O   UNL     1     111.570 131.475 145.221  0.00  0.00    +0.000 OA
ATOM      2  O   UNL     1     112.327 131.841 142.451  0.00  0.00    +0.000 OA
ATOM      3  O   UNL     1     112.361 132.976 143.341  0.00  0.00    +0.000 OA
ATOM      4  C   UNL     1     111.952 131.658 143.818  0.00  0.00    +0.000 A 
ATOM      5  C   UNL     1     111.694 131.167 144.429  0.00  0.00    +0.000 A 
ATOM      6  C   UNL     1     111.715 132.308 145.379  0.00  0.00    +0.000 A 
ATOM      7  C   UNL     1     111.553 130.367 144.282  0.00  0.00    +0.000 A 
ATOM      8  C   UNL     1     111.984 132.820 144.743  0.00  0.00    +0.000 A 
ATOM      9  C   UNL     1     112.104 132.492 143.957  0.00  0.00    +0.000 A 
ATOM     10  C   UNL     1     112.069 131.349 143.061  0.00  0.00    +0.000 A 
ATOM     11  C   UNL     1     111.669 130.059 143.527  0.00  0.00    +0.000 A 
ATOM     12  C   UNL     1     111.927 130.550 142.916  0.00  0.00    +0.000 A 
ENDROOT
BRANCH   6  14
ATOM     13  O   UNL     1     112.923 132.219 146.500  0.00  0.00    +0.000 OA
ATOM     14  C   UNL     1     111.598 132.613 146.136  0.00  0.00    +0.000 A 
ATOM     15  C   UNL     1     112.202 132.569 146.697  0.00  0.00    +0.000 A 
ATOM     16  C   UNL     1     110.878 132.964 146.333  0.00  0.00    +0.000 A 
ATOM     17  C   UNL     1     110.761 133.269 147.090  0.00  0.00    +0.000 A 
ATOM     18  C   UNL     1     112.085 132.874 147.454  0.00  0.00    +0.000 A 
ATOM     19  C   UNL     1     111.365 133.225 147.652  0.00  0.00    +0.000 A 
BRANCH  17  20
ATOM     20  O   UNL     1     110.041 133.619 147.288  0.00  0.00    +0.000 OA
ATOM     21  C   UNL     1     109.345 133.369 146.922  0.00  0.00    +0.000 C 
ENDBRANCH  17  20
BRANCH  19  22
ATOM     22  O   UNL     1     111.248 133.530 148.408  0.00  0.00    +0.000 OA
ATOM     23  C   UNL     1     111.794 133.371 149.006  0.00  0.00    +0.000 C 
ENDBRANCH  19  22
ENDBRANCH   6  14
BRANCH   7  24
ATOM     24  O   UNL     1     111.295 129.876 144.893  0.00  0.00    +0.000 OA
ATOM     25  C   UNL     1     111.812 129.328 145.229  0.00  0.00    +0.000 C 
ENDBRANCH   7  24
BRANCH   8  26
ATOM     26  O   UNL     1     112.127 133.620 144.886  0.00  0.00    +0.000 OA
ATOM     27  C   UNL     1     112.059 134.167 144.272  0.00  0.00    +0.000 C 
ENDBRANCH   8  26
BRANCH  11  28
ATOM     28  O   UNL     1     111.527 129.259 143.380  0.00  0.00    +0.000 OA
ATOM     29  C   UNL     1     110.795 129.016 143.090  0.00  0.00    +0.000 C 
ENDBRANCH  11  28
BRANCH  12  30
ATOM     30  O   UNL     1     112.043 130.241 142.159  0.00  0.00    +0.000 OA
ATOM     31  C   UNL     1     112.809 130.142 141.869  0.00  0.00    +0.000 C 
ENDBRANCH  12  30
TORSDOF 7
ENDMDL
MODEL 2
REMARK VINA RESULT:      -7.4      8.717     10.662
REMARK  Name = 44260086
REMARK  7 active torsions:
REMARK  status: ('A' for Active; 'I' for Inactive)
REMARK    1  A    between atoms: O_2  and  C_14
REMARK    2  A    between atoms: O_3  and  C_15
REMARK    3  A    between atoms: O_4  and  C_19
REMARK    4  A    between atoms: O_5  and  C_20
REMARK    5  A    between atoms: O_8  and  C_23
REMARK    6  A    between atoms: O_10  and  C_25
REMARK    7  A    between atoms: C_13  and  C_18
REMARK                            x       y       z     vdW  Elec       q    Type
REMARK                         _______ _______ _______ _____ _____    ______ ____
ROOT
ATOM      1  O   UNL     1     104.485 124.894 146.985  0.00  0.00    +0.000 OA
ATOM      2  O   UNL     1     103.154 122.864 145.408  0.00  0.00    +0.000 OA
ATOM      3  O   UNL     1     104.376 123.448 144.910  0.00  0.00    +0.000 OA
ATOM      4  C   UNL     1     103.810 123.866 146.189  0.00  0.00    +0.000 A 
ATOM      5  C   UNL     1     103.843 124.336 146.866  0.00  0.00    +0.000 A 
ATOM      6  C   UNL     1     105.102 124.963 146.391  0.00  0.00    +0.000 A 
ATOM      7  C   UNL     1     103.253 124.274 147.440  0.00  0.00    +0.000 A 
ATOM      8  C   UNL     1     105.068 124.473 145.685  0.00  0.00    +0.000 A 
ATOM      9  C   UNL     1     104.417 123.921 145.583  0.00  0.00    +0.000 A 
ATOM     10  C   UNL     1     103.187 123.334 146.085  0.00  0.00    +0.000 A 
ATOM     11  C   UNL     1     102.631 123.742 147.337  0.00  0.00    +0.000 A 
ATOM     12  C   UNL     1     102.598 123.272 146.660  0.00  0.00    +0.000 A 
ENDROOT
BRANCH   6  14
ATOM     13  O   UNL     1     104.906 126.550 145.982  0.00  0.00    +0.000 OA
ATOM     14  C   UNL     1     105.723 125.496 146.497  0.00  0.00    +0.000 A 
ATOM     15  C   UNL     1     105.625 126.289 146.293  0.00  0.00    +0.000 A 
ATOM     16  C   UNL     1     106.442 125.235 146.807  0.00  0.00    +0.000 A 
ATOM     17  C   UNL     1     107.063 125.768 146.913  0.00  0.00    +0.000 A 
ATOM     18  C   UNL     1     106.245 126.821 146.398  0.00  0.00    +0.000 A 
ATOM     19  C   UNL     1     106.965 126.562 146.708  0.00  0.00    +0.000 A 
BRANCH  17  20
ATOM     20  O   UNL     1     107.782 125.508 147.222  0.00  0.00    +0.000 OA
ATOM     21  C   UNL     1     107.792 125.008 147.878  0.00  0.00    +0.000 C 
ENDBRANCH  17  20
BRANCH  19  22
ATOM     22  O   UNL     1     107.585 127.095 146.814  0.00  0.00    +0.000 OA
ATOM     23  C   UNL     1     107.552 127.841 146.464  0.00  0.00    +0.000 C 
ENDBRANCH  19  22
ENDBRANCH   6  14
BRANCH   7  24
ATOM     24  O   UNL     1     103.286 124.743 148.117  0.00  0.00    +0.000 OA
ATOM     25  C   UNL     1     102.772 125.383 148.202  0.00  0.00    +0.000 C 
ENDBRANCH   7  24
BRANCH   8  26
ATOM     26  O   UNL     1     105.656 124.533 145.109  0.00  0.00    +0.000 OA
ATOM     27  C   UNL     1     105.545 124.186 144.369  0.00  0.00    +0.000 C 
ENDBRANCH   8  26
BRANCH  11  28
ATOM     28  O   UNL     1     102.041 123.680 147.911  0.00  0.00    +0.000 OA
ATOM     29  C   UNL     1     102.108 123.120 148.512  0.00  0.00    +0.000 C 
ENDBRANCH  11  28
BRANCH  12  30
ATOM     30  O   UNL     1     101.976 122.740 146.556  0.00  0.00    +0.000 OA
ATOM     31  C   UNL     1     101.385 122.900 146.003  0.00  0.00    +0.000 C 
ENDBRANCH  12  30
TORSDOF 7
ENDMDL
MODEL 3
REMARK VINA RESULT:      -7.3      6.440      8.387
REMARK  Name = 44260086
REMARK  7 active torsions:
REMARK  status: ('A' for Active; 'I' for Inactive)
REMARK    1  A    between atoms: O_2  and  C_14
REMARK    2  A    between atoms: O_3  and  C_15
REMARK    3  A    between atoms: O_4  and  C_19
REMARK    4  A    between atoms: O_5  and  C_20
REMARK    5  A    between atoms: O_8  and  C_23
REMARK    6  A    between atoms: O_10  and  C_25
REMARK    7  A    between atoms: C_13  and  C_18
REMARK                            x       y       z     vdW  Elec       q    Type
REMARK                         _______ _______ _______ _____ _____    ______ ____
ROOT
ATOM      1  O   UNL     1     106.654 126.395 145.656  0.00  0.00    +0.000 OA
ATOM      2  O   UNL     1     105.494 125.619 143.120  0.00  0.00    +0.000 OA
ATOM      3  O   UNL     1     105.272 124.784 144.276  0.00  0.00    +0.000 OA
ATOM      4  C   UNL     1     106.068 126.005 144.372  0.00  0.00    +0.000 A 
ATOM      5  C   UNL     1     106.518 126.531 144.819  0.00  0.00    +0.000 A 
ATOM      6  C   UNL     1     106.315 125.701 146.033  0.00  0.00    +0.000 A 
ATOM      7  C   UNL     1     106.846 127.199 144.463  0.00  0.00    +0.000 A 
ATOM      8  C   UNL     1     105.845 125.152 145.567  0.00  0.00    +0.000 A 
ATOM      9  C   UNL     1     105.721 125.305 144.730  0.00  0.00    +0.000 A 
ATOM     10  C   UNL     1     105.945 126.146 143.568  0.00  0.00    +0.000 A 
ATOM     11  C   UNL     1     106.723 127.341 143.660  0.00  0.00    +0.000 A 
ATOM     12  C   UNL     1     106.272 126.814 143.212  0.00  0.00    +0.000 A 
ENDROOT
BRANCH   6  14
ATOM     13  O   UNL     1     107.693 124.946 146.536  0.00  0.00    +0.000 OA
ATOM     14  C   UNL     1     106.439 125.562 146.837  0.00  0.00    +0.000 A 
ATOM     15  C   UNL     1     107.129 125.184 147.088  0.00  0.00    +0.000 A 
ATOM     16  C   UNL     1     105.874 125.800 147.389  0.00  0.00    +0.000 A 
ATOM     17  C   UNL     1     105.999 125.661 148.193  0.00  0.00    +0.000 A 
ATOM     18  C   UNL     1     107.253 125.045 147.891  0.00  0.00    +0.000 A 
ATOM     19  C   UNL     1     106.689 125.283 148.445  0.00  0.00    +0.000 A 
BRANCH  17  20
ATOM     20  O   UNL     1     105.435 125.898 148.745  0.00  0.00    +0.000 OA
ATOM     21  C   UNL     1     104.991 126.581 148.615  0.00  0.00    +0.000 C 
ENDBRANCH  17  20
BRANCH  19  22
ATOM     22  O   UNL     1     106.814 125.144 149.247  0.00  0.00    +0.000 OA
ATOM     23  C   UNL     1     107.408 124.625 149.489  0.00  0.00    +0.000 C 
ENDBRANCH  19  22
ENDBRANCH   6  14
BRANCH   7  24
ATOM     24  O   UNL     1     107.296 127.726 144.910  0.00  0.00    +0.000 OA
ATOM     25  C   UNL     1     106.963 128.432 145.177  0.00  0.00    +0.000 C 
ENDBRANCH   7  24
BRANCH   8  26
ATOM     26  O   UNL     1     105.516 124.483 145.921  0.00  0.00    +0.000 OA
ATOM     27  C   UNL     1     104.809 124.170 145.633  0.00  0.00    +0.000 C 
ENDBRANCH   8  26
BRANCH  11  28
ATOM     28  O   UNL     1     107.051 128.009 143.303  0.00  0.00    +0.000 OA
ATOM     29  C   UNL     1     107.779 127.958 142.920  0.00  0.00    +0.000 C 
ENDBRANCH  11  28
BRANCH  12  30
ATOM     30  O   UNL     1     106.149 126.956 142.408  0.00  0.00    +0.000 OA
ATOM     31  C   UNL     1     105.419 127.236 142.147  0.00  0.00    +0.000 C 
ENDBRANCH  12  30
TORSDOF 7
ENDMDL
MODEL 4
REMARK VINA RESULT:      -7.3      8.343     10.270
REMARK  Name = 44260086
REMARK  7 active torsions:
REMARK  status: ('A' for Active; 'I' for Inactive)
REMARK    1  A    between atoms: O_2  and  C_14
REMARK    2  A    between atoms: O_3  and  C_15
REMARK    3  A    between atoms: O_4  and  C_19
REMARK    4  A    between atoms: O_5  and  C_20
REMARK    5  A    between atoms: O_8  and  C_23
REMARK    6  A    between atoms: O_10  and  C_25
REMARK    7  A    between atoms: C_13  and  C_18
REMARK                            x       y       z     vdW  Elec       q    Type
REMARK                         _______ _______ _______ _____ _____    ______ ____
ROOT
ATOM      1  O   UNL     1     113.579 127.647 136.304  0.00  0.00    +0.000 OA
ATOM      2  O   UNL     1     110.996 126.429 135.828  0.00  0.00    +0.000 OA
ATOM      3  O   UNL     1     111.203 127.804 135.441  0.00  0.00    +0.000 OA
ATOM      4  C   UNL     1     112.272 127.028 136.064  0.00  0.00    +0.000 A 
ATOM      5  C   UNL     1     113.046 126.974 136.346  0.00  0.00    +0.000 A 
ATOM      6  C   UNL     1     113.302 128.386 135.964  0.00  0.00    +0.000 A 
ATOM      7  C   UNL     1     113.316 126.267 136.674  0.00  0.00    +0.000 A 
ATOM      8  C   UNL     1     112.496 128.442 135.670  0.00  0.00    +0.000 A 
ATOM      9  C   UNL     1     111.977 127.758 135.720  0.00  0.00    +0.000 A 
ATOM     10  C   UNL     1     111.770 126.375 136.110  0.00  0.00    +0.000 A 
ATOM     11  C   UNL     1     112.815 125.614 136.720  0.00  0.00    +0.000 A 
ATOM     12  C   UNL     1     112.041 125.668 136.438  0.00  0.00    +0.000 A 
ENDROOT
BRANCH   6  14
ATOM     13  O   UNL     1     114.361 128.524 134.706  0.00  0.00    +0.000 OA
ATOM     14  C   UNL     1     113.806 129.037 135.919  0.00  0.00    +0.000 A 
ATOM     15  C   UNL     1     114.336 129.106 135.290  0.00  0.00    +0.000 A 
ATOM     16  C   UNL     1     113.781 129.619 136.503  0.00  0.00    +0.000 A 
ATOM     17  C   UNL     1     114.286 130.271 136.459  0.00  0.00    +0.000 A 
ATOM     18  C   UNL     1     114.840 129.757 135.245  0.00  0.00    +0.000 A 
ATOM     19  C   UNL     1     114.816 130.340 135.829  0.00  0.00    +0.000 A 
BRANCH  17  20
ATOM     20  O   UNL     1     114.261 130.853 137.042  0.00  0.00    +0.000 OA
ATOM     21  C   UNL     1     114.052 130.655 137.815  0.00  0.00    +0.000 C 
ENDBRANCH  17  20
BRANCH  19  22
ATOM     22  O   UNL     1     115.320 130.990 135.784  0.00  0.00    +0.000 OA
ATOM     23  C   UNL     1     115.710 131.162 135.078  0.00  0.00    +0.000 C 
ENDBRANCH  19  22
ENDBRANCH   6  14
BRANCH   7  24
ATOM     24  O   UNL     1     114.090 126.213 136.956  0.00  0.00    +0.000 OA
ATOM     25  C   UNL     1     114.234 126.208 137.769  0.00  0.00    +0.000 C 
ENDBRANCH   7  24
BRANCH   8  26
ATOM     26  O   UNL     1     112.222 129.148 135.341  0.00  0.00    +0.000 OA
ATOM     27  C   UNL     1     111.412 129.297 135.302  0.00  0.00    +0.000 C 
ENDBRANCH   8  26
BRANCH  11  28
ATOM     28  O   UNL     1     113.085 124.907 137.048  0.00  0.00    +0.000 OA
ATOM     29  C   UNL     1     113.407 124.324 136.563  0.00  0.00    +0.000 C 
ENDBRANCH  11  28
BRANCH  12  30
ATOM     30  O   UNL     1     111.538 125.015 136.484  0.00  0.00    +0.000 OA
ATOM     31  C   UNL     1     110.945 124.992 137.056  0.00  0.00    +0.000 C 
ENDBRANCH  12  30
TORSDOF 7
ENDMDL
MODEL 5
REMARK VINA RESULT:      -7.2      6.992     10.415
REMARK  Name = 44260086
REMARK  7 active torsions:
REMARK  status: ('A' for Active; 'I' for Inactive)
REMARK    1  A    between atoms: O_2  and  C_14
REMARK    2  A    between atoms: O_3  and  C_15
REMARK    3  A    between atoms: O_4  and  C_19
REMARK    4  A    between atoms: O_5  and  C_20
REMARK    5  A    between atoms: O_8  and  C_23
REMARK    6  A    between atoms: O_10  and  C_25
REMARK    7  A    between atoms: C_13  and  C_18
REMARK                            x       y       z     vdW  Elec       q    Type
REMARK                         _______ _______ _______ _____ _____    ______ ____
ROOT
ATOM      1  O   UNL     1     105.513 125.837 141.261  0.00  0.00    +0.000 OA
ATOM      2  O   UNL     1     107.970 126.535 142.622  0.00  0.00    +0.000 OA
ATOM      3  O   UNL     1     107.939 125.350 141.798  0.00  0.00    +0.000 OA
ATOM      4  C   UNL     1     106.755 126.192 141.951  0.00  0.00    +0.000 A 
ATOM      5  C   UNL     1     105.965 126.353 141.778  0.00  0.00    +0.000 A 
ATOM      6  C   UNL     1     105.889 125.144 140.920  0.00  0.00    +0.000 A 
ATOM      7  C   UNL     1     105.599 127.018 142.102  0.00  0.00    +0.000 A 
ATOM      8  C   UNL     1     106.713 124.976 141.100  0.00  0.00    +0.000 A 
ATOM      9  C   UNL     1     107.149 125.504 141.620  0.00  0.00    +0.000 A 
ATOM     10  C   UNL     1     107.180 126.696 142.449  0.00  0.00    +0.000 A 
ATOM     11  C   UNL     1     106.023 127.521 142.600  0.00  0.00    +0.000 A 
ATOM     12  C   UNL     1     106.813 127.360 142.773  0.00  0.00    +0.000 A 
ENDROOT
BRANCH   6  14
ATOM     13  O   UNL     1     105.797 125.467 139.304  0.00  0.00    +0.000 OA
ATOM     14  C   UNL     1     105.463 124.642 140.422  0.00  0.00    +0.000 A 
ATOM     15  C   UNL     1     105.417 124.804 139.614  0.00  0.00    +0.000 A 
ATOM     16  C   UNL     1     105.082 123.979 140.732  0.00  0.00    +0.000 A 
ATOM     17  C   UNL     1     104.656 123.478 140.235  0.00  0.00    +0.000 A 
ATOM     18  C   UNL     1     104.991 124.303 139.117  0.00  0.00    +0.000 A 
ATOM     19  C   UNL     1     104.610 123.640 139.426  0.00  0.00    +0.000 A 
BRANCH  17  20
ATOM     20  O   UNL     1     104.276 122.815 140.544  0.00  0.00    +0.000 OA
ATOM     21  C   UNL     1     104.173 122.740 141.359  0.00  0.00    +0.000 C 
ENDBRANCH  17  20
BRANCH  19  22
ATOM     22  O   UNL     1     104.185 123.139 138.929  0.00  0.00    +0.000 OA
ATOM     23  C   UNL     1     104.054 123.352 138.143  0.00  0.00    +0.000 C 
ENDBRANCH  19  22
ENDBRANCH   6  14
BRANCH   7  24
ATOM     24  O   UNL     1     104.809 127.179 141.929  0.00  0.00    +0.000 OA
ATOM     25  C   UNL     1     104.617 127.764 141.380  0.00  0.00    +0.000 C 
ENDBRANCH   7  24
BRANCH   8  26
ATOM     26  O   UNL     1     107.082 124.312 140.777  0.00  0.00    +0.000 OA
ATOM     27  C   UNL     1     107.785 124.031 141.105  0.00  0.00    +0.000 C 
ENDBRANCH   8  26
BRANCH  11  28
ATOM     28  O   UNL     1     105.657 128.185 142.925  0.00  0.00    +0.000 OA
ATOM     29  C   UNL     1     105.309 128.142 143.671  0.00  0.00    +0.000 C 
ENDBRANCH  11  28
BRANCH  12  30
ATOM     30  O   UNL     1     107.237 127.863 143.271  0.00  0.00    +0.000 OA
ATOM     31  C   UNL     1     107.814 128.363 142.958  0.00  0.00    +0.000 C 
ENDBRANCH  12  30
TORSDOF 7
ENDMDL
MODEL 6
REMARK VINA RESULT:      -7.2      6.970      8.317
REMARK  Name = 44260086
REMARK  7 active torsions:
REMARK  status: ('A' for Active; 'I' for Inactive)
REMARK    1  A    between atoms: O_2  and  C_14
REMARK    2  A    between atoms: O_3  and  C_15
REMARK    3  A    between atoms: O_4  and  C_19
REMARK    4  A    between atoms: O_5  and  C_20
REMARK    5  A    between atoms: O_8  and  C_23
REMARK    6  A    between atoms: O_10  and  C_25
REMARK    7  A    between atoms: C_13  and  C_18
REMARK                            x       y       z     vdW  Elec       q    Type
REMARK                         _______ _______ _______ _____ _____    ______ ____
ROOT
ATOM      1  O   UNL     1     106.323 125.470 145.700  0.00  0.00    +0.000 OA
ATOM      2  O   UNL     1     106.261 127.841 144.040  0.00  0.00    +0.000 OA
ATOM      3  O   UNL     1     106.549 127.979 145.448  0.00  0.00    +0.000 OA
ATOM      4  C   UNL     1     106.291 126.669 144.858  0.00  0.00    +0.000 A 
ATOM      5  C   UNL     1     106.217 125.851 144.937  0.00  0.00    +0.000 A 
ATOM      6  C   UNL     1     106.509 125.948 146.390  0.00  0.00    +0.000 A 
ATOM      7  C   UNL     1     106.038 125.388 144.278  0.00  0.00    +0.000 A 
ATOM      8  C   UNL     1     106.587 126.800 146.307  0.00  0.00    +0.000 A 
ATOM      9  C   UNL     1     106.477 127.163 145.536  0.00  0.00    +0.000 A 
ATOM     10  C   UNL     1     106.186 127.023 144.120  0.00  0.00    +0.000 A 
ATOM     11  C   UNL     1     105.934 125.742 143.541  0.00  0.00    +0.000 A 
ATOM     12  C   UNL     1     106.008 126.559 143.461  0.00  0.00    +0.000 A 
ENDROOT
BRANCH   6  14
ATOM     13  O   UNL     1     107.987 125.353 146.817  0.00  0.00    +0.000 OA
ATOM     14  C   UNL     1     106.613 125.591 147.126  0.00  0.00    +0.000 A 
ATOM     15  C   UNL     1     107.352 125.293 147.340  0.00  0.00    +0.000 A 
ATOM     16  C   UNL     1     105.977 125.532 147.649  0.00  0.00    +0.000 A 
ATOM     17  C   UNL     1     106.081 125.175 148.386  0.00  0.00    +0.000 A 
ATOM     18  C   UNL     1     107.456 124.937 148.076  0.00  0.00    +0.000 A 
ATOM     19  C   UNL     1     106.821 124.877 148.600  0.00  0.00    +0.000 A 
BRANCH  17  20
ATOM     20  O   UNL     1     105.447 125.115 148.909  0.00  0.00    +0.000 OA
ATOM     21  C   UNL     1     104.675 125.079 148.620  0.00  0.00    +0.000 C 
ENDBRANCH  17  20
BRANCH  19  22
ATOM     22  O   UNL     1     106.925 124.520 149.335  0.00  0.00    +0.000 OA
ATOM     23  C   UNL     1     107.684 124.329 149.598  0.00  0.00    +0.000 C 
ENDBRANCH  19  22
ENDBRANCH   6  14
BRANCH   7  24
ATOM     24  O   UNL     1     105.963 124.570 144.357  0.00  0.00    +0.000 OA
ATOM     25  C   UNL     1     105.216 124.227 144.418  0.00  0.00    +0.000 C 
ENDBRANCH   7  24
BRANCH   8  26
ATOM     26  O   UNL     1     106.765 127.266 146.964  0.00  0.00    +0.000 OA
ATOM     27  C   UNL     1     106.537 128.059 146.982  0.00  0.00    +0.000 C 
ENDBRANCH   8  26
BRANCH  11  28
ATOM     28  O   UNL     1     105.755 125.278 142.881  0.00  0.00    +0.000 OA
ATOM     29  C   UNL     1     106.358 125.021 142.382  0.00  0.00    +0.000 C 
ENDBRANCH  11  28
BRANCH  12  30
ATOM     30  O   UNL     1     105.904 126.914 142.723  0.00  0.00    +0.000 OA
ATOM     31  C   UNL     1     105.255 127.406 142.591  0.00  0.00    +0.000 C 
ENDBRANCH  12  30
TORSDOF 7
ENDMDL
MODEL 7
REMARK VINA RESULT:      -7.1      8.228     10.201
REMARK  Name = 44260086
REMARK  7 active torsions:
REMARK  status: ('A' for Active; 'I' for Inactive)
REMARK    1  A    between atoms: O_2  and  C_14
REMARK    2  A    between atoms: O_3  and  C_15
REMARK    3  A    between atoms: O_4  and  C_19
REMARK    4  A    between atoms: O_5  and  C_20
REMARK    5  A    between atoms: O_8  and  C_23
REMARK    6  A    between atoms: O_10  and  C_25
REMARK    7  A    between atoms: C_13  and  C_18
REMARK                            x       y       z     vdW  Elec       q    Type
REMARK                         _______ _______ _______ _____ _____    ______ ____
ROOT
ATOM      1  O   UNL     1     111.832 127.186 136.337  0.00  0.00    +0.000 OA
ATOM      2  O   UNL     1     114.557 126.216 136.433  0.00  0.00    +0.000 OA
ATOM      3  O   UNL     1     114.313 127.574 136.010  0.00  0.00    +0.000 OA
ATOM      4  C   UNL     1     113.210 126.693 136.387  0.00  0.00    +0.000 A 
ATOM      5  C   UNL     1     112.402 126.564 136.494  0.00  0.00    +0.000 A 
ATOM      6  C   UNL     1     112.106 127.954 136.065  0.00  0.00    +0.000 A 
ATOM      7  C   UNL     1     112.134 125.828 136.755  0.00  0.00    +0.000 A 
ATOM      8  C   UNL     1     112.948 128.089 135.953  0.00  0.00    +0.000 A 
ATOM      9  C   UNL     1     113.504 127.453 136.115  0.00  0.00    +0.000 A 
ATOM     10  C   UNL     1     113.749 126.086 136.541  0.00  0.00    +0.000 A 
ATOM     11  C   UNL     1     112.672 125.223 136.909  0.00  0.00    +0.000 A 
ATOM     12  C   UNL     1     113.480 125.352 136.802  0.00  0.00    +0.000 A 
ENDROOT
BRANCH   6  14
ATOM     13  O   UNL     1     111.325 128.013 134.612  0.00  0.00    +0.000 OA
ATOM     14  C   UNL     1     111.565 128.558 135.911  0.00  0.00    +0.000 A 
ATOM     15  C   UNL     1     111.175 128.588 135.185  0.00  0.00    +0.000 A 
ATOM     16  C   UNL     1     111.415 129.132 136.484  0.00  0.00    +0.000 A 
ATOM     17  C   UNL     1     110.874 129.736 136.331  0.00  0.00    +0.000 A 
ATOM     18  C   UNL     1     110.634 129.191 135.032  0.00  0.00    +0.000 A 
ATOM     19  C   UNL     1     110.483 129.766 135.604  0.00  0.00    +0.000 A 
BRANCH  17  20
ATOM     20  O   UNL     1     110.724 130.311 136.903  0.00  0.00    +0.000 OA
ATOM     21  C   UNL     1     110.814 130.131 137.703  0.00  0.00    +0.000 C 
ENDBRANCH  17  20
BRANCH  19  22
ATOM     22  O   UNL     1     109.943 130.369 135.451  0.00  0.00    +0.000 OA
ATOM     23  C   UNL     1     109.567 130.410 134.717  0.00  0.00    +0.000 C 
ENDBRANCH  19  22
ENDBRANCH   6  14
BRANCH   7  24
ATOM     24  O   UNL     1     111.326 125.699 136.862  0.00  0.00    +0.000 OA
ATOM     25  C   UNL     1     111.002 125.715 137.621  0.00  0.00    +0.000 C 
ENDBRANCH   7  24
BRANCH   8  26
ATOM     26  O   UNL     1     113.220 128.822 135.692  0.00  0.00    +0.000 OA
ATOM     27  C   UNL     1     114.015 129.024 135.784  0.00  0.00    +0.000 C 
ENDBRANCH   8  26
BRANCH  11  28
ATOM     28  O   UNL     1     112.403 124.488 137.170  0.00  0.00    +0.000 OA
ATOM     29  C   UNL     1     112.239 123.891 136.626  0.00  0.00    +0.000 C 
ENDBRANCH  11  28
BRANCH  12  30
ATOM     30  O   UNL     1     114.019 124.746 136.956  0.00  0.00    +0.000 OA
ATOM     31  C   UNL     1     114.560 124.823 137.574  0.00  0.00    +0.000 C 
ENDBRANCH  12  30
TORSDOF 7
ENDMDL
MODEL 8
REMARK VINA RESULT:      -7.1      5.478      9.333
REMARK  Name = 44260086
REMARK  7 active torsions:
REMARK  status: ('A' for Active; 'I' for Inactive)
REMARK    1  A    between atoms: O_2  and  C_14
REMARK    2  A    between atoms: O_3  and  C_15
REMARK    3  A    between atoms: O_4  and  C_19
REMARK    4  A    between atoms: O_5  and  C_20
REMARK    5  A    between atoms: O_8  and  C_23
REMARK    6  A    between atoms: O_10  and  C_25
REMARK    7  A    between atoms: C_13  and  C_18
REMARK                            x       y       z     vdW  Elec       q    Type
REMARK                         _______ _______ _______ _____ _____    ______ ____
ROOT
ATOM      1  O   UNL     1     113.163 127.091 138.882  0.00  0.00    +0.000 OA
ATOM      2  O   UNL     1     113.313 129.925 138.312  0.00  0.00    +0.000 OA
ATOM      3  O   UNL     1     113.077 129.005 137.226  0.00  0.00    +0.000 OA
ATOM      4  C   UNL     1     113.239 128.526 138.596  0.00  0.00    +0.000 A 
ATOM      5  C   UNL     1     113.268 127.904 139.138  0.00  0.00    +0.000 A 
ATOM      6  C   UNL     1     113.027 126.923 138.050  0.00  0.00    +0.000 A 
ATOM      7  C   UNL     1     113.398 128.061 139.937  0.00  0.00    +0.000 A 
ATOM      8  C   UNL     1     112.997 127.571 137.485  0.00  0.00    +0.000 A 
ATOM      9  C   UNL     1     113.104 128.378 137.760  0.00  0.00    +0.000 A 
ATOM     10  C   UNL     1     113.341 129.304 138.854  0.00  0.00    +0.000 A 
ATOM     11  C   UNL     1     113.500 128.837 140.195  0.00  0.00    +0.000 A 
ATOM     12  C   UNL     1     113.472 129.458 139.654  0.00  0.00    +0.000 A 
ENDROOT
BRANCH   6  14
ATOM     13  O   UNL     1     111.543 126.209 138.150  0.00  0.00    +0.000 OA
ATOM     14  C   UNL     1     112.925 126.145 137.795  0.00  0.00    +0.000 A 
ATOM     15  C   UNL     1     112.183 125.788 137.845  0.00  0.00    +0.000 A 
ATOM     16  C   UNL     1     113.566 125.724 137.490  0.00  0.00    +0.000 A 
ATOM     17  C   UNL     1     113.464 124.946 137.235  0.00  0.00    +0.000 A 
ATOM     18  C   UNL     1     112.081 125.011 137.590  0.00  0.00    +0.000 A 
ATOM     19  C   UNL     1     112.721 124.588 137.284  0.00  0.00    +0.000 A 
BRANCH  17  20
ATOM     20  O   UNL     1     114.104 124.524 136.929  0.00  0.00    +0.000 OA
ATOM     21  C   UNL     1     114.866 124.670 137.210  0.00  0.00    +0.000 C 
ENDBRANCH  17  20
BRANCH  19  22
ATOM     22  O   UNL     1     112.619 123.811 137.030  0.00  0.00    +0.000 OA
ATOM     23  C   UNL     1     111.860 123.499 136.950  0.00  0.00    +0.000 C 
ENDBRANCH  19  22
ENDBRANCH   6  14
BRANCH   7  24
ATOM     24  O   UNL     1     113.427 127.439 140.479  0.00  0.00    +0.000 OA
ATOM     25  C   UNL     1     114.154 127.163 140.753  0.00  0.00    +0.000 C 
ENDBRANCH   7  24
BRANCH   8  26
ATOM     26  O   UNL     1     112.867 127.418 136.685  0.00  0.00    +0.000 OA
ATOM     27  C   UNL     1     113.090 127.974 136.117  0.00  0.00    +0.000 C 
ENDBRANCH   8  26
BRANCH  11  28
ATOM     28  O   UNL     1     113.631 128.993 140.995  0.00  0.00    +0.000 OA
ATOM     29  C   UNL     1     112.995 129.162 141.492  0.00  0.00    +0.000 C 
ENDBRANCH  11  28
BRANCH  12  30
ATOM     30  O   UNL     1     113.574 130.236 139.912  0.00  0.00    +0.000 OA
ATOM     31  C   UNL     1     114.292 130.622 139.784  0.00  0.00    +0.000 C 
ENDBRANCH  12  30
TORSDOF 7
ENDMDL
MODEL 9
REMARK VINA RESULT:      -7.1      8.787     10.561
REMARK  Name = 44260086
REMARK  7 active torsions:
REMARK  status: ('A' for Active; 'I' for Inactive)
REMARK    1  A    between atoms: O_2  and  C_14
REMARK    2  A    between atoms: O_3  and  C_15
REMARK    3  A    between atoms: O_4  and  C_19
REMARK    4  A    between atoms: O_5  and  C_20
REMARK    5  A    between atoms: O_8  and  C_23
REMARK    6  A    between atoms: O_10  and  C_25
REMARK    7  A    between atoms: C_13  and  C_18
REMARK                            x       y       z     vdW  Elec       q    Type
REMARK                         _______ _______ _______ _____ _____    ______ ____
ROOT
ATOM      1  O   UNL     1     104.464 125.212 146.899  0.00  0.00    +0.000 OA
ATOM      2  O   UNL     1     102.544 124.492 148.942  0.00  0.00    +0.000 OA
ATOM      3  O   UNL     1     103.606 125.412 149.273  0.00  0.00    +0.000 OA
ATOM      4  C   UNL     1     103.491 124.846 147.932  0.00  0.00    +0.000 A 
ATOM      5  C   UNL     1     103.769 124.779 147.157  0.00  0.00    +0.000 A 
ATOM      6  C   UNL     1     104.877 125.722 147.455  0.00  0.00    +0.000 A 
ATOM      7  C   UNL     1     103.376 124.292 146.620  0.00  0.00    +0.000 A 
ATOM      8  C   UNL     1     104.588 125.791 148.262  0.00  0.00    +0.000 A 
ATOM      9  C   UNL     1     103.890 125.350 148.502  0.00  0.00    +0.000 A 
ATOM     10  C   UNL     1     102.821 124.425 148.168  0.00  0.00    +0.000 A 
ATOM     11  C   UNL     1     102.707 123.871 146.855  0.00  0.00    +0.000 A 
ATOM     12  C   UNL     1     102.430 123.938 147.630  0.00  0.00    +0.000 A 
ENDROOT
BRANCH   6  14
ATOM     13  O   UNL     1     104.710 127.162 146.669  0.00  0.00    +0.000 OA
ATOM     14  C   UNL     1     105.546 126.141 147.217  0.00  0.00    +0.000 A 
ATOM     15  C   UNL     1     105.463 126.861 146.823  0.00  0.00    +0.000 A 
ATOM     16  C   UNL     1     106.299 125.840 147.371  0.00  0.00    +0.000 A 
ATOM     17  C   UNL     1     106.968 126.259 147.133  0.00  0.00    +0.000 A 
ATOM     18  C   UNL     1     106.131 127.281 146.585  0.00  0.00    +0.000 A 
ATOM     19  C   UNL     1     106.884 126.981 146.739  0.00  0.00    +0.000 A 
BRANCH  17  20
ATOM     20  O   UNL     1     107.720 125.959 147.287  0.00  0.00    +0.000 OA
ATOM     21  C   UNL     1     107.809 125.185 147.556  0.00  0.00    +0.000 C 
ENDBRANCH  17  20
BRANCH  19  22
ATOM     22  O   UNL     1     107.553 127.400 146.500  0.00  0.00    +0.000 OA
ATOM     23  C   UNL     1     107.475 128.166 146.203  0.00  0.00    +0.000 C 
ENDBRANCH  19  22
ENDBRANCH   6  14
BRANCH   7  24
ATOM     24  O   UNL     1     103.654 124.225 145.846  0.00  0.00    +0.000 OA
ATOM     25  C   UNL     1     104.075 123.554 145.615  0.00  0.00    +0.000 C 
ENDBRANCH   7  24
BRANCH   8  26
ATOM     26  O   UNL     1     104.978 126.278 148.802  0.00  0.00    +0.000 OA
ATOM     27  C   UNL     1     104.906 126.136 149.612  0.00  0.00    +0.000 C 
ENDBRANCH   8  26
BRANCH  11  28
ATOM     28  O   UNL     1     102.315 123.384 146.318  0.00  0.00    +0.000 OA
ATOM     29  C   UNL     1     101.649 123.661 145.918  0.00  0.00    +0.000 C 
ENDBRANCH  11  28
BRANCH  12  30
ATOM     30  O   UNL     1     101.760 123.517 147.866  0.00  0.00    +0.000 OA
ATOM     31  C   UNL     1     101.835 122.884 148.389  0.00  0.00    +0.000 C 
ENDBRANCH  12  30
TORSDOF 7
ENDMDL
MODEL 10
REMARK VINA RESULT:      -7.0      8.910     10.700
REMARK  Name = 44260086
REMARK  7 active torsions:
REMARK  status: ('A' for Active; 'I' for Inactive)
REMARK    1  A    between atoms: O_2  and  C_14
REMARK    2  A    between atoms: O_3  and  C_15
REMARK    3  A    between atoms: O_4  and  C_19
REMARK    4  A    between atoms: O_5  and  C_20
REMARK    5  A    between atoms: O_8  and  C_23
REMARK    6  A    between atoms: O_10  and  C_25
REMARK    7  A    between atoms: C_13  and  C_18
REMARK                            x       y       z     vdW  Elec       q    Type
REMARK                         _______ _______ _______ _____ _____    ______ ____
ROOT
ATOM      1  O   UNL     1     111.742 127.097 136.288  0.00  0.00    +0.000 OA
ATOM      2  O   UNL     1     111.525 124.241 135.871  0.00  0.00    +0.000 OA
ATOM      3  O   UNL     1     110.500 125.106 135.338  0.00  0.00    +0.000 OA
ATOM      4  C   UNL     1     111.635 125.651 136.078  0.00  0.00    +0.000 A 
ATOM      5  C   UNL     1     112.041 126.299 136.389  0.00  0.00    +0.000 A 
ATOM      6  C   UNL     1     111.009 127.224 135.858  0.00  0.00    +0.000 A 
ATOM      7  C   UNL     1     112.746 126.182 136.803  0.00  0.00    +0.000 A 
ATOM      8  C   UNL     1     110.585 126.550 135.534  0.00  0.00    +0.000 A 
ATOM      9  C   UNL     1     110.900 125.758 135.645  0.00  0.00    +0.000 A 
ATOM     10  C   UNL     1     111.932 124.888 136.182  0.00  0.00    +0.000 A 
ATOM     11  C   UNL     1     113.043 125.421 136.907  0.00  0.00    +0.000 A 
ATOM     12  C   UNL     1     112.636 124.773 136.596  0.00  0.00    +0.000 A 
ENDROOT
BRANCH   6  14
ATOM     13  O   UNL     1     111.554 128.160 134.612  0.00  0.00    +0.000 OA
ATOM     14  C   UNL     1     110.714 127.988 135.756  0.00  0.00    +0.000 A 
ATOM     15  C   UNL     1     110.986 128.456 135.133  0.00  0.00    +0.000 A 
ATOM     16  C   UNL     1     110.146 128.284 136.276  0.00  0.00    +0.000 A 
ATOM     17  C   UNL     1     109.851 129.047 136.174  0.00  0.00    +0.000 A 
ATOM     18  C   UNL     1     110.691 129.218 135.031  0.00  0.00    +0.000 A 
ATOM     19  C   UNL     1     110.124 129.516 135.551  0.00  0.00    +0.000 A 
BRANCH  17  20
ATOM     20  O   UNL     1     109.283 129.344 136.694  0.00  0.00    +0.000 OA
ATOM     21  C   UNL     1     109.325 129.163 137.498  0.00  0.00    +0.000 C 
ENDBRANCH  17  20
BRANCH  19  22
ATOM     22  O   UNL     1     109.829 130.278 135.449  0.00  0.00    +0.000 OA
ATOM     23  C   UNL     1     109.706 130.575 134.689  0.00  0.00    +0.000 C 
ENDBRANCH  19  22
ENDBRANCH   6  14
BRANCH   7  24
ATOM     24  O   UNL     1     113.152 126.829 137.114  0.00  0.00    +0.000 OA
ATOM     25  C   UNL     1     113.099 127.003 137.918  0.00  0.00    +0.000 C 
ENDBRANCH   7  24
BRANCH   8  26
ATOM     26  O   UNL     1     109.880 126.662 135.119  0.00  0.00    +0.000 OA
ATOM     27  C   UNL     1     109.355 126.034 135.021  0.00  0.00    +0.000 C 
ENDBRANCH   8  26
BRANCH  11  28
ATOM     28  O   UNL     1     113.747 125.304 137.321  0.00  0.00    +0.000 OA
ATOM     29  C   UNL     1     114.461 125.241 136.912  0.00  0.00    +0.000 C 
ENDBRANCH  11  28
BRANCH  12  30
ATOM     30  O   UNL     1     112.934 124.010 136.699  0.00  0.00    +0.000 OA
ATOM     31  C   UNL     1     112.520 123.466 137.162  0.00  0.00    +0.000 C 
ENDBRANCH  12  30
TORSDOF 7
ENDMDL
