MODEL 1
REMARK VINA RESULT:     -10.5      0.000      0.000
REMARK  Name = 42607975
REMARK  3 active torsions:
REMARK  status: ('A' for Active; 'I' for Inactive)
REMARK    1  A    between atoms: C_13  and  C_17
REMARK    2  A    between atoms: C_16  and  C_18
REMARK    3  A    between atoms: C_23  and  C_27
REMARK                            x       y       z     vdW  Elec       q    Type
REMARK                         _______ _______ _______ _____ _____    ______ ____
ROOT
ATOM      1  O   UNL     1     104.275 124.855 139.276  0.00  0.00    +0.000 OA
ATOM      2  O   UNL     1     106.133 124.324 141.430  0.00  0.00    +0.000 OA
ATOM      3  O   UNL     1     105.112 126.966 141.049  0.00  0.00    +0.000 OA
ATOM      4  O   UNL     1     105.739 123.240 140.564  0.00  0.00    +0.000 OA
ATOM      5  C   UNL     1     105.623 125.645 141.240  0.00  0.00    +0.000 A 
ATOM      6  C   UNL     1     105.657 124.853 141.012  0.00  0.00    +0.000 A 
ATOM      7  C   UNL     1     105.147 126.174 140.823  0.00  0.00    +0.000 A 
ATOM      8  C   UNL     1     105.216 124.589 140.368  0.00  0.00    +0.000 A 
ATOM      9  C   UNL     1     104.740 125.118 139.950  0.00  0.00    +0.000 A 
ATOM     10  C   UNL     1     104.307 124.031 139.034  0.00  0.00    +0.000 C 
ATOM     11  C   UNL     1     104.705 125.910 140.177  0.00  0.00    +0.000 A 
ATOM     12  C   UNL     1     104.803 123.481 139.469  0.00  0.00    +0.000 C 
ATOM     13  C   UNL     1     105.260 123.761 140.140  0.00  0.00    +0.000 C 
ENDROOT
BRANCH   5  19
ATOM     14  O   UNL     1     105.745 125.874 142.646  0.00  0.00    +0.000 OA
ATOM     15  O   UNL     1     107.143 126.243 141.010  0.00  0.00    +0.000 OA
ATOM     16  O   UNL     1     108.026 126.771 142.300  0.00  0.00    +0.000 OA
ATOM     17  O   UNL     1     107.389 126.701 143.820  0.00  0.00    +0.000 OA
ATOM     18  C   UNL     1     106.824 126.208 141.770  0.00  0.00    +0.000 C 
ATOM     19  C   UNL     1     106.064 125.909 141.885  0.00  0.00    +0.000 C 
ATOM     20  C   UNL     1     107.266 126.472 142.415  0.00  0.00    +0.000 C 
ATOM     21  C   UNL     1     106.947 126.437 143.175  0.00  0.00    +0.000 C 
ATOM     22  C   UNL     1     106.186 126.138 143.290  0.00  0.00    +0.000 C 
BRANCH  22  24
ATOM     23  O   UNL     1     105.153 125.712 144.181  0.00  0.00    +0.000 OA
ATOM     24  C   UNL     1     105.868 126.103 144.050  0.00  0.00    +0.000 C 
ENDBRANCH  22  24
ENDBRANCH   5  19
BRANCH  10  27
ATOM     25  O   UNL     1     101.775 123.476 137.830  0.00  0.00    +0.000 OA
ATOM     26  O   UNL     1     102.537 122.990 136.450  0.00  0.00    +0.000 OA
ATOM     27  C   UNL     1     103.864 123.771 138.388  0.00  0.00    +0.000 A 
ATOM     28  C   UNL     1     103.041 123.754 138.432  0.00  0.00    +0.000 A 
ATOM     29  C   UNL     1     104.246 123.528 137.698  0.00  0.00    +0.000 A 
ATOM     30  C   UNL     1     102.599 123.494 137.786  0.00  0.00    +0.000 A 
ATOM     31  C   UNL     1     103.804 123.268 137.052  0.00  0.00    +0.000 A 
ATOM     32  C   UNL     1     102.980 123.251 137.096  0.00  0.00    +0.000 A 
ENDBRANCH  10  27
TORSDOF 3
ENDMDL
MODEL 2
REMARK VINA RESULT:      -9.8      4.405      6.142
REMARK  Name = 42607975
REMARK  3 active torsions:
REMARK  status: ('A' for Active; 'I' for Inactive)
REMARK    1  A    between atoms: C_13  and  C_17
REMARK    2  A    between atoms: C_16  and  C_18
REMARK    3  A    between atoms: C_23  and  C_27
REMARK                            x       y       z     vdW  Elec       q    Type
REMARK                         _______ _______ _______ _____ _____    ______ ____
ROOT
ATOM      1  O   UNL     1     106.185 127.329 144.718  0.00  0.00    +0.000 OA
ATOM      2  O   UNL     1     106.511 124.732 145.953  0.00  0.00    +0.000 OA
ATOM      3  O   UNL     1     106.746 127.101 147.534  0.00  0.00    +0.000 OA
ATOM      4  O   UNL     1     106.231 124.803 144.539  0.00  0.00    +0.000 OA
ATOM      5  C   UNL     1     106.628 125.916 146.744  0.00  0.00    +0.000 A 
ATOM      6  C   UNL     1     106.496 125.555 146.014  0.00  0.00    +0.000 A 
ATOM      7  C   UNL     1     106.614 126.739 146.805  0.00  0.00    +0.000 A 
ATOM      8  C   UNL     1     106.350 126.015 145.346  0.00  0.00    +0.000 A 
ATOM      9  C   UNL     1     106.336 126.838 145.407  0.00  0.00    +0.000 A 
ATOM     10  C   UNL     1     106.047 126.958 143.955  0.00  0.00    +0.000 C 
ATOM     11  C   UNL     1     106.468 127.200 146.136  0.00  0.00    +0.000 A 
ATOM     12  C   UNL     1     106.062 126.101 143.891  0.00  0.00    +0.000 C 
ATOM     13  C   UNL     1     106.214 125.627 144.591  0.00  0.00    +0.000 C 
ENDROOT
BRANCH   5  19
ATOM     14  O   UNL     1     106.145 125.170 147.863  0.00  0.00    +0.000 OA
ATOM     15  O   UNL     1     108.180 125.565 147.180  0.00  0.00    +0.000 OA
ATOM     16  O   UNL     1     108.473 124.643 148.517  0.00  0.00    +0.000 OA
ATOM     17  O   UNL     1     107.214 124.073 149.417  0.00  0.00    +0.000 OA
ATOM     18  C   UNL     1     107.550 125.280 147.630  0.00  0.00    +0.000 C 
ATOM     19  C   UNL     1     106.774 125.456 147.412  0.00  0.00    +0.000 C 
ATOM     20  C   UNL     1     107.697 124.819 148.299  0.00  0.00    +0.000 C 
ATOM     21  C   UNL     1     107.067 124.534 148.749  0.00  0.00    +0.000 C 
ATOM     22  C   UNL     1     106.291 124.710 148.531  0.00  0.00    +0.000 C 
BRANCH  22  24
ATOM     23  O   UNL     1     104.895 124.692 148.835  0.00  0.00    +0.000 OA
ATOM     24  C   UNL     1     105.662 124.425 148.981  0.00  0.00    +0.000 C 
ENDBRANCH  22  24
ENDBRANCH   5  19
BRANCH  10  27
ATOM     25  O   UNL     1     106.952 128.145 141.517  0.00  0.00    +0.000 OA
ATOM     26  O   UNL     1     105.462 128.815 141.290  0.00  0.00    +0.000 OA
ATOM     27  C   UNL     1     105.901 127.422 143.288  0.00  0.00    +0.000 A 
ATOM     28  C   UNL     1     106.500 127.552 142.736  0.00  0.00    +0.000 A 
ATOM     29  C   UNL     1     105.156 127.757 143.175  0.00  0.00    +0.000 A 
ATOM     30  C   UNL     1     106.353 128.016 142.070  0.00  0.00    +0.000 A 
ATOM     31  C   UNL     1     105.009 128.221 142.509  0.00  0.00    +0.000 A 
ATOM     32  C   UNL     1     105.608 128.351 141.956  0.00  0.00    +0.000 A 
ENDBRANCH  10  27
TORSDOF 3
ENDMDL
MODEL 3
REMARK VINA RESULT:      -9.6      7.860      9.043
REMARK  Name = 42607975
REMARK  3 active torsions:
REMARK  status: ('A' for Active; 'I' for Inactive)
REMARK    1  A    between atoms: C_13  and  C_17
REMARK    2  A    between atoms: C_16  and  C_18
REMARK    3  A    between atoms: C_23  and  C_27
REMARK                            x       y       z     vdW  Elec       q    Type
REMARK                         _______ _______ _______ _____ _____    ______ ____
ROOT
ATOM      1  O   UNL     1     113.429 126.354 138.886  0.00  0.00    +0.000 OA
ATOM      2  O   UNL     1     112.969 129.205 139.065  0.00  0.00    +0.000 OA
ATOM      3  O   UNL     1     114.177 127.818 141.252  0.00  0.00    +0.000 OA
ATOM      4  O   UNL     1     112.579 128.509 137.863  0.00  0.00    +0.000 OA
ATOM      5  C   UNL     1     113.573 128.512 140.158  0.00  0.00    +0.000 A 
ATOM      6  C   UNL     1     113.246 128.504 139.401  0.00  0.00    +0.000 A 
ATOM      7  C   UNL     1     113.851 127.812 140.494  0.00  0.00    +0.000 A 
ATOM      8  C   UNL     1     113.197 127.798 138.979  0.00  0.00    +0.000 A 
ATOM      9  C   UNL     1     113.474 127.097 139.315  0.00  0.00    +0.000 A 
ATOM     10  C   UNL     1     113.089 126.340 138.097  0.00  0.00    +0.000 C 
ATOM     11  C   UNL     1     113.801 127.103 140.073  0.00  0.00    +0.000 A 
ATOM     12  C   UNL     1     112.800 127.070 137.747  0.00  0.00    +0.000 C 
ATOM     13  C   UNL     1     112.854 127.803 138.191  0.00  0.00    +0.000 C 
ENDROOT
BRANCH   5  19
ATOM     14  O   UNL     1     114.269 129.720 140.472  0.00  0.00    +0.000 OA
ATOM     15  O   UNL     1     112.378 128.926 141.218  0.00  0.00    +0.000 OA
ATOM     16  O   UNL     1     112.476 130.340 142.062  0.00  0.00    +0.000 OA
ATOM     17  O   UNL     1     113.769 131.341 141.845  0.00  0.00    +0.000 OA
ATOM     18  C   UNL     1     113.025 129.426 141.110  0.00  0.00    +0.000 C 
ATOM     19  C   UNL     1     113.622 129.219 140.580  0.00  0.00    +0.000 C 
ATOM     20  C   UNL     1     113.074 130.134 141.532  0.00  0.00    +0.000 C 
ATOM     21  C   UNL     1     113.721 130.634 141.423  0.00  0.00    +0.000 C 
ATOM     22  C   UNL     1     114.318 130.427 140.893  0.00  0.00    +0.000 C 
BRANCH  22  24
ATOM     23  O   UNL     1     115.710 130.611 140.626  0.00  0.00    +0.000 OA
ATOM     24  C   UNL     1     114.964 130.927 140.785  0.00  0.00    +0.000 C 
ENDBRANCH  22  24
ENDBRANCH   5  19
BRANCH  10  27
ATOM     25  O   UNL     1     111.575 124.081 137.216  0.00  0.00    +0.000 OA
ATOM     26  O   UNL     1     112.900 123.502 136.422  0.00  0.00    +0.000 OA
ATOM     27  C   UNL     1     113.042 125.630 137.678  0.00  0.00    +0.000 A 
ATOM     28  C   UNL     1     112.332 125.210 137.657  0.00  0.00    +0.000 A 
ATOM     29  C   UNL     1     113.705 125.341 137.281  0.00  0.00    +0.000 A 
ATOM     30  C   UNL     1     112.285 124.501 137.238  0.00  0.00    +0.000 A 
ATOM     31  C   UNL     1     113.658 124.632 136.863  0.00  0.00    +0.000 A 
ATOM     32  C   UNL     1     112.948 124.212 136.841  0.00  0.00    +0.000 A 
ENDBRANCH  10  27
TORSDOF 3
ENDMDL
MODEL 4
REMARK VINA RESULT:      -9.6      7.845     10.395
REMARK  Name = 42607975
REMARK  3 active torsions:
REMARK  status: ('A' for Active; 'I' for Inactive)
REMARK    1  A    between atoms: C_13  and  C_17
REMARK    2  A    between atoms: C_16  and  C_18
REMARK    3  A    between atoms: C_23  and  C_27
REMARK                            x       y       z     vdW  Elec       q    Type
REMARK                         _______ _______ _______ _____ _____    ______ ____
ROOT
ATOM      1  O   UNL     1     113.421 128.918 139.498  0.00  0.00    +0.000 OA
ATOM      2  O   UNL     1     113.692 126.041 139.351  0.00  0.00    +0.000 OA
ATOM      3  O   UNL     1     112.541 127.476 137.164  0.00  0.00    +0.000 OA
ATOM      4  O   UNL     1     114.145 126.726 140.537  0.00  0.00    +0.000 OA
ATOM      5  C   UNL     1     113.116 126.758 138.257  0.00  0.00    +0.000 A 
ATOM      6  C   UNL     1     113.455 126.754 139.010  0.00  0.00    +0.000 A 
ATOM      7  C   UNL     1     112.879 127.471 137.916  0.00  0.00    +0.000 A 
ATOM      8  C   UNL     1     113.557 127.461 139.421  0.00  0.00    +0.000 A 
ATOM      9  C   UNL     1     113.320 128.174 139.079  0.00  0.00    +0.000 A 
ATOM     10  C   UNL     1     113.773 128.919 140.281  0.00  0.00    +0.000 C 
ATOM     11  C   UNL     1     112.981 128.179 138.327  0.00  0.00    +0.000 A 
ATOM     12  C   UNL     1     114.019 128.177 140.637  0.00  0.00    +0.000 C 
ATOM     13  C   UNL     1     113.911 127.443 140.204  0.00  0.00    +0.000 C 
ENDROOT
BRANCH   5  19
ATOM     14  O   UNL     1     113.618 125.763 137.362  0.00  0.00    +0.000 OA
ATOM     15  O   UNL     1     111.705 125.916 138.402  0.00  0.00    +0.000 OA
ATOM     16  O   UNL     1     111.501 124.500 137.580  0.00  0.00    +0.000 OA
ATOM     17  O   UNL     1     112.708 123.927 136.613  0.00  0.00    +0.000 OA
ATOM     18  C   UNL     1     112.309 125.629 137.919  0.00  0.00    +0.000 C 
ATOM     19  C   UNL     1     113.015 126.050 137.846  0.00  0.00    +0.000 C 
ATOM     20  C   UNL     1     112.207 124.921 137.507  0.00  0.00    +0.000 C 
ATOM     21  C   UNL     1     112.811 124.634 137.024  0.00  0.00    +0.000 C 
ATOM     22  C   UNL     1     113.516 125.056 136.952  0.00  0.00    +0.000 C 
BRANCH  22  24
ATOM     23  O   UNL     1     114.826 125.189 136.396  0.00  0.00    +0.000 OA
ATOM     24  C   UNL     1     114.120 124.769 136.468  0.00  0.00    +0.000 C 
ENDBRANCH  22  24
ENDBRANCH   5  19
BRANCH  10  27
ATOM     25  O   UNL     1     115.325 131.251 140.851  0.00  0.00    +0.000 OA
ATOM     26  O   UNL     1     114.172 131.760 141.915  0.00  0.00    +0.000 OA
ATOM     27  C   UNL     1     113.873 129.630 140.690  0.00  0.00    +0.000 A 
ATOM     28  C   UNL     1     114.549 130.086 140.566  0.00  0.00    +0.000 A 
ATOM     29  C   UNL     1     113.296 129.884 141.222  0.00  0.00    +0.000 A 
ATOM     30  C   UNL     1     114.649 130.795 140.975  0.00  0.00    +0.000 A 
ATOM     31  C   UNL     1     113.395 130.593 141.631  0.00  0.00    +0.000 A 
ATOM     32  C   UNL     1     114.072 131.049 141.507  0.00  0.00    +0.000 A 
ENDBRANCH  10  27
TORSDOF 3
ENDMDL
MODEL 5
REMARK VINA RESULT:      -9.6      3.688      5.610
REMARK  Name = 42607975
REMARK  3 active torsions:
REMARK  status: ('A' for Active; 'I' for Inactive)
REMARK    1  A    between atoms: C_13  and  C_17
REMARK    2  A    between atoms: C_16  and  C_18
REMARK    3  A    between atoms: C_23  and  C_27
REMARK                            x       y       z     vdW  Elec       q    Type
REMARK                         _______ _______ _______ _____ _____    ______ ____
ROOT
ATOM      1  O   UNL     1     103.737 129.911 142.312  0.00  0.00    +0.000 OA
ATOM      2  O   UNL     1     104.694 127.484 141.062  0.00  0.00    +0.000 OA
ATOM      3  O   UNL     1     105.770 128.309 143.577  0.00  0.00    +0.000 OA
ATOM      4  O   UNL     1     103.675 128.258 140.396  0.00  0.00    +0.000 OA
ATOM      5  C   UNL     1     105.232 127.896 142.319  0.00  0.00    +0.000 A 
ATOM      6  C   UNL     1     104.716 128.021 141.688  0.00  0.00    +0.000 A 
ATOM      7  C   UNL     1     105.254 128.433 142.945  0.00  0.00    +0.000 A 
ATOM      8  C   UNL     1     104.223 128.681 141.681  0.00  0.00    +0.000 A 
ATOM      9  C   UNL     1     104.246 129.218 142.307  0.00  0.00    +0.000 A 
ATOM     10  C   UNL     1     103.198 130.046 141.657  0.00  0.00    +0.000 C 
ATOM     11  C   UNL     1     104.761 129.095 142.939  0.00  0.00    +0.000 A 
ATOM     12  C   UNL     1     103.175 129.487 141.005  0.00  0.00    +0.000 C 
ATOM     13  C   UNL     1     103.690 128.800 141.017  0.00  0.00    +0.000 C 
ENDROOT
BRANCH   5  19
ATOM     14  O   UNL     1     105.459 126.524 142.649  0.00  0.00    +0.000 OA
ATOM     15  O   UNL     1     106.752 127.995 141.685  0.00  0.00    +0.000 OA
ATOM     16  O   UNL     1     107.739 126.672 141.698  0.00  0.00    +0.000 OA
ATOM     17  O   UNL     1     107.206 125.252 142.344  0.00  0.00    +0.000 OA
ATOM     18  C   UNL     1     106.485 127.285 142.009  0.00  0.00    +0.000 C 
ATOM     19  C   UNL     1     105.725 127.235 142.326  0.00  0.00    +0.000 C 
ATOM     20  C   UNL     1     106.979 126.623 142.015  0.00  0.00    +0.000 C 
ATOM     21  C   UNL     1     106.712 125.913 142.338  0.00  0.00    +0.000 C 
ATOM     22  C   UNL     1     105.952 125.863 142.655  0.00  0.00    +0.000 C 
BRANCH  22  24
ATOM     23  O   UNL     1     105.256 125.155 143.683  0.00  0.00    +0.000 OA
ATOM     24  C   UNL     1     105.686 125.153 142.978  0.00  0.00    +0.000 C 
ENDBRANCH  22  24
ENDBRANCH   5  19
BRANCH  10  27
ATOM     25  O   UNL     1     102.780 132.818 141.099  0.00  0.00    +0.000 OA
ATOM     26  O   UNL     1     101.229 132.695 141.646  0.00  0.00    +0.000 OA
ATOM     27  C   UNL     1     102.706 130.709 141.654  0.00  0.00    +0.000 A 
ATOM     28  C   UNL     1     102.989 131.432 141.378  0.00  0.00    +0.000 A 
ATOM     29  C   UNL     1     101.930 130.647 141.928  0.00  0.00    +0.000 A 
ATOM     30  C   UNL     1     102.497 132.094 141.375  0.00  0.00    +0.000 A 
ATOM     31  C   UNL     1     101.437 131.309 141.926  0.00  0.00    +0.000 A 
ATOM     32  C   UNL     1     101.721 132.032 141.649  0.00  0.00    +0.000 A 
ENDBRANCH  10  27
TORSDOF 3
ENDMDL
MODEL 6
REMARK VINA RESULT:      -9.5      4.236      7.110
REMARK  Name = 42607975
REMARK  3 active torsions:
REMARK  status: ('A' for Active; 'I' for Inactive)
REMARK    1  A    between atoms: C_13  and  C_17
REMARK    2  A    between atoms: C_16  and  C_18
REMARK    3  A    between atoms: C_23  and  C_27
REMARK                            x       y       z     vdW  Elec       q    Type
REMARK                         _______ _______ _______ _____ _____    ______ ____
ROOT
ATOM      1  O   UNL     1     106.481 125.409 146.164  0.00  0.00    +0.000 OA
ATOM      2  O   UNL     1     106.740 127.892 144.701  0.00  0.00    +0.000 OA
ATOM      3  O   UNL     1     105.571 125.611 143.438  0.00  0.00    +0.000 OA
ATOM      4  O   UNL     1     107.208 127.832 146.064  0.00  0.00    +0.000 OA
ATOM      5  C   UNL     1     106.156 126.752 144.069  0.00  0.00    +0.000 A 
ATOM      6  C   UNL     1     106.502 127.103 144.731  0.00  0.00    +0.000 A 
ATOM      7  C   UNL     1     105.918 125.963 144.098  0.00  0.00    +0.000 A 
ATOM      8  C   UNL     1     106.611 126.665 145.421  0.00  0.00    +0.000 A 
ATOM      9  C   UNL     1     106.373 125.876 145.450  0.00  0.00    +0.000 A 
ATOM     10  C   UNL     1     106.841 125.769 146.856  0.00  0.00    +0.000 C 
ATOM     11  C   UNL     1     106.027 125.524 144.789  0.00  0.00    +0.000 A 
ATOM     12  C   UNL     1     107.089 126.591 146.825  0.00  0.00    +0.000 C 
ATOM     13  C   UNL     1     106.973 127.042 146.103  0.00  0.00    +0.000 C 
ENDROOT
BRANCH   5  19
ATOM     14  O   UNL     1     105.354 127.624 143.269  0.00  0.00    +0.000 OA
ATOM     15  O   UNL     1     107.325 126.760 142.905  0.00  0.00    +0.000 OA
ATOM     16  O   UNL     1     107.108 127.636 141.524  0.00  0.00    +0.000 OA
ATOM     17  O   UNL     1     105.722 128.503 141.307  0.00  0.00    +0.000 OA
ATOM     18  C   UNL     1     106.632 127.194 142.797  0.00  0.00    +0.000 C 
ATOM     19  C   UNL     1     106.047 127.190 143.379  0.00  0.00    +0.000 C 
ATOM     20  C   UNL     1     106.523 127.632 142.106  0.00  0.00    +0.000 C 
ATOM     21  C   UNL     1     105.830 128.065 141.997  0.00  0.00    +0.000 C 
ATOM     22  C   UNL     1     105.245 128.061 142.579  0.00  0.00    +0.000 C 
BRANCH  22  24
ATOM     23  O   UNL     1     104.277 128.991 143.069  0.00  0.00    +0.000 OA
ATOM     24  C   UNL     1     104.552 128.495 142.470  0.00  0.00    +0.000 C 
ENDBRANCH  22  24
ENDBRANCH   5  19
BRANCH  10  27
ATOM     25  O   UNL     1     105.752 124.441 149.140  0.00  0.00    +0.000 OA
ATOM     26  O   UNL     1     107.272 124.005 149.612  0.00  0.00    +0.000 OA
ATOM     27  C   UNL     1     106.949 125.328 147.545  0.00  0.00    +0.000 A 
ATOM     28  C   UNL     1     106.296 125.105 147.998  0.00  0.00    +0.000 A 
ATOM     29  C   UNL     1     107.709 125.110 147.780  0.00  0.00    +0.000 A 
ATOM     30  C   UNL     1     106.404 124.664 148.687  0.00  0.00    +0.000 A 
ATOM     31  C   UNL     1     107.817 124.669 148.469  0.00  0.00    +0.000 A 
ATOM     32  C   UNL     1     107.165 124.446 148.922  0.00  0.00    +0.000 A 
ENDBRANCH  10  27
TORSDOF 3
ENDMDL
MODEL 7
REMARK VINA RESULT:      -9.5      7.134      8.445
REMARK  Name = 42607975
REMARK  3 active torsions:
REMARK  status: ('A' for Active; 'I' for Inactive)
REMARK    1  A    between atoms: C_13  and  C_17
REMARK    2  A    between atoms: C_16  and  C_18
REMARK    3  A    between atoms: C_23  and  C_27
REMARK                            x       y       z     vdW  Elec       q    Type
REMARK                         _______ _______ _______ _____ _____    ______ ____
ROOT
ATOM      1  O   UNL     1     110.831 126.830 136.856  0.00  0.00    +0.000 OA
ATOM      2  O   UNL     1     110.198 129.063 135.129  0.00  0.00    +0.000 OA
ATOM      3  O   UNL     1     109.210 129.013 137.810  0.00  0.00    +0.000 OA
ATOM      4  O   UNL     1     111.012 127.990 134.613  0.00  0.00    +0.000 OA
ATOM      5  C   UNL     1     109.704 129.039 136.469  0.00  0.00    +0.000 A 
ATOM      6  C   UNL     1     110.137 128.688 135.861  0.00  0.00    +0.000 A 
ATOM      7  C   UNL     1     109.643 128.663 137.201  0.00  0.00    +0.000 A 
ATOM      8  C   UNL     1     110.509 127.962 135.984  0.00  0.00    +0.000 A 
ATOM      9  C   UNL     1     110.448 127.586 136.716  0.00  0.00    +0.000 A 
ATOM     10  C   UNL     1     111.283 126.460 136.226  0.00  0.00    +0.000 C 
ATOM     11  C   UNL     1     110.015 127.936 137.325  0.00  0.00    +0.000 A 
ATOM     12  C   UNL     1     111.346 126.851 135.464  0.00  0.00    +0.000 C 
ATOM     13  C   UNL     1     110.957 127.607 135.342  0.00  0.00    +0.000 C 
ENDROOT
BRANCH   5  19
ATOM     14  O   UNL     1     109.744 130.467 136.478  0.00  0.00    +0.000 OA
ATOM     15  O   UNL     1     108.135 129.086 135.960  0.00  0.00    +0.000 OA
ATOM     16  O   UNL     1     107.391 130.537 135.713  0.00  0.00    +0.000 OA
ATOM     17  O   UNL     1     108.215 131.941 135.977  0.00  0.00    +0.000 OA
ATOM     18  C   UNL     1     108.548 129.788 136.091  0.00  0.00    +0.000 C 
ATOM     19  C   UNL     1     109.332 129.764 136.346  0.00  0.00    +0.000 C 
ATOM     20  C   UNL     1     108.175 130.514 135.968  0.00  0.00    +0.000 C 
ATOM     21  C   UNL     1     108.588 131.216 136.100  0.00  0.00    +0.000 C 
ATOM     22  C   UNL     1     109.372 131.192 136.355  0.00  0.00    +0.000 C 
BRANCH  22  24
ATOM     23  O   UNL     1     110.533 131.876 136.831  0.00  0.00    +0.000 OA
ATOM     24  C   UNL     1     109.784 131.894 136.486  0.00  0.00    +0.000 C 
ENDBRANCH  22  24
ENDBRANCH   5  19
BRANCH  10  27
ATOM     25  O   UNL     1     113.553 124.957 137.097  0.00  0.00    +0.000 OA
ATOM     26  O   UNL     1     112.764 123.554 136.733  0.00  0.00    +0.000 OA
ATOM     27  C   UNL     1     111.654 125.734 136.353  0.00  0.00    +0.000 A 
ATOM     28  C   UNL     1     112.418 125.708 136.662  0.00  0.00    +0.000 A 
ATOM     29  C   UNL     1     111.259 125.032 136.171  0.00  0.00    +0.000 A 
ATOM     30  C   UNL     1     112.788 124.982 136.789  0.00  0.00    +0.000 A 
ATOM     31  C   UNL     1     111.629 124.306 136.298  0.00  0.00    +0.000 A 
ATOM     32  C   UNL     1     112.393 124.281 136.606  0.00  0.00    +0.000 A 
ENDBRANCH  10  27
TORSDOF 3
ENDMDL
MODEL 8
REMARK VINA RESULT:      -9.4      2.863      6.569
REMARK  Name = 42607975
REMARK  3 active torsions:
REMARK  status: ('A' for Active; 'I' for Inactive)
REMARK    1  A    between atoms: C_13  and  C_17
REMARK    2  A    between atoms: C_16  and  C_18
REMARK    3  A    between atoms: C_23  and  C_27
REMARK                            x       y       z     vdW  Elec       q    Type
REMARK                         _______ _______ _______ _____ _____    ______ ____
ROOT
ATOM      1  O   UNL     1     105.872 125.509 145.927  0.00  0.00    +0.000 OA
ATOM      2  O   UNL     1     105.205 124.319 143.375  0.00  0.00    +0.000 OA
ATOM      3  O   UNL     1     107.035 126.512 143.489  0.00  0.00    +0.000 OA
ATOM      4  O   UNL     1     104.601 123.788 144.572  0.00  0.00    +0.000 OA
ATOM      5  C   UNL     1     106.120 125.415 143.431  0.00  0.00    +0.000 A 
ATOM      6  C   UNL     1     105.620 124.881 143.813  0.00  0.00    +0.000 A 
ATOM      7  C   UNL     1     106.535 125.977 143.870  0.00  0.00    +0.000 A 
ATOM      8  C   UNL     1     105.536 124.908 144.633  0.00  0.00    +0.000 A 
ATOM      9  C   UNL     1     105.951 125.470 145.072  0.00  0.00    +0.000 A 
ATOM     10  C   UNL     1     105.353 124.955 146.330  0.00  0.00    +0.000 C 
ATOM     11  C   UNL     1     106.451 126.005 144.691  0.00  0.00    +0.000 A 
ATOM     12  C   UNL     1     104.920 124.370 145.873  0.00  0.00    +0.000 C 
ATOM     13  C   UNL     1     105.012 124.346 145.019  0.00  0.00    +0.000 C 
ENDROOT
BRANCH   5  19
ATOM     14  O   UNL     1     106.733 124.855 142.268  0.00  0.00    +0.000 OA
ATOM     15  O   UNL     1     105.232 126.426 142.477  0.00  0.00    +0.000 OA
ATOM     16  O   UNL     1     105.400 126.372 140.836  0.00  0.00    +0.000 OA
ATOM     17  O   UNL     1     106.457 125.307 140.151  0.00  0.00    +0.000 OA
ATOM     18  C   UNL     1     105.760 125.894 142.134  0.00  0.00    +0.000 C 
ATOM     19  C   UNL     1     106.204 125.388 142.612  0.00  0.00    +0.000 C 
ATOM     20  C   UNL     1     105.844 125.867 141.313  0.00  0.00    +0.000 C 
ATOM     21  C   UNL     1     106.373 125.334 140.971  0.00  0.00    +0.000 C 
ATOM     22  C   UNL     1     106.817 124.828 141.448  0.00  0.00    +0.000 C 
BRANCH  22  24
ATOM     23  O   UNL     1     108.075 124.151 141.461  0.00  0.00    +0.000 OA
ATOM     24  C   UNL     1     107.345 124.296 141.106  0.00  0.00    +0.000 C 
ENDBRANCH  22  24
ENDBRANCH   5  19
BRANCH  10  27
ATOM     25  O   UNL     1     106.329 124.325 148.941  0.00  0.00    +0.000 OA
ATOM     26  O   UNL     1     105.024 125.077 149.612  0.00  0.00    +0.000 OA
ATOM     27  C   UNL     1     105.271 124.985 147.150  0.00  0.00    +0.000 A 
ATOM     28  C   UNL     1     105.841 124.640 147.636  0.00  0.00    +0.000 A 
ATOM     29  C   UNL     1     104.618 125.362 147.485  0.00  0.00    +0.000 A 
ATOM     30  C   UNL     1     105.759 124.670 148.456  0.00  0.00    +0.000 A 
ATOM     31  C   UNL     1     104.535 125.393 148.306  0.00  0.00    +0.000 A 
ATOM     32  C   UNL     1     105.106 125.047 148.791  0.00  0.00    +0.000 A 
ENDBRANCH  10  27
TORSDOF 3
ENDMDL
MODEL 9
REMARK VINA RESULT:      -9.4      7.555      8.595
REMARK  Name = 42607975
REMARK  3 active torsions:
REMARK  status: ('A' for Active; 'I' for Inactive)
REMARK    1  A    between atoms: C_13  and  C_17
REMARK    2  A    between atoms: C_16  and  C_18
REMARK    3  A    between atoms: C_23  and  C_27
REMARK                            x       y       z     vdW  Elec       q    Type
REMARK                         _______ _______ _______ _____ _____    ______ ____
ROOT
ATOM      1  O   UNL     1     110.084 128.074 135.426  0.00  0.00    +0.000 OA
ATOM      2  O   UNL     1     111.911 126.881 137.326  0.00  0.00    +0.000 OA
ATOM      3  O   UNL     1     110.984 125.358 135.092  0.00  0.00    +0.000 OA
ATOM      4  O   UNL     1     111.484 128.244 137.528  0.00  0.00    +0.000 OA
ATOM      5  C   UNL     1     111.448 126.119 136.209  0.00  0.00    +0.000 A 
ATOM      6  C   UNL     1     111.456 126.823 136.640  0.00  0.00    +0.000 A 
ATOM      7  C   UNL     1     110.993 126.061 135.524  0.00  0.00    +0.000 A 
ATOM      8  C   UNL     1     111.009 127.467 136.386  0.00  0.00    +0.000 A 
ATOM      9  C   UNL     1     110.554 127.409 135.701  0.00  0.00    +0.000 A 
ATOM     10  C   UNL     1     110.088 128.809 135.870  0.00  0.00    +0.000 C 
ATOM     11  C   UNL     1     110.545 126.706 135.269  0.00  0.00    +0.000 A 
ATOM     12  C   UNL     1     110.563 128.870 136.584  0.00  0.00    +0.000 C 
ATOM     13  C   UNL     1     111.026 128.195 136.844  0.00  0.00    +0.000 C 
ENDROOT
BRANCH   5  19
ATOM     14  O   UNL     1     112.687 125.408 136.243  0.00  0.00    +0.000 OA
ATOM     15  O   UNL     1     110.758 124.960 137.160  0.00  0.00    +0.000 OA
ATOM     16  O   UNL     1     111.652 123.670 137.668  0.00  0.00    +0.000 OA
ATOM     17  O   UNL     1     113.235 123.539 137.226  0.00  0.00    +0.000 OA
ATOM     18  C   UNL     1     111.550 124.895 136.939  0.00  0.00    +0.000 C 
ATOM     19  C   UNL     1     111.895 125.474 136.463  0.00  0.00    +0.000 C 
ATOM     20  C   UNL     1     111.997 124.249 137.193  0.00  0.00    +0.000 C 
ATOM     21  C   UNL     1     112.789 124.184 136.972  0.00  0.00    +0.000 C 
ATOM     22  C   UNL     1     113.134 124.763 136.497  0.00  0.00    +0.000 C 
BRANCH  22  24
ATOM     23  O   UNL     1     114.391 125.375 136.198  0.00  0.00    +0.000 OA
ATOM     24  C   UNL     1     113.926 124.697 136.276  0.00  0.00    +0.000 C 
ENDBRANCH  22  24
ENDBRANCH   5  19
BRANCH  10  27
ATOM     25  O   UNL     1     107.673 130.336 135.953  0.00  0.00    +0.000 OA
ATOM     26  O   UNL     1     108.296 131.382 134.840  0.00  0.00    +0.000 OA
ATOM     27  C   UNL     1     109.640 129.452 135.613  0.00  0.00    +0.000 A 
ATOM     28  C   UNL     1     108.880 129.572 135.912  0.00  0.00    +0.000 A 
ATOM     29  C   UNL     1     109.952 129.975 135.056  0.00  0.00    +0.000 A 
ATOM     30  C   UNL     1     108.433 130.216 135.654  0.00  0.00    +0.000 A 
ATOM     31  C   UNL     1     109.504 130.619 134.799  0.00  0.00    +0.000 A 
ATOM     32  C   UNL     1     108.744 130.739 135.097  0.00  0.00    +0.000 A 
ENDBRANCH  10  27
TORSDOF 3
ENDMDL
MODEL 10
REMARK VINA RESULT:      -9.3      8.630     11.660
REMARK  Name = 42607975
REMARK  3 active torsions:
REMARK  status: ('A' for Active; 'I' for Inactive)
REMARK    1  A    between atoms: C_13  and  C_17
REMARK    2  A    between atoms: C_16  and  C_18
REMARK    3  A    between atoms: C_23  and  C_27
REMARK                            x       y       z     vdW  Elec       q    Type
REMARK                         _______ _______ _______ _____ _____    ______ ____
ROOT
ATOM      1  O   UNL     1     111.914 131.570 145.762  0.00  0.00    +0.000 OA
ATOM      2  O   UNL     1     112.369 132.256 142.988  0.00  0.00    +0.000 OA
ATOM      3  O   UNL     1     111.132 129.767 143.655  0.00  0.00    +0.000 OA
ATOM      4  O   UNL     1     112.775 133.186 144.013  0.00  0.00    +0.000 OA
ATOM      5  C   UNL     1     111.751 131.011 143.321  0.00  0.00    +0.000 A 
ATOM      6  C   UNL     1     112.088 131.727 143.556  0.00  0.00    +0.000 A 
ATOM      7  C   UNL     1     111.469 130.483 143.888  0.00  0.00    +0.000 A 
ATOM      8  C   UNL     1     112.143 131.914 144.357  0.00  0.00    +0.000 A 
ATOM      9  C   UNL     1     111.862 131.386 144.924  0.00  0.00    +0.000 A 
ATOM     10  C   UNL     1     112.264 132.313 146.012  0.00  0.00    +0.000 C 
ATOM     11  C   UNL     1     111.525 130.670 144.691  0.00  0.00    +0.000 A 
ATOM     12  C   UNL     1     112.557 132.864 145.421  0.00  0.00    +0.000 C 
ATOM     13  C   UNL     1     112.496 132.663 144.588  0.00  0.00    +0.000 C 
ENDROOT
BRANCH   5  19
ATOM     14  O   UNL     1     112.313 130.426 142.145  0.00  0.00    +0.000 OA
ATOM     15  O   UNL     1     110.403 131.432 142.467  0.00  0.00    +0.000 OA
ATOM     16  O   UNL     1     110.292 131.058 140.864  0.00  0.00    +0.000 OA
ATOM     17  O   UNL     1     111.528 130.263 140.115  0.00  0.00    +0.000 OA
ATOM     18  C   UNL     1     111.021 131.035 142.093  0.00  0.00    +0.000 C 
ATOM     19  C   UNL     1     111.695 130.824 142.520  0.00  0.00    +0.000 C 
ATOM     20  C   UNL     1     110.966 130.847 141.291  0.00  0.00    +0.000 C 
ATOM     21  C   UNL     1     111.584 130.450 140.917  0.00  0.00    +0.000 C 
ATOM     22  C   UNL     1     112.258 130.239 141.344  0.00  0.00    +0.000 C 
BRANCH  22  24
ATOM     23  O   UNL     1     113.642 129.891 141.271  0.00  0.00    +0.000 OA
ATOM     24  C   UNL     1     112.875 129.842 140.969  0.00  0.00    +0.000 C 
ENDBRANCH  22  24
ENDBRANCH   5  19
BRANCH  10  27
ATOM     25  O   UNL     1     111.204 133.600 148.335  0.00  0.00    +0.000 OA
ATOM     26  O   UNL     1     112.480 133.049 149.223  0.00  0.00    +0.000 OA
ATOM     27  C   UNL     1     112.317 132.497 146.815  0.00  0.00    +0.000 A 
ATOM     28  C   UNL     1     111.733 132.957 147.174  0.00  0.00    +0.000 A 
ATOM     29  C   UNL     1     112.956 132.222 147.259  0.00  0.00    +0.000 A 
ATOM     30  C   UNL     1     111.788 133.140 147.976  0.00  0.00    +0.000 A 
ATOM     31  C   UNL     1     113.010 132.405 148.061  0.00  0.00    +0.000 A 
ATOM     32  C   UNL     1     112.426 132.864 148.420  0.00  0.00    +0.000 A 
ENDBRANCH  10  27
TORSDOF 3
ENDMDL
