MODEL 1
REMARK VINA RESULT:     -10.0      0.000      0.000
REMARK  Name = 44259121
REMARK  7 active torsions:
REMARK  status: ('A' for Active; 'I' for Inactive)
REMARK    1  A    between atoms: O_2  and  C_19
REMARK    2  A    between atoms: O_2  and  C_24
REMARK    3  A    between atoms: O_3  and  C_21
REMARK    4  A    between atoms: O_3  and  C_23
REMARK    5  A    between atoms: C_20  and  C_22
REMARK    6  A    between atoms: C_24  and  C_27
REMARK    7  A    between atoms: C_25  and  C_30
REMARK                            x       y       z     vdW  Elec       q    Type
REMARK                         _______ _______ _______ _____ _____    ______ ____
ROOT
ATOM      1  O   UNL     1     111.958 128.482 137.055  0.00  0.00    +0.000 OA
ENDROOT
BRANCH   1   6
ATOM      2  O   UNL     1     111.221 129.901 135.569  0.00  0.00    +0.000 OA
ATOM      3  O   UNL     1     110.332 128.403 137.328  0.00  0.00    +0.000 OA
ATOM      4  O   UNL     1     108.980 128.809 137.031  0.00  0.00    +0.000 OA
ATOM      5  O   UNL     1     108.519 130.768 134.915  0.00  0.00    +0.000 OA
ATOM      6  C   UNL     1     111.441 128.942 136.605  0.00  0.00    +0.000 A 
ATOM      7  C   UNL     1     111.738 129.441 136.019  0.00  0.00    +0.000 A 
ATOM      8  C   UNL     1     110.629 128.902 136.741  0.00  0.00    +0.000 A 
ATOM      9  C   UNL     1     110.113 129.362 136.291  0.00  0.00    +0.000 A 
ATOM     10  C   UNL     1     110.408 129.861 135.705  0.00  0.00    +0.000 A 
ATOM     11  C   UNL     1     109.267 129.312 136.443  0.00  0.00    +0.000 A 
ATOM     12  C   UNL     1     109.881 130.345 135.230  0.00  0.00    +0.000 A 
ATOM     13  C   UNL     1     108.725 129.788 135.977  0.00  0.00    +0.000 A 
ATOM     14  C   UNL     1     109.033 130.308 135.367  0.00  0.00    +0.000 A 
BRANCH   7  17
ATOM     15  O   UNL     1     114.248 130.759 136.383  0.00  0.00    +0.000 OA
ATOM     16  O   UNL     1     114.989 129.600 135.473  0.00  0.00    +0.000 OA
ATOM     17  C   UNL     1     112.550 129.481 135.883  0.00  0.00    +0.000 A 
ATOM     18  C   UNL     1     112.993 130.100 136.201  0.00  0.00    +0.000 A 
ATOM     19  C   UNL     1     112.921 128.901 135.427  0.00  0.00    +0.000 A 
ATOM     20  C   UNL     1     113.805 130.140 136.065  0.00  0.00    +0.000 A 
ATOM     21  C   UNL     1     113.734 128.941 135.291  0.00  0.00    +0.000 A 
ATOM     22  C   UNL     1     114.175 129.560 135.610  0.00  0.00    +0.000 A 
ENDBRANCH   7  17
ENDBRANCH   1   6
BRANCH   1  30
ATOM     23  O   UNL     1     111.857 129.287 138.232  0.00  0.00    +0.000 OA
ATOM     24  O   UNL     1     112.171 127.273 139.636  0.00  0.00    +0.000 OA
ATOM     25  O   UNL     1     111.965 128.748 140.344  0.00  0.00    +0.000 OA
ATOM     26  C   UNL     1     112.066 127.944 139.168  0.00  0.00    +0.000 C 
ATOM     27  C   UNL     1     111.963 128.681 139.522  0.00  0.00    +0.000 C 
ATOM     28  C   UNL     1     112.064 127.877 138.345  0.00  0.00    +0.000 C 
ATOM     29  C   UNL     1     111.859 129.353 139.054  0.00  0.00    +0.000 C 
ATOM     30  C   UNL     1     111.960 128.548 137.877  0.00  0.00    +0.000 C 
BRANCH  29  32
ATOM     31  O   UNL     1     112.306 130.692 139.275  0.00  0.00    +0.000 OA
ATOM     32  C   UNL     1     111.756 130.091 139.408  0.00  0.00    +0.000 C 
ENDBRANCH  29  32
BRANCH  28  33
ATOM     33  O   UNL     1     112.167 127.140 137.991  0.00  0.00    +0.000 OA
BRANCH  33  35
ATOM     34  O   UNL     1     113.534 127.127 138.409  0.00  0.00    +0.000 OA
ATOM     35  C   UNL     1     112.907 126.775 138.005  0.00  0.00    +0.000 C 
BRANCH  35  39
ATOM     36  O   UNL     1     114.551 125.050 136.427  0.00  0.00    +0.000 OA
ATOM     37  O   UNL     1     111.947 124.195 137.237  0.00  0.00    +0.000 OA
ATOM     38  O   UNL     1     113.363 123.905 136.441  0.00  0.00    +0.000 OA
ATOM     39  C   UNL     1     113.021 126.057 137.614  0.00  0.00    +0.000 A 
ATOM     40  C   UNL     1     112.427 125.484 137.621  0.00  0.00    +0.000 A 
ATOM     41  C   UNL     1     113.729 125.912 137.216  0.00  0.00    +0.000 A 
ATOM     42  C   UNL     1     113.843 125.194 136.825  0.00  0.00    +0.000 A 
ATOM     43  C   UNL     1     112.541 124.768 137.230  0.00  0.00    +0.000 A 
ATOM     44  C   UNL     1     113.249 124.622 136.832  0.00  0.00    +0.000 A 
ENDBRANCH  35  39
ENDBRANCH  33  35
ENDBRANCH  28  33
ENDBRANCH   1  30
TORSDOF 7
ENDMDL
MODEL 2
REMARK VINA RESULT:      -9.9      1.518      4.826
REMARK  Name = 44259121
REMARK  7 active torsions:
REMARK  status: ('A' for Active; 'I' for Inactive)
REMARK    1  A    between atoms: O_2  and  C_19
REMARK    2  A    between atoms: O_2  and  C_24
REMARK    3  A    between atoms: O_3  and  C_21
REMARK    4  A    between atoms: O_3  and  C_23
REMARK    5  A    between atoms: C_20  and  C_22
REMARK    6  A    between atoms: C_24  and  C_27
REMARK    7  A    between atoms: C_25  and  C_30
REMARK                            x       y       z     vdW  Elec       q    Type
REMARK                         _______ _______ _______ _____ _____    ______ ____
ROOT
ATOM      1  O   UNL     1     111.727 127.444 136.984  0.00  0.00    +0.000 OA
ENDROOT
BRANCH   1   6
ATOM      2  O   UNL     1     113.305 127.836 138.441  0.00  0.00    +0.000 OA
ATOM      3  O   UNL     1     111.136 126.650 138.304  0.00  0.00    +0.000 OA
ATOM      4  O   UNL     1     111.245 126.233 139.682  0.00  0.00    +0.000 OA
ATOM      5  O   UNL     1     113.591 127.033 141.225  0.00  0.00    +0.000 OA
ATOM      6  C   UNL     1     112.155 127.442 137.690  0.00  0.00    +0.000 A 
ATOM      7  C   UNL     1     112.877 127.838 137.735  0.00  0.00    +0.000 A 
ATOM      8  C   UNL     1     111.859 127.045 138.349  0.00  0.00    +0.000 A 
ATOM      9  C   UNL     1     112.287 127.044 139.055  0.00  0.00    +0.000 A 
ATOM     10  C   UNL     1     113.009 127.439 139.101  0.00  0.00    +0.000 A 
ATOM     11  C   UNL     1     111.968 126.626 139.737  0.00  0.00    +0.000 A 
ATOM     12  C   UNL     1     113.464 127.445 139.830  0.00  0.00    +0.000 A 
ATOM     13  C   UNL     1     112.409 126.621 140.474  0.00  0.00    +0.000 A 
ATOM     14  C   UNL     1     113.161 127.033 140.521  0.00  0.00    +0.000 A 
BRANCH   7  17
ATOM     15  O   UNL     1     114.576 127.897 135.437  0.00  0.00    +0.000 OA
ATOM     16  O   UNL     1     114.059 129.427 135.095  0.00  0.00    +0.000 OA
ATOM     17  C   UNL     1     113.173 128.235 137.076  0.00  0.00    +0.000 A 
ATOM     18  C   UNL     1     113.727 127.868 136.586  0.00  0.00    +0.000 A 
ATOM     19  C   UNL     1     112.914 128.999 136.904  0.00  0.00    +0.000 A 
ATOM     20  C   UNL     1     114.022 128.264 135.927  0.00  0.00    +0.000 A 
ATOM     21  C   UNL     1     113.210 129.397 136.244  0.00  0.00    +0.000 A 
ATOM     22  C   UNL     1     113.764 129.029 135.756  0.00  0.00    +0.000 A 
ENDBRANCH   7  17
ENDBRANCH   1   6
BRANCH   1  30
ATOM     23  O   UNL     1     112.019 126.080 136.674  0.00  0.00    +0.000 OA
ATOM     24  O   UNL     1     109.861 125.890 135.477  0.00  0.00    +0.000 OA
ATOM     25  O   UNL     1     110.872 124.590 135.566  0.00  0.00    +0.000 OA
ATOM     26  C   UNL     1     110.580 125.954 135.876  0.00  0.00    +0.000 C 
ATOM     27  C   UNL     1     111.085 125.303 135.920  0.00  0.00    +0.000 C 
ATOM     28  C   UNL     1     110.794 126.668 136.230  0.00  0.00    +0.000 C 
ATOM     29  C   UNL     1     111.805 125.367 136.319  0.00  0.00    +0.000 C 
ATOM     30  C   UNL     1     111.513 126.731 136.630  0.00  0.00    +0.000 C 
BRANCH  29  32
ATOM     31  O   UNL     1     113.105 124.797 136.153  0.00  0.00    +0.000 OA
ATOM     32  C   UNL     1     112.310 124.716 136.364  0.00  0.00    +0.000 C 
ENDBRANCH  29  32
BRANCH  28  33
ATOM     33  O   UNL     1     110.289 127.318 136.186  0.00  0.00    +0.000 OA
BRANCH  33  35
ATOM     34  O   UNL     1     110.526 127.411 134.780  0.00  0.00    +0.000 OA
ATOM     35  C   UNL     1     110.185 127.711 135.468  0.00  0.00    +0.000 C 
BRANCH  35  39
ATOM     36  O   UNL     1     109.885 130.422 134.613  0.00  0.00    +0.000 OA
ATOM     37  O   UNL     1     107.824 129.170 136.147  0.00  0.00    +0.000 OA
ATOM     38  O   UNL     1     108.411 130.491 135.350  0.00  0.00    +0.000 OA
ATOM     39  C   UNL     1     109.741 128.407 135.439  0.00  0.00    +0.000 A 
ATOM     40  C   UNL     1     109.004 128.441 135.807  0.00  0.00    +0.000 A 
ATOM     41  C   UNL     1     110.035 129.066 135.041  0.00  0.00    +0.000 A 
ATOM     42  C   UNL     1     109.591 129.762 135.011  0.00  0.00    +0.000 A 
ATOM     43  C   UNL     1     108.561 129.136 135.778  0.00  0.00    +0.000 A 
ATOM     44  C   UNL     1     108.854 129.797 135.380  0.00  0.00    +0.000 A 
ENDBRANCH  35  39
ENDBRANCH  33  35
ENDBRANCH  28  33
ENDBRANCH   1  30
TORSDOF 7
ENDMDL
MODEL 3
REMARK VINA RESULT:      -9.9      1.508      4.161
REMARK  Name = 44259121
REMARK  7 active torsions:
REMARK  status: ('A' for Active; 'I' for Inactive)
REMARK    1  A    between atoms: O_2  and  C_19
REMARK    2  A    between atoms: O_2  and  C_24
REMARK    3  A    between atoms: O_3  and  C_21
REMARK    4  A    between atoms: O_3  and  C_23
REMARK    5  A    between atoms: C_20  and  C_22
REMARK    6  A    between atoms: C_24  and  C_27
REMARK    7  A    between atoms: C_25  and  C_30
REMARK                            x       y       z     vdW  Elec       q    Type
REMARK                         _______ _______ _______ _____ _____    ______ ____
ROOT
ATOM      1  O   UNL     1     112.131 127.823 137.660  0.00  0.00    +0.000 OA
ENDROOT
BRANCH   1   6
ATOM      2  O   UNL     1     112.505 126.260 136.184  0.00  0.00    +0.000 OA
ATOM      3  O   UNL     1     111.540 126.500 138.450  0.00  0.00    +0.000 OA
ATOM      4  O   UNL     1     111.256 125.087 138.511  0.00  0.00    +0.000 OA
ATOM      5  O   UNL     1     111.962 123.399 136.235  0.00  0.00    +0.000 OA
ATOM      6  C   UNL     1     112.157 127.081 137.300  0.00  0.00    +0.000 A 
ATOM      7  C   UNL     1     112.479 127.001 136.544  0.00  0.00    +0.000 A 
ATOM      8  C   UNL     1     111.861 126.421 137.694  0.00  0.00    +0.000 A 
ATOM      9  C   UNL     1     111.887 125.679 137.334  0.00  0.00    +0.000 A 
ATOM     10  C   UNL     1     112.209 125.598 136.579  0.00  0.00    +0.000 A 
ATOM     11  C   UNL     1     111.576 124.997 137.755  0.00  0.00    +0.000 A 
ATOM     12  C   UNL     1     112.242 124.831 136.192  0.00  0.00    +0.000 A 
ATOM     13  C   UNL     1     111.600 124.222 137.385  0.00  0.00    +0.000 A 
ATOM     14  C   UNL     1     111.935 124.139 136.598  0.00  0.00    +0.000 A 
BRANCH   7  17
ATOM     15  O   UNL     1     112.153 129.082 134.612  0.00  0.00    +0.000 OA
ATOM     16  O   UNL     1     113.664 129.646 134.964  0.00  0.00    +0.000 OA
ATOM     17  C   UNL     1     112.775 127.662 136.149  0.00  0.00    +0.000 A 
ATOM     18  C   UNL     1     112.316 128.042 135.578  0.00  0.00    +0.000 A 
ATOM     19  C   UNL     1     113.530 127.944 136.325  0.00  0.00    +0.000 A 
ATOM     20  C   UNL     1     112.612 128.702 135.184  0.00  0.00    +0.000 A 
ATOM     21  C   UNL     1     113.827 128.605 135.930  0.00  0.00    +0.000 A 
ATOM     22  C   UNL     1     113.367 128.984 135.360  0.00  0.00    +0.000 A 
ENDBRANCH   7  17
ENDBRANCH   1   6
BRANCH   1  30
ATOM     23  O   UNL     1     110.727 127.999 137.461  0.00  0.00    +0.000 OA
ATOM     24  O   UNL     1     110.606 129.360 139.525  0.00  0.00    +0.000 OA
ATOM     25  O   UNL     1     109.243 129.082 138.639  0.00  0.00    +0.000 OA
ATOM     26  C   UNL     1     110.646 128.906 138.837  0.00  0.00    +0.000 C 
ATOM     27  C   UNL     1     109.965 128.768 138.394  0.00  0.00    +0.000 C 
ATOM     28  C   UNL     1     111.369 128.591 138.593  0.00  0.00    +0.000 C 
ATOM     29  C   UNL     1     110.005 128.314 137.706  0.00  0.00    +0.000 C 
ATOM     30  C   UNL     1     111.410 128.138 137.905  0.00  0.00    +0.000 C 
BRANCH  29  32
ATOM     31  O   UNL     1     109.243 128.515 136.515  0.00  0.00    +0.000 OA
ATOM     32  C   UNL     1     109.324 128.175 137.263  0.00  0.00    +0.000 C 
ENDBRANCH  29  32
BRANCH  28  33
ATOM     33  O   UNL     1     112.050 128.730 139.036  0.00  0.00    +0.000 OA
BRANCH  33  35
ATOM     34  O   UNL     1     112.062 130.089 138.594  0.00  0.00    +0.000 OA
ATOM     35  C   UNL     1     112.403 129.476 139.027  0.00  0.00    +0.000 C 
BRANCH  35  39
ATOM     36  O   UNL     1     114.640 131.140 139.657  0.00  0.00    +0.000 OA
ATOM     37  O   UNL     1     114.334 128.609 140.948  0.00  0.00    +0.000 OA
ATOM     38  O   UNL     1     115.182 130.008 140.727  0.00  0.00    +0.000 OA
ATOM     39  C   UNL     1     113.098 129.609 139.453  0.00  0.00    +0.000 A 
ATOM     40  C   UNL     1     113.369 129.042 139.988  0.00  0.00    +0.000 A 
ATOM     41  C   UNL     1     113.521 130.308 139.342  0.00  0.00    +0.000 A 
ATOM     42  C   UNL     1     114.216 130.441 139.767  0.00  0.00    +0.000 A 
ATOM     43  C   UNL     1     114.063 129.175 140.412  0.00  0.00    +0.000 A 
ATOM     44  C   UNL     1     114.487 129.875 140.303  0.00  0.00    +0.000 A 
ENDBRANCH  35  39
ENDBRANCH  33  35
ENDBRANCH  28  33
ENDBRANCH   1  30
TORSDOF 7
ENDMDL
MODEL 4
REMARK VINA RESULT:      -9.8      2.094      5.124
REMARK  Name = 44259121
REMARK  7 active torsions:
REMARK  status: ('A' for Active; 'I' for Inactive)
REMARK    1  A    between atoms: O_2  and  C_19
REMARK    2  A    between atoms: O_2  and  C_24
REMARK    3  A    between atoms: O_3  and  C_21
REMARK    4  A    between atoms: O_3  and  C_23
REMARK    5  A    between atoms: C_20  and  C_22
REMARK    6  A    between atoms: C_24  and  C_27
REMARK    7  A    between atoms: C_25  and  C_30
REMARK                            x       y       z     vdW  Elec       q    Type
REMARK                         _______ _______ _______ _____ _____    ______ ____
ROOT
ATOM      1  O   UNL     1     110.121 129.833 138.175  0.00  0.00    +0.000 OA
ENDROOT
BRANCH   1   6
ATOM      2  O   UNL     1     111.565 128.201 138.050  0.00  0.00    +0.000 OA
ATOM      3  O   UNL     1     109.194 128.559 138.665  0.00  0.00    +0.000 OA
ATOM      4  O   UNL     1     109.028 127.156 138.960  0.00  0.00    +0.000 OA
ATOM      5  O   UNL     1     111.304 125.358 138.627  0.00  0.00    +0.000 OA
ATOM      6  C   UNL     1     110.448 129.076 138.215  0.00  0.00    +0.000 A 
ATOM      7  C   UNL     1     111.238 128.957 138.010  0.00  0.00    +0.000 A 
ATOM      8  C   UNL     1     109.985 128.440 138.460  0.00  0.00    +0.000 A 
ATOM      9  C   UNL     1     110.311 127.684 138.500  0.00  0.00    +0.000 A 
ATOM     10  C   UNL     1     111.101 127.563 138.296  0.00  0.00    +0.000 A 
ATOM     11  C   UNL     1     109.818 127.027 138.757  0.00  0.00    +0.000 A 
ATOM     12  C   UNL     1     111.453 126.781 138.333  0.00  0.00    +0.000 A 
ATOM     13  C   UNL     1     110.153 126.238 138.801  0.00  0.00    +0.000 A 
ATOM     14  C   UNL     1     110.975 126.113 138.587  0.00  0.00    +0.000 A 
BRANCH   7  17
ATOM     15  O   UNL     1     113.189 130.965 138.586  0.00  0.00    +0.000 OA
ATOM     16  O   UNL     1     113.093 131.505 137.030  0.00  0.00    +0.000 OA
ATOM     17  C   UNL     1     111.702 129.594 137.766  0.00  0.00    +0.000 A 
ATOM     18  C   UNL     1     112.214 129.961 138.298  0.00  0.00    +0.000 A 
ATOM     19  C   UNL     1     111.654 129.863 136.987  0.00  0.00    +0.000 A 
ATOM     20  C   UNL     1     112.677 130.598 138.054  0.00  0.00    +0.000 A 
ATOM     21  C   UNL     1     112.118 130.501 136.742  0.00  0.00    +0.000 A 
ATOM     22  C   UNL     1     112.629 130.867 137.275  0.00  0.00    +0.000 A 
ENDBRANCH   7  17
ENDBRANCH   1   6
BRANCH   1  30
ATOM     23  O   UNL     1     110.106 130.034 139.590  0.00  0.00    +0.000 OA
ATOM     24  O   UNL     1     108.091 131.454 139.365  0.00  0.00    +0.000 OA
ATOM     25  O   UNL     1     108.747 131.182 140.854  0.00  0.00    +0.000 OA
ATOM     26  C   UNL     1     108.763 130.981 139.440  0.00  0.00    +0.000 C 
ATOM     27  C   UNL     1     109.090 130.845 140.184  0.00  0.00    +0.000 C 
ATOM     28  C   UNL     1     109.106 130.644 138.770  0.00  0.00    +0.000 C 
ATOM     29  C   UNL     1     109.761 130.371 140.259  0.00  0.00    +0.000 C 
ATOM     30  C   UNL     1     109.777 130.170 138.844  0.00  0.00    +0.000 C 
BRANCH  29  32
ATOM     31  O   UNL     1     110.856 130.493 141.170  0.00  0.00    +0.000 OA
ATOM     32  C   UNL     1     110.090 130.235 141.003  0.00  0.00    +0.000 C 
ENDBRANCH  29  32
BRANCH  28  33
ATOM     33  O   UNL     1     108.778 130.780 138.025  0.00  0.00    +0.000 OA
BRANCH  33  35
ATOM     34  O   UNL     1     109.155 132.156 138.109  0.00  0.00    +0.000 OA
ATOM     35  C   UNL     1     108.828 131.529 137.684  0.00  0.00    +0.000 C 
BRANCH  35  39
ATOM     36  O   UNL     1     109.215 132.566 135.049  0.00  0.00    +0.000 OA
ATOM     37  O   UNL     1     106.778 131.230 135.715  0.00  0.00    +0.000 OA
ATOM     38  O   UNL     1     107.719 132.021 134.615  0.00  0.00    +0.000 OA
ATOM     39  C   UNL     1     108.551 131.652 136.916  0.00  0.00    +0.000 A 
ATOM     40  C   UNL     1     107.803 131.380 136.699  0.00  0.00    +0.000 A 
ATOM     41  C   UNL     1     109.022 132.048 136.366  0.00  0.00    +0.000 A 
ATOM     42  C   UNL     1     108.744 132.171 135.598  0.00  0.00    +0.000 A 
ATOM     43  C   UNL     1     107.526 131.503 135.932  0.00  0.00    +0.000 A 
ATOM     44  C   UNL     1     107.996 131.898 135.381  0.00  0.00    +0.000 A 
ENDBRANCH  35  39
ENDBRANCH  33  35
ENDBRANCH  28  33
ENDBRANCH   1  30
TORSDOF 7
ENDMDL
MODEL 5
REMARK VINA RESULT:      -9.8      1.962      4.315
REMARK  Name = 44259121
REMARK  7 active torsions:
REMARK  status: ('A' for Active; 'I' for Inactive)
REMARK    1  A    between atoms: O_2  and  C_19
REMARK    2  A    between atoms: O_2  and  C_24
REMARK    3  A    between atoms: O_3  and  C_21
REMARK    4  A    between atoms: O_3  and  C_23
REMARK    5  A    between atoms: C_20  and  C_22
REMARK    6  A    between atoms: C_24  and  C_27
REMARK    7  A    between atoms: C_25  and  C_30
REMARK                            x       y       z     vdW  Elec       q    Type
REMARK                         _______ _______ _______ _____ _____    ______ ____
ROOT
ATOM      1  O   UNL     1     112.173 126.905 137.280  0.00  0.00    +0.000 OA
ENDROOT
BRANCH   1   6
ATOM      2  O   UNL     1     113.962 127.468 136.164  0.00  0.00    +0.000 OA
ATOM      3  O   UNL     1     111.780 128.438 136.815  0.00  0.00    +0.000 OA
ATOM      4  O   UNL     1     112.092 129.671 136.134  0.00  0.00    +0.000 OA
ATOM      5  O   UNL     1     114.660 129.927 134.768  0.00  0.00    +0.000 OA
ATOM      6  C   UNL     1     112.704 127.348 136.830  0.00  0.00    +0.000 A 
ATOM      7  C   UNL     1     113.431 127.024 136.613  0.00  0.00    +0.000 A 
ATOM      8  C   UNL     1     112.507 128.114 136.598  0.00  0.00    +0.000 A 
ATOM      9  C   UNL     1     113.038 128.558 136.149  0.00  0.00    +0.000 A 
ATOM     10  C   UNL     1     113.765 128.235 135.931  0.00  0.00    +0.000 A 
ATOM     11  C   UNL     1     112.822 129.356 135.912  0.00  0.00    +0.000 A 
ATOM     12  C   UNL     1     114.327 128.686 135.463  0.00  0.00    +0.000 A 
ATOM     13  C   UNL     1     113.371 129.822 135.444  0.00  0.00    +0.000 A 
ATOM     14  C   UNL     1     114.128 129.485 135.218  0.00  0.00    +0.000 A 
BRANCH   7  17
ATOM     15  O   UNL     1     113.596 124.229 136.039  0.00  0.00    +0.000 OA
ATOM     16  O   UNL     1     114.218 123.957 137.543  0.00  0.00    +0.000 OA
ATOM     17  C   UNL     1     113.627 126.258 136.846  0.00  0.00    +0.000 A 
ATOM     18  C   UNL     1     113.514 125.627 136.326  0.00  0.00    +0.000 A 
ATOM     19  C   UNL     1     113.938 126.122 137.598  0.00  0.00    +0.000 A 
ATOM     20  C   UNL     1     113.710 124.861 136.559  0.00  0.00    +0.000 A 
ATOM     21  C   UNL     1     114.135 125.355 137.830  0.00  0.00    +0.000 A 
ATOM     22  C   UNL     1     114.021 124.725 137.311  0.00  0.00    +0.000 A 
ENDBRANCH   7  17
ENDBRANCH   1   6
BRANCH   1  30
ATOM     23  O   UNL     1     111.277 126.630 136.202  0.00  0.00    +0.000 OA
ATOM     24  O   UNL     1     109.369 126.666 137.778  0.00  0.00    +0.000 OA
ATOM     25  O   UNL     1     109.109 126.380 136.175  0.00  0.00    +0.000 OA
ATOM     26  C   UNL     1     110.005 126.654 137.253  0.00  0.00    +0.000 C 
ATOM     27  C   UNL     1     109.874 126.511 136.451  0.00  0.00    +0.000 C 
ATOM     28  C   UNL     1     110.771 126.786 137.530  0.00  0.00    +0.000 C 
ATOM     29  C   UNL     1     110.510 126.499 135.926  0.00  0.00    +0.000 C 
ATOM     30  C   UNL     1     111.407 126.774 137.004  0.00  0.00    +0.000 C 
BRANCH  29  32
ATOM     31  O   UNL     1     110.685 125.673 134.773  0.00  0.00    +0.000 OA
ATOM     32  C   UNL     1     110.381 126.356 135.124  0.00  0.00    +0.000 C 
ENDBRANCH  29  32
BRANCH  28  33
ATOM     33  O   UNL     1     110.901 126.929 138.331  0.00  0.00    +0.000 OA
BRANCH  33  35
ATOM     34  O   UNL     1     110.699 125.543 138.616  0.00  0.00    +0.000 OA
ATOM     35  C   UNL     1     110.828 126.315 138.877  0.00  0.00    +0.000 C 
BRANCH  35  39
ATOM     36  O   UNL     1     112.417 126.865 141.188  0.00  0.00    +0.000 OA
ATOM     37  O   UNL     1     109.573 126.708 141.414  0.00  0.00    +0.000 OA
ATOM     38  O   UNL     1     111.051 126.943 142.109  0.00  0.00    +0.000 OA
ATOM     39  C   UNL     1     110.883 126.472 139.686  0.00  0.00    +0.000 A 
ATOM     40  C   UNL     1     110.200 126.511 140.146  0.00  0.00    +0.000 A 
ATOM     41  C   UNL     1     111.623 126.590 140.032  0.00  0.00    +0.000 A 
ATOM     42  C   UNL     1     111.678 126.747 140.841  0.00  0.00    +0.000 A 
ATOM     43  C   UNL     1     110.256 126.668 140.954  0.00  0.00    +0.000 A 
ATOM     44  C   UNL     1     110.995 126.786 141.302  0.00  0.00    +0.000 A 
ENDBRANCH  35  39
ENDBRANCH  33  35
ENDBRANCH  28  33
ENDBRANCH   1  30
TORSDOF 7
ENDMDL
MODEL 6
REMARK VINA RESULT:      -9.7      1.391      5.153
REMARK  Name = 44259121
REMARK  7 active torsions:
REMARK  status: ('A' for Active; 'I' for Inactive)
REMARK    1  A    between atoms: O_2  and  C_19
REMARK    2  A    between atoms: O_2  and  C_24
REMARK    3  A    between atoms: O_3  and  C_21
REMARK    4  A    between atoms: O_3  and  C_23
REMARK    5  A    between atoms: C_20  and  C_22
REMARK    6  A    between atoms: C_24  and  C_27
REMARK    7  A    between atoms: C_25  and  C_30
REMARK                            x       y       z     vdW  Elec       q    Type
REMARK                         _______ _______ _______ _____ _____    ______ ____
ROOT
ATOM      1  O   UNL     1     112.290 127.334 137.064  0.00  0.00    +0.000 OA
ENDROOT
BRANCH   1   6
ATOM      2  O   UNL     1     113.053 126.235 138.788  0.00  0.00    +0.000 OA
ATOM      3  O   UNL     1     112.789 128.576 138.029  0.00  0.00    +0.000 OA
ATOM      4  O   UNL     1     113.379 129.069 139.250  0.00  0.00    +0.000 OA
ATOM      5  O   UNL     1     114.252 127.157 141.277  0.00  0.00    +0.000 OA
ATOM      6  C   UNL     1     112.628 127.175 137.800  0.00  0.00    +0.000 A 
ATOM      7  C   UNL     1     112.715 126.394 138.052  0.00  0.00    +0.000 A 
ATOM      8  C   UNL     1     112.877 127.795 138.282  0.00  0.00    +0.000 A 
ATOM      9  C   UNL     1     113.214 127.636 139.017  0.00  0.00    +0.000 A 
ATOM     10  C   UNL     1     113.303 126.856 139.271  0.00  0.00    +0.000 A 
ATOM     11  C   UNL     1     113.471 128.292 139.512  0.00  0.00    +0.000 A 
ATOM     12  C   UNL     1     113.653 126.677 140.035  0.00  0.00    +0.000 A 
ATOM     13  C   UNL     1     113.823 128.132 140.279  0.00  0.00    +0.000 A 
ATOM     14  C   UNL     1     113.914 127.319 140.542  0.00  0.00    +0.000 A 
BRANCH   7  17
ATOM     15  O   UNL     1     113.317 124.308 136.193  0.00  0.00    +0.000 OA
ATOM     16  O   UNL     1     111.717 123.910 136.123  0.00  0.00    +0.000 OA
ATOM     17  C   UNL     1     112.466 125.774 137.570  0.00  0.00    +0.000 A 
ATOM     18  C   UNL     1     113.016 125.351 137.123  0.00  0.00    +0.000 A 
ATOM     19  C   UNL     1     111.666 125.574 137.535  0.00  0.00    +0.000 A 
ATOM     20  C   UNL     1     112.767 124.731 136.641  0.00  0.00    +0.000 A 
ATOM     21  C   UNL     1     111.416 124.953 137.053  0.00  0.00    +0.000 A 
ATOM     22  C   UNL     1     111.967 124.531 136.606  0.00  0.00    +0.000 A 
ENDBRANCH   7  17
ENDBRANCH   1   6
BRANCH   1  30
ATOM     23  O   UNL     1     113.519 127.668 136.416  0.00  0.00    +0.000 OA
ATOM     24  O   UNL     1     112.330 129.325 135.014  0.00  0.00    +0.000 OA
ATOM     25  O   UNL     1     113.954 129.106 134.834  0.00  0.00    +0.000 OA
ATOM     26  C   UNL     1     112.726 128.772 135.481  0.00  0.00    +0.000 C 
ATOM     27  C   UNL     1     113.538 128.664 135.391  0.00  0.00    +0.000 C 
ATOM     28  C   UNL     1     112.309 128.330 136.039  0.00  0.00    +0.000 C 
ATOM     29  C   UNL     1     113.935 128.111 135.858  0.00  0.00    +0.000 C 
ATOM     30  C   UNL     1     112.706 127.777 136.506  0.00  0.00    +0.000 C 
BRANCH  29  32
ATOM     31  O   UNL     1     115.042 127.263 135.545  0.00  0.00    +0.000 OA
ATOM     32  C   UNL     1     114.747 128.002 135.768  0.00  0.00    +0.000 C 
ENDBRANCH  29  32
BRANCH  28  33
ATOM     33  O   UNL     1     111.497 128.438 136.129  0.00  0.00    +0.000 OA
BRANCH  33  35
ATOM     34  O   UNL     1     111.267 127.770 134.887  0.00  0.00    +0.000 OA
ATOM     35  C   UNL     1     110.979 128.182 135.541  0.00  0.00    +0.000 C 
BRANCH  35  39
ATOM     36  O   UNL     1     108.784 130.001 135.339  0.00  0.00    +0.000 OA
ATOM     37  O   UNL     1     108.328 127.294 136.135  0.00  0.00    +0.000 OA
ATOM     38  O   UNL     1     107.748 128.802 135.802  0.00  0.00    +0.000 OA
ATOM     39  C   UNL     1     110.170 128.337 135.606  0.00  0.00    +0.000 A 
ATOM     40  C   UNL     1     109.653 127.738 135.838  0.00  0.00    +0.000 A 
ATOM     41  C   UNL     1     109.881 129.091 135.440  0.00  0.00    +0.000 A 
ATOM     42  C   UNL     1     109.073 129.246 135.505  0.00  0.00    +0.000 A 
ATOM     43  C   UNL     1     108.846 127.893 135.903  0.00  0.00    +0.000 A 
ATOM     44  C   UNL     1     108.555 128.647 135.737  0.00  0.00    +0.000 A 
ENDBRANCH  35  39
ENDBRANCH  33  35
ENDBRANCH  28  33
ENDBRANCH   1  30
TORSDOF 7
ENDMDL
MODEL 7
REMARK VINA RESULT:      -9.7      1.746      1.995
REMARK  Name = 44259121
REMARK  7 active torsions:
REMARK  status: ('A' for Active; 'I' for Inactive)
REMARK    1  A    between atoms: O_2  and  C_19
REMARK    2  A    between atoms: O_2  and  C_24
REMARK    3  A    between atoms: O_3  and  C_21
REMARK    4  A    between atoms: O_3  and  C_23
REMARK    5  A    between atoms: C_20  and  C_22
REMARK    6  A    between atoms: C_24  and  C_27
REMARK    7  A    between atoms: C_25  and  C_30
REMARK                            x       y       z     vdW  Elec       q    Type
REMARK                         _______ _______ _______ _____ _____    ______ ____
ROOT
ATOM      1  O   UNL     1     112.621 129.284 137.922  0.00  0.00    +0.000 OA
ENDROOT
BRANCH   1   6
ATOM      2  O   UNL     1     112.110 131.103 136.829  0.00  0.00    +0.000 OA
ATOM      3  O   UNL     1     111.433 129.904 138.886  0.00  0.00    +0.000 OA
ATOM      4  O   UNL     1     110.455 130.919 139.191  0.00  0.00    +0.000 OA
ATOM      5  O   UNL     1     110.156 133.190 137.380  0.00  0.00    +0.000 OA
ATOM      6  C   UNL     1     112.253 129.994 137.718  0.00  0.00    +0.000 A 
ATOM      7  C   UNL     1     112.479 130.393 137.033  0.00  0.00    +0.000 A 
ATOM      8  C   UNL     1     111.659 130.303 138.200  0.00  0.00    +0.000 A 
ATOM      9  C   UNL     1     111.291 131.013 137.997  0.00  0.00    +0.000 A 
ATOM     10  C   UNL     1     111.516 131.413 137.311  0.00  0.00    +0.000 A 
ATOM     11  C   UNL     1     110.674 131.326 138.507  0.00  0.00    +0.000 A 
ATOM     12  C   UNL     1     111.141 132.153 137.088  0.00  0.00    +0.000 A 
ATOM     13  C   UNL     1     110.287 132.064 138.300  0.00  0.00    +0.000 A 
ATOM     14  C   UNL     1     110.522 132.480 137.586  0.00  0.00    +0.000 A 
BRANCH   7  17
ATOM     15  O   UNL     1     115.196 130.386 136.147  0.00  0.00    +0.000 OA
ATOM     16  O   UNL     1     114.853 129.154 135.104  0.00  0.00    +0.000 OA
ATOM     17  C   UNL     1     113.072 130.084 136.551  0.00  0.00    +0.000 A 
ATOM     18  C   UNL     1     113.837 130.390 136.590  0.00  0.00    +0.000 A 
ATOM     19  C   UNL     1     112.900 129.468 136.030  0.00  0.00    +0.000 A 
ATOM     20  C   UNL     1     114.430 130.080 136.108  0.00  0.00    +0.000 A 
ATOM     21  C   UNL     1     113.494 129.158 135.547  0.00  0.00    +0.000 A 
ATOM     22  C   UNL     1     114.259 129.464 135.587  0.00  0.00    +0.000 A 
ENDBRANCH   7  17
ENDBRANCH   1   6
BRANCH   1  30
ATOM     23  O   UNL     1     113.412 129.846 138.971  0.00  0.00    +0.000 OA
ATOM     24  O   UNL     1     113.288 127.707 140.210  0.00  0.00    +0.000 OA
ATOM     25  O   UNL     1     114.120 128.982 140.845  0.00  0.00    +0.000 OA
ATOM     26  C   UNL     1     113.330 128.420 139.797  0.00  0.00    +0.000 C 
ATOM     27  C   UNL     1     113.746 129.057 140.115  0.00  0.00    +0.000 C 
ATOM     28  C   UNL     1     112.954 128.495 139.066  0.00  0.00    +0.000 C 
ATOM     29  C   UNL     1     113.787 129.770 139.702  0.00  0.00    +0.000 C 
ATOM     30  C   UNL     1     112.995 129.208 138.653  0.00  0.00    +0.000 C 
BRANCH  29  32
ATOM     31  O   UNL     1     114.844 130.727 139.608  0.00  0.00    +0.000 OA
ATOM     32  C   UNL     1     114.203 130.407 140.019  0.00  0.00    +0.000 C 
ENDBRANCH  29  32
BRANCH  28  33
ATOM     33  O   UNL     1     112.538 127.858 138.748  0.00  0.00    +0.000 OA
BRANCH  33  35
ATOM     34  O   UNL     1     113.769 127.168 138.520  0.00  0.00    +0.000 OA
ATOM     35  C   UNL     1     112.945 127.193 138.478  0.00  0.00    +0.000 C 
BRANCH  35  39
ATOM     36  O   UNL     1     112.445 125.380 136.326  0.00  0.00    +0.000 OA
ATOM     37  O   UNL     1     110.948 125.167 138.751  0.00  0.00    +0.000 OA
ATOM     38  O   UNL     1     111.280 124.634 137.225  0.00  0.00    +0.000 OA
ATOM     39  C   UNL     1     112.529 126.553 138.165  0.00  0.00    +0.000 A 
ATOM     40  C   UNL     1     111.946 126.180 138.614  0.00  0.00    +0.000 A 
ATOM     41  C   UNL     1     112.695 126.287 137.402  0.00  0.00    +0.000 A 
ATOM     42  C   UNL     1     112.278 125.647 137.089  0.00  0.00    +0.000 A 
ATOM     43  C   UNL     1     111.531 125.540 138.301  0.00  0.00    +0.000 A 
ATOM     44  C   UNL     1     111.696 125.273 137.538  0.00  0.00    +0.000 A 
ENDBRANCH  35  39
ENDBRANCH  33  35
ENDBRANCH  28  33
ENDBRANCH   1  30
TORSDOF 7
ENDMDL
MODEL 8
REMARK VINA RESULT:      -9.6      1.714      4.128
REMARK  Name = 44259121
REMARK  7 active torsions:
REMARK  status: ('A' for Active; 'I' for Inactive)
REMARK    1  A    between atoms: O_2  and  C_19
REMARK    2  A    between atoms: O_2  and  C_24
REMARK    3  A    between atoms: O_3  and  C_21
REMARK    4  A    between atoms: O_3  and  C_23
REMARK    5  A    between atoms: C_20  and  C_22
REMARK    6  A    between atoms: C_24  and  C_27
REMARK    7  A    between atoms: C_25  and  C_30
REMARK                            x       y       z     vdW  Elec       q    Type
REMARK                         _______ _______ _______ _____ _____    ______ ____
ROOT
ATOM      1  O   UNL     1     111.256 128.173 137.129  0.00  0.00    +0.000 OA
ENDROOT
BRANCH   1   6
ATOM      2  O   UNL     1     112.888 128.022 135.688  0.00  0.00    +0.000 OA
ATOM      3  O   UNL     1     112.038 129.603 137.393  0.00  0.00    +0.000 OA
ATOM      4  O   UNL     1     113.103 130.532 137.104  0.00  0.00    +0.000 OA
ATOM      5  O   UNL     1     115.065 129.849 135.053  0.00  0.00    +0.000 OA
ATOM      6  C   UNL     1     111.931 128.361 136.693  0.00  0.00    +0.000 A 
ATOM      7  C   UNL     1     112.214 127.834 136.125  0.00  0.00    +0.000 A 
ATOM      8  C   UNL     1     112.321 129.075 136.824  0.00  0.00    +0.000 A 
ATOM      9  C   UNL     1     112.995 129.264 136.388  0.00  0.00    +0.000 A 
ATOM     10  C   UNL     1     113.279 128.737 135.820  0.00  0.00    +0.000 A 
ATOM     11  C   UNL     1     113.394 130.011 136.534  0.00  0.00    +0.000 A 
ATOM     12  C   UNL     1     113.980 128.921 135.358  0.00  0.00    +0.000 A 
ATOM     13  C   UNL     1     114.096 130.212 136.082  0.00  0.00    +0.000 A 
ATOM     14  C   UNL     1     114.391 129.664 135.491  0.00  0.00    +0.000 A 
BRANCH   7  17
ATOM     15  O   UNL     1     110.364 126.266 134.612  0.00  0.00    +0.000 OA
ATOM     16  O   UNL     1     110.653 124.975 135.598  0.00  0.00    +0.000 OA
ATOM     17  C   UNL     1     111.824 127.120 135.993  0.00  0.00    +0.000 A 
ATOM     18  C   UNL     1     111.289 127.050 135.369  0.00  0.00    +0.000 A 
ATOM     19  C   UNL     1     111.968 126.474 136.486  0.00  0.00    +0.000 A 
ATOM     20  C   UNL     1     110.899 126.336 135.237  0.00  0.00    +0.000 A 
ATOM     21  C   UNL     1     111.578 125.759 136.354  0.00  0.00    +0.000 A 
ATOM     22  C   UNL     1     111.043 125.690 135.730  0.00  0.00    +0.000 A 
ENDBRANCH   7  17
ENDBRANCH   1   6
BRANCH   1  30
ATOM     23  O   UNL     1     110.400 129.085 136.438  0.00  0.00    +0.000 OA
ATOM     24  O   UNL     1     109.081 129.414 138.506  0.00  0.00    +0.000 OA
ATOM     25  O   UNL     1     108.665 130.215 137.125  0.00  0.00    +0.000 OA
ATOM     26  C   UNL     1     109.521 129.304 137.816  0.00  0.00    +0.000 C 
ATOM     27  C   UNL     1     109.313 129.705 137.127  0.00  0.00    +0.000 C 
ATOM     28  C   UNL     1     110.169 128.794 137.818  0.00  0.00    +0.000 C 
ATOM     29  C   UNL     1     109.752 129.595 136.437  0.00  0.00    +0.000 C 
ATOM     30  C   UNL     1     110.609 128.684 137.129  0.00  0.00    +0.000 C 
BRANCH  29  32
ATOM     31  O   UNL     1     109.312 129.570 135.078  0.00  0.00    +0.000 OA
ATOM     32  C   UNL     1     109.545 129.995 135.747  0.00  0.00    +0.000 C 
ENDBRANCH  29  32
BRANCH  28  33
ATOM     33  O   UNL     1     110.377 128.393 138.508  0.00  0.00    +0.000 OA
BRANCH  33  35
ATOM     34  O   UNL     1     109.210 127.577 138.389  0.00  0.00    +0.000 OA
ATOM     35  C   UNL     1     109.911 127.768 138.779  0.00  0.00    +0.000 C 
BRANCH  35  39
ATOM     36  O   UNL     1     110.047 125.288 140.191  0.00  0.00    +0.000 OA
ATOM     37  O   UNL     1     111.184 127.647 141.335  0.00  0.00    +0.000 OA
ATOM     38  O   UNL     1     110.850 126.034 141.424  0.00  0.00    +0.000 OA
ATOM     39  C   UNL     1     110.146 127.335 139.441  0.00  0.00    +0.000 A 
ATOM     40  C   UNL     1     110.548 127.708 140.057  0.00  0.00    +0.000 A 
ATOM     41  C   UNL     1     109.979 126.528 139.485  0.00  0.00    +0.000 A 
ATOM     42  C   UNL     1     110.214 126.094 140.147  0.00  0.00    +0.000 A 
ATOM     43  C   UNL     1     110.782 127.274 140.718  0.00  0.00    +0.000 A 
ATOM     44  C   UNL     1     110.616 126.467 140.764  0.00  0.00    +0.000 A 
ENDBRANCH  35  39
ENDBRANCH  33  35
ENDBRANCH  28  33
ENDBRANCH   1  30
TORSDOF 7
ENDMDL
MODEL 9
REMARK VINA RESULT:      -9.6      1.431      3.532
REMARK  Name = 44259121
REMARK  7 active torsions:
REMARK  status: ('A' for Active; 'I' for Inactive)
REMARK    1  A    between atoms: O_2  and  C_19
REMARK    2  A    between atoms: O_2  and  C_24
REMARK    3  A    between atoms: O_3  and  C_21
REMARK    4  A    between atoms: O_3  and  C_23
REMARK    5  A    between atoms: C_20  and  C_22
REMARK    6  A    between atoms: C_24  and  C_27
REMARK    7  A    between atoms: C_25  and  C_30
REMARK                            x       y       z     vdW  Elec       q    Type
REMARK                         _______ _______ _______ _____ _____    ______ ____
ROOT
ATOM      1  O   UNL     1     112.305 129.197 137.928  0.00  0.00    +0.000 OA
ENDROOT
BRANCH   1   6
ATOM      2  O   UNL     1     111.425 130.066 136.130  0.00  0.00    +0.000 OA
ATOM      3  O   UNL     1     110.708 128.859 138.168  0.00  0.00    +0.000 OA
ATOM      4  O   UNL     1     109.329 128.910 137.748  0.00  0.00    +0.000 OA
ATOM      5  O   UNL     1     108.663 130.207 135.218  0.00  0.00    +0.000 OA
ATOM      6  C   UNL     1     111.746 129.431 137.369  0.00  0.00    +0.000 A 
ATOM      7  C   UNL     1     111.985 129.833 136.689  0.00  0.00    +0.000 A 
ATOM      8  C   UNL     1     110.948 129.262 137.489  0.00  0.00    +0.000 A 
ATOM      9  C   UNL     1     110.388 129.495 136.930  0.00  0.00    +0.000 A 
ATOM     10  C   UNL     1     110.626 129.897 136.250  0.00  0.00    +0.000 A 
ATOM     11  C   UNL     1     109.559 129.313 137.066  0.00  0.00    +0.000 A 
ATOM     12  C   UNL     1     110.054 130.146 135.660  0.00  0.00    +0.000 A 
ATOM     13  C   UNL     1     108.971 129.554 136.487  0.00  0.00    +0.000 A 
ATOM     14  C   UNL     1     109.221 129.973 135.779  0.00  0.00    +0.000 A 
BRANCH   7  17
ATOM     15  O   UNL     1     114.492 129.205 135.469  0.00  0.00    +0.000 OA
ATOM     16  O   UNL     1     115.179 130.510 136.209  0.00  0.00    +0.000 OA
ATOM     17  C   UNL     1     112.783 130.002 136.569  0.00  0.00    +0.000 A 
ATOM     18  C   UNL     1     113.239 129.519 136.079  0.00  0.00    +0.000 A 
ATOM     19  C   UNL     1     113.127 130.655 136.939  0.00  0.00    +0.000 A 
ATOM     20  C   UNL     1     114.036 129.688 135.959  0.00  0.00    +0.000 A 
ATOM     21  C   UNL     1     113.926 130.824 136.819  0.00  0.00    +0.000 A 
ATOM     22  C   UNL     1     114.380 130.340 136.329  0.00  0.00    +0.000 A 
ENDBRANCH   7  17
ENDBRANCH   1   6
BRANCH   1  30
ATOM     23  O   UNL     1     112.260 127.814 137.573  0.00  0.00    +0.000 OA
ATOM     24  O   UNL     1     112.783 127.196 139.912  0.00  0.00    +0.000 OA
ATOM     25  O   UNL     1     112.564 126.020 138.778  0.00  0.00    +0.000 OA
ATOM     26  C   UNL     1     112.609 127.402 139.132  0.00  0.00    +0.000 C 
ATOM     27  C   UNL     1     112.500 126.814 138.566  0.00  0.00    +0.000 C 
ATOM     28  C   UNL     1     112.544 128.197 138.921  0.00  0.00    +0.000 C 
ATOM     29  C   UNL     1     112.325 127.019 137.786  0.00  0.00    +0.000 C 
ATOM     30  C   UNL     1     112.370 128.403 138.141  0.00  0.00    +0.000 C 
BRANCH  29  32
ATOM     31  O   UNL     1     112.720 126.389 136.566  0.00  0.00    +0.000 OA
ATOM     32  C   UNL     1     112.216 126.431 137.218  0.00  0.00    +0.000 C 
ENDBRANCH  29  32
BRANCH  28  33
ATOM     33  O   UNL     1     112.654 128.786 139.487  0.00  0.00    +0.000 OA
BRANCH  33  35
ATOM     34  O   UNL     1     114.036 128.434 139.588  0.00  0.00    +0.000 OA
ATOM     35  C   UNL     1     113.404 128.920 139.803  0.00  0.00    +0.000 C 
BRANCH  35  39
ATOM     36  O   UNL     1     114.863 131.243 140.605  0.00  0.00    +0.000 OA
ATOM     37  O   UNL     1     112.665 130.320 142.182  0.00  0.00    +0.000 OA
ATOM     38  O   UNL     1     113.884 131.402 141.924  0.00  0.00    +0.000 OA
ATOM     39  C   UNL     1     113.524 129.541 140.333  0.00  0.00    +0.000 A 
ATOM     40  C   UNL     1     113.035 129.621 140.993  0.00  0.00    +0.000 A 
ATOM     41  C   UNL     1     114.134 130.082 140.204  0.00  0.00    +0.000 A 
ATOM     42  C   UNL     1     114.253 130.703 140.735  0.00  0.00    +0.000 A 
ATOM     43  C   UNL     1     113.155 130.241 141.523  0.00  0.00    +0.000 A 
ATOM     44  C   UNL     1     113.764 130.782 141.394  0.00  0.00    +0.000 A 
ENDBRANCH  35  39
ENDBRANCH  33  35
ENDBRANCH  28  33
ENDBRANCH   1  30
TORSDOF 7
ENDMDL
MODEL 10
REMARK VINA RESULT:      -9.6      1.653      3.959
REMARK  Name = 44259121
REMARK  7 active torsions:
REMARK  status: ('A' for Active; 'I' for Inactive)
REMARK    1  A    between atoms: O_2  and  C_19
REMARK    2  A    between atoms: O_2  and  C_24
REMARK    3  A    between atoms: O_3  and  C_21
REMARK    4  A    between atoms: O_3  and  C_23
REMARK    5  A    between atoms: C_20  and  C_22
REMARK    6  A    between atoms: C_24  and  C_27
REMARK    7  A    between atoms: C_25  and  C_30
REMARK                            x       y       z     vdW  Elec       q    Type
REMARK                         _______ _______ _______ _____ _____    ______ ____
ROOT
ATOM      1  O   UNL     1     112.484 127.438 137.377  0.00  0.00    +0.000 OA
ENDROOT
BRANCH   1   6
ATOM      2  O   UNL     1     111.737 125.790 136.157  0.00  0.00    +0.000 OA
ATOM      3  O   UNL     1     111.047 128.061 136.859  0.00  0.00    +0.000 OA
ATOM      4  O   UNL     1     109.820 127.952 136.108  0.00  0.00    +0.000 OA
ATOM      5  O   UNL     1     109.282 125.498 134.619  0.00  0.00    +0.000 OA
ATOM      6  C   UNL     1     111.995 126.993 136.884  0.00  0.00    +0.000 A 
ATOM      7  C   UNL     1     112.226 126.236 136.650  0.00  0.00    +0.000 A 
ATOM      8  C   UNL     1     111.277 127.304 136.625  0.00  0.00    +0.000 A 
ATOM      9  C   UNL     1     110.789 126.859 136.132  0.00  0.00    +0.000 A 
ATOM     10  C   UNL     1     111.018 126.102 135.898  0.00  0.00    +0.000 A 
ATOM     11  C   UNL     1     110.042 127.194 135.869  0.00  0.00    +0.000 A 
ATOM     12  C   UNL     1     110.518 125.627 135.385  0.00  0.00    +0.000 A 
ATOM     13  C   UNL     1     109.529 126.734 135.355  0.00  0.00    +0.000 A 
ATOM     14  C   UNL     1     109.769 125.946 135.112  0.00  0.00    +0.000 A 
BRANCH   7  17
ATOM     15  O   UNL     1     114.988 125.667 136.186  0.00  0.00    +0.000 OA
ATOM     16  O   UNL     1     115.101 124.989 137.687  0.00  0.00    +0.000 OA
ATOM     17  C   UNL     1     112.944 125.924 136.909  0.00  0.00    +0.000 A 
ATOM     18  C   UNL     1     113.607 125.951 136.418  0.00  0.00    +0.000 A 
ATOM     19  C   UNL     1     113.000 125.586 137.659  0.00  0.00    +0.000 A 
ATOM     20  C   UNL     1     114.325 125.640 136.677  0.00  0.00    +0.000 A 
ATOM     21  C   UNL     1     113.720 125.274 137.919  0.00  0.00    +0.000 A 
ATOM     22  C   UNL     1     114.381 125.301 137.427  0.00  0.00    +0.000 A 
ENDBRANCH   7  17
ENDBRANCH   1   6
BRANCH   1  30
ATOM     23  O   UNL     1     112.946 128.337 136.366  0.00  0.00    +0.000 OA
ATOM     24  O   UNL     1     112.994 130.175 138.023  0.00  0.00    +0.000 OA
ATOM     25  O   UNL     1     113.440 130.460 136.461  0.00  0.00    +0.000 OA
ATOM     26  C   UNL     1     112.978 129.563 137.471  0.00  0.00    +0.000 C 
ATOM     27  C   UNL     1     113.201 129.705 136.690  0.00  0.00    +0.000 C 
ATOM     28  C   UNL     1     112.739 128.807 137.701  0.00  0.00    +0.000 C 
ATOM     29  C   UNL     1     113.185 129.093 136.138  0.00  0.00    +0.000 C 
ATOM     30  C   UNL     1     112.723 128.194 137.148  0.00  0.00    +0.000 C 
BRANCH  29  32
ATOM     31  O   UNL     1     114.093 128.889 135.054  0.00  0.00    +0.000 OA
ATOM     32  C   UNL     1     113.408 129.235 135.356  0.00  0.00    +0.000 C 
ENDBRANCH  29  32
BRANCH  28  33
ATOM     33  O   UNL     1     112.516 128.664 138.481  0.00  0.00    +0.000 OA
BRANCH  33  35
ATOM     34  O   UNL     1     113.862 128.880 138.910  0.00  0.00    +0.000 OA
ATOM     35  C   UNL     1     113.086 128.656 139.078  0.00  0.00    +0.000 C 
BRANCH  35  39
ATOM     36  O   UNL     1     111.320 128.814 141.319  0.00  0.00    +0.000 OA
ATOM     37  O   UNL     1     113.614 127.113 141.424  0.00  0.00    +0.000 OA
ATOM     38  O   UNL     1     112.261 127.732 142.137  0.00  0.00    +0.000 OA
ATOM     39  C   UNL     1     112.880 128.425 139.843  0.00  0.00    +0.000 A 
ATOM     40  C   UNL     1     113.350 127.884 140.252  0.00  0.00    +0.000 A 
ATOM     41  C   UNL     1     112.203 128.735 140.199  0.00  0.00    +0.000 A 
ATOM     42  C   UNL     1     111.997 128.504 140.964  0.00  0.00    +0.000 A 
ATOM     43  C   UNL     1     113.144 127.654 141.016  0.00  0.00    +0.000 A 
ATOM     44  C   UNL     1     112.467 127.963 141.372  0.00  0.00    +0.000 A 
ENDBRANCH  35  39
ENDBRANCH  33  35
ENDBRANCH  28  33
ENDBRANCH   1  30
TORSDOF 7
ENDMDL
