MODEL 1
REMARK VINA RESULT:      -8.4      0.000      0.000
REMARK  Name = 131835549
REMARK  4 active torsions:
REMARK  status: ('A' for Active; 'I' for Inactive)
REMARK    1  A    between atoms: O_2  and  C_13
REMARK    2  A    between atoms: O_6  and  C_22
REMARK    3  A    between atoms: O_9  and  C_23
REMARK    4  A    between atoms: C_12  and  C_14
REMARK                            x       y       z     vdW  Elec       q    Type
REMARK                         _______ _______ _______ _____ _____    ______ ____
ROOT
ATOM      1  O   UNL     1     105.469 124.573 147.985  0.00  0.00    +0.000 OA
ATOM      2  O   UNL     1     108.002 125.392 146.849  0.00  0.00    +0.000 OA
ATOM      3  O   UNL     1     106.272 124.149 149.370  0.00  0.00    +0.000 OA
ATOM      4  O   UNL     1     106.804 125.526 146.056  0.00  0.00    +0.000 OA
ATOM      5  O   UNL     1     108.771 124.960 148.243  0.00  0.00    +0.000 OA
ATOM      6  O   UNL     1     107.906 124.339 149.504  0.00  0.00    +0.000 OA
ATOM      7  C   UNL     1     106.753 124.987 147.413  0.00  0.00    +0.000 A 
ATOM      8  C   UNL     1     106.320 124.676 148.043  0.00  0.00    +0.000 A 
ATOM      9  C   UNL     1     105.063 124.796 147.261  0.00  0.00    +0.000 A 
ATOM     10  C   UNL     1     105.513 125.120 146.605  0.00  0.00    +0.000 A 
ATOM     11  C   UNL     1     106.364 125.216 146.681  0.00  0.00    +0.000 A 
ATOM     12  C   UNL     1     107.569 125.082 147.479  0.00  0.00    +0.000 A 
ATOM     13  C   UNL     1     106.705 124.460 148.739  0.00  0.00    +0.000 A 
ATOM     14  C   UNL     1     107.953 124.865 148.176  0.00  0.00    +0.000 A 
ATOM     15  C   UNL     1     107.521 124.555 148.807  0.00  0.00    +0.000 A 
ENDROOT
BRANCH   9  16
ATOM     16  C   UNL     1     104.246 124.700 147.197  0.00  0.00    +0.000 A 
ATOM     17  C   UNL     1     103.738 125.248 147.548  0.00  0.00    +0.000 A 
ATOM     18  C   UNL     1     103.938 124.057 146.782  0.00  0.00    +0.000 A 
ATOM     19  C   UNL     1     102.921 125.152 147.483  0.00  0.00    +0.000 A 
ATOM     20  C   UNL     1     102.612 124.510 147.069  0.00  0.00    +0.000 A 
ATOM     21  C   UNL     1     103.120 123.962 146.718  0.00  0.00    +0.000 A 
BRANCH  19  22
ATOM     22  O   UNL     1     102.413 125.699 147.834  0.00  0.00    +0.000 OA
ATOM     23  C   UNL     1     102.687 126.190 148.438  0.00  0.00    +0.000 C 
ENDBRANCH  19  22
BRANCH  20  24
ATOM     24  O   UNL     1     101.795 124.414 147.004  0.00  0.00    +0.000 OA
ATOM     25  C   UNL     1     101.486 123.833 146.507  0.00  0.00    +0.000 C 
ENDBRANCH  20  24
ENDBRANCH   9  16
BRANCH  10  26
ATOM     26  O   UNL     1     105.132 125.337 145.906  0.00  0.00    +0.000 OA
ATOM     27  C   UNL     1     105.458 125.920 145.422  0.00  0.00    +0.000 C 
ENDBRANCH  10  26
TORSDOF 4
ENDMDL
MODEL 2
REMARK VINA RESULT:      -8.3      1.128      4.601
REMARK  Name = 131835549
REMARK  4 active torsions:
REMARK  status: ('A' for Active; 'I' for Inactive)
REMARK    1  A    between atoms: O_2  and  C_13
REMARK    2  A    between atoms: O_6  and  C_22
REMARK    3  A    between atoms: O_9  and  C_23
REMARK    4  A    between atoms: C_12  and  C_14
REMARK                            x       y       z     vdW  Elec       q    Type
REMARK                         _______ _______ _______ _____ _____    ______ ____
ROOT
ATOM      1  O   UNL     1     104.694 123.997 146.754  0.00  0.00    +0.000 OA
ATOM      2  O   UNL     1     101.865 124.566 146.974  0.00  0.00    +0.000 OA
ATOM      3  O   UNL     1     104.350 122.972 145.500  0.00  0.00    +0.000 OA
ATOM      4  O   UNL     1     102.781 125.216 147.878  0.00  0.00    +0.000 OA
ATOM      5  O   UNL     1     101.558 123.537 145.721  0.00  0.00    +0.000 OA
ATOM      6  O   UNL     1     102.800 122.740 144.984  0.00  0.00    +0.000 OA
ATOM      7  C   UNL     1     103.261 124.283 146.863  0.00  0.00    +0.000 A 
ATOM      8  C   UNL     1     103.883 123.884 146.494  0.00  0.00    +0.000 A 
ATOM      9  C   UNL     1     104.861 124.531 147.406  0.00  0.00    +0.000 A 
ATOM     10  C   UNL     1     104.214 124.946 147.789  0.00  0.00    +0.000 A 
ATOM     11  C   UNL     1     103.409 124.822 147.516  0.00  0.00    +0.000 A 
ATOM     12  C   UNL     1     102.486 124.167 146.605  0.00  0.00    +0.000 A 
ATOM     13  C   UNL     1     103.729 123.370 145.868  0.00  0.00    +0.000 A 
ATOM     14  C   UNL     1     102.333 123.653 145.979  0.00  0.00    +0.000 A 
ATOM     15  C   UNL     1     102.955 123.254 145.611  0.00  0.00    +0.000 A 
ENDROOT
BRANCH   9  16
ATOM     16  C   UNL     1     105.636 124.645 147.662  0.00  0.00    +0.000 A 
ATOM     17  C   UNL     1     106.132 125.165 147.256  0.00  0.00    +0.000 A 
ATOM     18  C   UNL     1     105.916 124.240 148.323  0.00  0.00    +0.000 A 
ATOM     19  C   UNL     1     106.908 125.279 147.511  0.00  0.00    +0.000 A 
ATOM     20  C   UNL     1     107.189 124.874 148.173  0.00  0.00    +0.000 A 
ATOM     21  C   UNL     1     106.693 124.355 148.579  0.00  0.00    +0.000 A 
BRANCH  19  22
ATOM     22  O   UNL     1     107.404 125.798 147.105  0.00  0.00    +0.000 OA
ATOM     23  C   UNL     1     107.090 126.319 146.547  0.00  0.00    +0.000 C 
ENDBRANCH  19  22
BRANCH  20  24
ATOM     24  O   UNL     1     107.965 124.989 148.429  0.00  0.00    +0.000 OA
ATOM     25  C   UNL     1     108.244 124.586 149.093  0.00  0.00    +0.000 C 
ENDBRANCH  20  24
ENDBRANCH   9  16
BRANCH  10  26
ATOM     26  O   UNL     1     104.364 125.462 148.416  0.00  0.00    +0.000 OA
ATOM     27  C   UNL     1     103.812 126.042 148.615  0.00  0.00    +0.000 C 
ENDBRANCH  10  26
TORSDOF 4
ENDMDL
MODEL 3
REMARK VINA RESULT:      -7.9     10.844     13.105
REMARK  Name = 131835549
REMARK  4 active torsions:
REMARK  status: ('A' for Active; 'I' for Inactive)
REMARK    1  A    between atoms: O_2  and  C_13
REMARK    2  A    between atoms: O_6  and  C_22
REMARK    3  A    between atoms: O_9  and  C_23
REMARK    4  A    between atoms: C_12  and  C_14
REMARK                            x       y       z     vdW  Elec       q    Type
REMARK                         _______ _______ _______ _____ _____    ______ ____
ROOT
ATOM      1  O   UNL     1     109.967 127.090 136.264  0.00  0.00    +0.000 OA
ATOM      2  O   UNL     1     110.611 129.647 135.070  0.00  0.00    +0.000 OA
ATOM      3  O   UNL     1     108.374 127.540 136.273  0.00  0.00    +0.000 OA
ATOM      4  O   UNL     1     111.676 128.713 135.339  0.00  0.00    +0.000 OA
ATOM      5  O   UNL     1     109.014 130.064 135.094  0.00  0.00    +0.000 OA
ATOM      6  O   UNL     1     107.896 129.010 135.695  0.00  0.00    +0.000 OA
ATOM      7  C   UNL     1     110.290 128.386 135.659  0.00  0.00    +0.000 A 
ATOM      8  C   UNL     1     109.731 127.859 135.960  0.00  0.00    +0.000 A 
ATOM      9  C   UNL     1     110.797 126.868 136.254  0.00  0.00    +0.000 A 
ATOM     10  C   UNL     1     111.379 127.416 135.941  0.00  0.00    +0.000 A 
ATOM     11  C   UNL     1     111.124 128.180 135.642  0.00  0.00    +0.000 A 
ATOM     12  C   UNL     1     110.052 129.121 135.371  0.00  0.00    +0.000 A 
ATOM     13  C   UNL     1     108.933 128.067 135.972  0.00  0.00    +0.000 A 
ATOM     14  C   UNL     1     109.253 129.328 135.383  0.00  0.00    +0.000 A 
ATOM     15  C   UNL     1     108.694 128.801 135.683  0.00  0.00    +0.000 A 
ENDROOT
BRANCH   9  16
ATOM     16  C   UNL     1     111.033 126.132 136.544  0.00  0.00    +0.000 A 
ATOM     17  C   UNL     1     111.120 126.017 137.356  0.00  0.00    +0.000 A 
ATOM     18  C   UNL     1     111.182 125.512 136.021  0.00  0.00    +0.000 A 
ATOM     19  C   UNL     1     111.356 125.282 137.645  0.00  0.00    +0.000 A 
ATOM     20  C   UNL     1     111.506 124.661 137.123  0.00  0.00    +0.000 A 
ATOM     21  C   UNL     1     111.419 124.776 136.311  0.00  0.00    +0.000 A 
BRANCH  19  22
ATOM     22  O   UNL     1     111.443 125.167 138.458  0.00  0.00    +0.000 OA
ATOM     23  C   UNL     1     111.161 125.733 138.988  0.00  0.00    +0.000 C 
ENDBRANCH  19  22
BRANCH  20  24
ATOM     24  O   UNL     1     111.742 123.926 137.413  0.00  0.00    +0.000 OA
ATOM     25  C   UNL     1     112.059 123.363 136.900  0.00  0.00    +0.000 C 
ENDBRANCH  20  24
ENDBRANCH   9  16
BRANCH  10  26
ATOM     26  O   UNL     1     112.179 127.211 135.927  0.00  0.00    +0.000 OA
ATOM     27  C   UNL     1     112.756 127.796 136.000  0.00  0.00    +0.000 C 
ENDBRANCH  10  26
TORSDOF 4
ENDMDL
MODEL 4
REMARK VINA RESULT:      -7.9      1.977      4.182
REMARK  Name = 131835549
REMARK  4 active torsions:
REMARK  status: ('A' for Active; 'I' for Inactive)
REMARK    1  A    between atoms: O_2  and  C_13
REMARK    2  A    between atoms: O_6  and  C_22
REMARK    3  A    between atoms: O_9  and  C_23
REMARK    4  A    between atoms: C_12  and  C_14
REMARK                            x       y       z     vdW  Elec       q    Type
REMARK                         _______ _______ _______ _____ _____    ______ ____
ROOT
ATOM      1  O   UNL     1     106.353 125.111 145.747  0.00  0.00    +0.000 OA
ATOM      2  O   UNL     1     106.035 127.349 143.940  0.00  0.00    +0.000 OA
ATOM      3  O   UNL     1     105.955 124.098 144.499  0.00  0.00    +0.000 OA
ATOM      4  O   UNL     1     106.411 127.604 145.308  0.00  0.00    +0.000 OA
ATOM      5  O   UNL     1     105.642 126.311 142.718  0.00  0.00    +0.000 OA
ATOM      6  O   UNL     1     105.602 124.685 142.998  0.00  0.00    +0.000 OA
ATOM      7  C   UNL     1     106.191 126.242 144.830  0.00  0.00    +0.000 A 
ATOM      8  C   UNL     1     106.171 125.429 144.970  0.00  0.00    +0.000 A 
ATOM      9  C   UNL     1     106.558 125.646 146.387  0.00  0.00    +0.000 A 
ATOM     10  C   UNL     1     106.579 126.493 146.241  0.00  0.00    +0.000 A 
ATOM     11  C   UNL     1     106.394 126.793 145.458  0.00  0.00    +0.000 A 
ATOM     12  C   UNL     1     106.015 126.536 144.079  0.00  0.00    +0.000 A 
ATOM     13  C   UNL     1     105.975 124.911 144.359  0.00  0.00    +0.000 A 
ATOM     14  C   UNL     1     105.818 126.017 143.470  0.00  0.00    +0.000 A 
ATOM     15  C   UNL     1     105.799 125.204 143.609  0.00  0.00    +0.000 A 
ENDROOT
BRANCH   9  16
ATOM     16  C   UNL     1     106.734 125.350 147.136  0.00  0.00    +0.000 A 
ATOM     17  C   UNL     1     106.124 125.147 147.653  0.00  0.00    +0.000 A 
ATOM     18  C   UNL     1     107.520 125.256 147.369  0.00  0.00    +0.000 A 
ATOM     19  C   UNL     1     106.300 124.851 148.403  0.00  0.00    +0.000 A 
ATOM     20  C   UNL     1     107.085 124.757 148.636  0.00  0.00    +0.000 A 
ATOM     21  C   UNL     1     107.696 124.959 148.119  0.00  0.00    +0.000 A 
BRANCH  19  22
ATOM     22  O   UNL     1     105.690 124.648 148.920  0.00  0.00    +0.000 OA
ATOM     23  C   UNL     1     104.904 124.779 148.703  0.00  0.00    +0.000 C 
ENDBRANCH  19  22
BRANCH  20  24
ATOM     24  O   UNL     1     107.261 124.460 149.385  0.00  0.00    +0.000 OA
ATOM     25  C   UNL     1     108.047 124.352 149.612  0.00  0.00    +0.000 C 
ENDBRANCH  20  24
ENDBRANCH   9  16
BRANCH  10  26
ATOM     26  O   UNL     1     106.775 127.015 146.850  0.00  0.00    +0.000 OA
ATOM     27  C   UNL     1     106.582 127.815 146.786  0.00  0.00    +0.000 C 
ENDBRANCH  10  26
TORSDOF 4
ENDMDL
MODEL 5
REMARK VINA RESULT:      -7.8      6.746      8.466
REMARK  Name = 131835549
REMARK  4 active torsions:
REMARK  status: ('A' for Active; 'I' for Inactive)
REMARK    1  A    between atoms: O_2  and  C_13
REMARK    2  A    between atoms: O_6  and  C_22
REMARK    3  A    between atoms: O_9  and  C_23
REMARK    4  A    between atoms: C_12  and  C_14
REMARK                            x       y       z     vdW  Elec       q    Type
REMARK                         _______ _______ _______ _____ _____    ______ ____
ROOT
ATOM      1  O   UNL     1     103.560 130.131 142.249  0.00  0.00    +0.000 OA
ATOM      2  O   UNL     1     104.246 127.652 140.921  0.00  0.00    +0.000 OA
ATOM      3  O   UNL     1     104.567 129.698 143.490  0.00  0.00    +0.000 OA
ATOM      4  O   UNL     1     103.320 128.555 140.282  0.00  0.00    +0.000 OA
ATOM      5  O   UNL     1     105.241 127.252 142.175  0.00  0.00    +0.000 OA
ATOM      6  O   UNL     1     105.401 128.275 143.460  0.00  0.00    +0.000 OA
ATOM      7  C   UNL     1     103.909 128.875 141.579  0.00  0.00    +0.000 A 
ATOM      8  C   UNL     1     103.989 129.387 142.221  0.00  0.00    +0.000 A 
ATOM      9  C   UNL     1     103.041 130.345 141.599  0.00  0.00    +0.000 A 
ATOM     10  C   UNL     1     102.957 129.812 140.930  0.00  0.00    +0.000 A 
ATOM     11  C   UNL     1     103.394 129.073 140.920  0.00  0.00    +0.000 A 
ATOM     12  C   UNL     1     104.326 128.164 141.563  0.00  0.00    +0.000 A 
ATOM     13  C   UNL     1     104.486 129.187 142.848  0.00  0.00    +0.000 A 
ATOM     14  C   UNL     1     104.823 127.964 142.190  0.00  0.00    +0.000 A 
ATOM     15  C   UNL     1     104.903 128.476 142.833  0.00  0.00    +0.000 A 
ENDROOT
BRANCH   9  16
ATOM     16  C   UNL     1     102.625 131.057 141.617  0.00  0.00    +0.000 A 
ATOM     17  C   UNL     1     102.964 131.741 141.304  0.00  0.00    +0.000 A 
ATOM     18  C   UNL     1     101.869 131.086 141.948  0.00  0.00    +0.000 A 
ATOM     19  C   UNL     1     102.548 132.453 141.322  0.00  0.00    +0.000 A 
ATOM     20  C   UNL     1     101.793 132.482 141.652  0.00  0.00    +0.000 A 
ATOM     21  C   UNL     1     101.454 131.799 141.965  0.00  0.00    +0.000 A 
BRANCH  19  22
ATOM     22  O   UNL     1     102.887 133.137 141.009  0.00  0.00    +0.000 OA
ATOM     23  C   UNL     1     103.688 133.147 140.809  0.00  0.00    +0.000 C 
ENDBRANCH  19  22
BRANCH  20  24
ATOM     24  O   UNL     1     101.377 133.195 141.670  0.00  0.00    +0.000 OA
ATOM     25  C   UNL     1     100.711 133.271 142.151  0.00  0.00    +0.000 C 
ENDBRANCH  20  24
ENDBRANCH   9  16
BRANCH  10  26
ATOM     26  O   UNL     1     102.460 130.009 140.301  0.00  0.00    +0.000 OA
ATOM     27  C   UNL     1     102.226 129.430 139.762  0.00  0.00    +0.000 C 
ENDBRANCH  10  26
TORSDOF 4
ENDMDL
MODEL 6
REMARK VINA RESULT:      -7.7      1.388      4.302
REMARK  Name = 131835549
REMARK  4 active torsions:
REMARK  status: ('A' for Active; 'I' for Inactive)
REMARK    1  A    between atoms: O_2  and  C_13
REMARK    2  A    between atoms: O_6  and  C_22
REMARK    3  A    between atoms: O_9  and  C_23
REMARK    4  A    between atoms: C_12  and  C_14
REMARK                            x       y       z     vdW  Elec       q    Type
REMARK                         _______ _______ _______ _____ _____    ______ ____
ROOT
ATOM      1  O   UNL     1     104.538 124.997 146.981  0.00  0.00    +0.000 OA
ATOM      2  O   UNL     1     103.278 122.855 145.497  0.00  0.00    +0.000 OA
ATOM      3  O   UNL     1     103.346 124.855 148.121  0.00  0.00    +0.000 OA
ATOM      4  O   UNL     1     104.478 123.458 144.971  0.00  0.00    +0.000 OA
ATOM      5  O   UNL     1     102.106 122.740 146.652  0.00  0.00    +0.000 OA
ATOM      6  O   UNL     1     102.139 123.741 147.964  0.00  0.00    +0.000 OA
ATOM      7  C   UNL     1     103.898 123.912 146.232  0.00  0.00    +0.000 A 
ATOM      8  C   UNL     1     103.915 124.412 146.888  0.00  0.00    +0.000 A 
ATOM      9  C   UNL     1     105.151 125.062 146.382  0.00  0.00    +0.000 A 
ATOM     10  C   UNL     1     105.134 124.541 145.699  0.00  0.00    +0.000 A 
ATOM     11  C   UNL     1     104.503 123.962 145.623  0.00  0.00    +0.000 A 
ATOM     12  C   UNL     1     103.295 123.355 146.153  0.00  0.00    +0.000 A 
ATOM     13  C   UNL     1     103.329 124.355 147.465  0.00  0.00    +0.000 A 
ATOM     14  C   UNL     1     102.709 123.298 146.731  0.00  0.00    +0.000 A 
ATOM     15  C   UNL     1     102.726 123.798 147.387  0.00  0.00    +0.000 A 
ENDROOT
BRANCH   9  16
ATOM     16  C   UNL     1     105.753 125.620 146.463  0.00  0.00    +0.000 A 
ATOM     17  C   UNL     1     106.454 125.418 146.849  0.00  0.00    +0.000 A 
ATOM     18  C   UNL     1     105.655 126.380 146.158  0.00  0.00    +0.000 A 
ATOM     19  C   UNL     1     107.056 125.976 146.930  0.00  0.00    +0.000 A 
ATOM     20  C   UNL     1     106.958 126.736 146.625  0.00  0.00    +0.000 A 
ATOM     21  C   UNL     1     106.258 126.938 146.239  0.00  0.00    +0.000 A 
BRANCH  19  22
ATOM     22  O   UNL     1     107.756 125.774 147.317  0.00  0.00    +0.000 OA
ATOM     23  C   UNL     1     107.776 125.124 147.824  0.00  0.00    +0.000 C 
ENDBRANCH  19  22
BRANCH  20  24
ATOM     24  O   UNL     1     107.560 127.294 146.706  0.00  0.00    +0.000 OA
ATOM     25  C   UNL     1     107.464 128.052 146.395  0.00  0.00    +0.000 C 
ENDBRANCH  20  24
ENDBRANCH   9  16
BRANCH  10  26
ATOM     26  O   UNL     1     105.719 124.595 145.120  0.00  0.00    +0.000 OA
ATOM     27  C   UNL     1     105.560 124.350 144.348  0.00  0.00    +0.000 C 
ENDBRANCH  10  26
TORSDOF 4
ENDMDL
MODEL 7
REMARK VINA RESULT:      -7.7     13.018     13.984
REMARK  Name = 131835549
REMARK  4 active torsions:
REMARK  status: ('A' for Active; 'I' for Inactive)
REMARK    1  A    between atoms: O_2  and  C_13
REMARK    2  A    between atoms: O_6  and  C_22
REMARK    3  A    between atoms: O_9  and  C_23
REMARK    4  A    between atoms: C_12  and  C_14
REMARK                            x       y       z     vdW  Elec       q    Type
REMARK                         _______ _______ _______ _____ _____    ______ ____
ROOT
ATOM      1  O   UNL     1     113.516 126.703 136.732  0.00  0.00    +0.000 OA
ATOM      2  O   UNL     1     111.414 124.829 136.065  0.00  0.00    +0.000 OA
ATOM      3  O   UNL     1     114.409 125.434 137.312  0.00  0.00    +0.000 OA
ATOM      4  O   UNL     1     111.220 126.228 135.777  0.00  0.00    +0.000 OA
ATOM      5  O   UNL     1     112.330 123.588 136.652  0.00  0.00    +0.000 OA
ATOM      6  O   UNL     1     113.827 123.891 137.275  0.00  0.00    +0.000 OA
ATOM      7  C   UNL     1     112.454 125.752 136.396  0.00  0.00    +0.000 A 
ATOM      8  C   UNL     1     113.202 125.903 136.707  0.00  0.00    +0.000 A 
ATOM      9  C   UNL     1     113.044 127.353 136.428  0.00  0.00    +0.000 A 
ATOM     10  C   UNL     1     112.265 127.195 136.103  0.00  0.00    +0.000 A 
ATOM     11  C   UNL     1     111.967 126.390 136.087  0.00  0.00    +0.000 A 
ATOM     12  C   UNL     1     112.162 124.980 136.377  0.00  0.00    +0.000 A 
ATOM     13  C   UNL     1     113.660 125.283 137.000  0.00  0.00    +0.000 A 
ATOM     14  C   UNL     1     112.621 124.360 136.670  0.00  0.00    +0.000 A 
ATOM     15  C   UNL     1     113.369 124.512 136.982  0.00  0.00    +0.000 A 
ENDROOT
BRANCH   9  16
ATOM     16  C   UNL     1     113.337 128.124 136.447  0.00  0.00    +0.000 A 
ATOM     17  C   UNL     1     113.231 128.589 137.121  0.00  0.00    +0.000 A 
ATOM     18  C   UNL     1     113.736 128.430 135.793  0.00  0.00    +0.000 A 
ATOM     19  C   UNL     1     113.525 129.359 137.140  0.00  0.00    +0.000 A 
ATOM     20  C   UNL     1     113.924 129.666 136.487  0.00  0.00    +0.000 A 
ATOM     21  C   UNL     1     114.030 129.202 135.814  0.00  0.00    +0.000 A 
BRANCH  19  22
ATOM     22  O   UNL     1     113.419 129.824 137.814  0.00  0.00    +0.000 OA
ATOM     23  C   UNL     1     113.227 129.470 138.534  0.00  0.00    +0.000 C 
ENDBRANCH  19  22
BRANCH  20  24
ATOM     24  O   UNL     1     114.217 130.437 136.507  0.00  0.00    +0.000 OA
ATOM     25  C   UNL     1     114.668 130.723 135.878  0.00  0.00    +0.000 C 
ENDBRANCH  20  24
ENDBRANCH   9  16
BRANCH  10  26
ATOM     26  O   UNL     1     111.804 127.814 135.809  0.00  0.00    +0.000 OA
ATOM     27  C   UNL     1     110.988 127.718 135.727  0.00  0.00    +0.000 C 
ENDBRANCH  10  26
TORSDOF 4
ENDMDL
MODEL 8
REMARK VINA RESULT:      -7.7      1.226      3.265
REMARK  Name = 131835549
REMARK  4 active torsions:
REMARK  status: ('A' for Active; 'I' for Inactive)
REMARK    1  A    between atoms: O_2  and  C_13
REMARK    2  A    between atoms: O_6  and  C_22
REMARK    3  A    between atoms: O_9  and  C_23
REMARK    4  A    between atoms: C_12  and  C_14
REMARK                            x       y       z     vdW  Elec       q    Type
REMARK                         _______ _______ _______ _____ _____    ______ ____
ROOT
ATOM      1  O   UNL     1     106.733 125.601 146.691  0.00  0.00    +0.000 OA
ATOM      2  O   UNL     1     105.746 124.269 149.064  0.00  0.00    +0.000 OA
ATOM      3  O   UNL     1     108.272 125.407 147.271  0.00  0.00    +0.000 OA
ATOM      4  O   UNL     1     104.801 124.725 148.073  0.00  0.00    +0.000 OA
ATOM      5  O   UNL     1     107.292 124.093 149.612  0.00  0.00    +0.000 OA
ATOM      6  O   UNL     1     108.555 124.662 148.716  0.00  0.00    +0.000 OA
ATOM      7  C   UNL     1     106.237 124.927 147.893  0.00  0.00    +0.000 A 
ATOM      8  C   UNL     1     106.868 125.211 147.445  0.00  0.00    +0.000 A 
ATOM      9  C   UNL     1     105.931 125.696 146.400  0.00  0.00    +0.000 A 
ATOM     10  C   UNL     1     105.273 125.400 146.867  0.00  0.00    +0.000 A 
ATOM     11  C   UNL     1     105.427 125.013 147.618  0.00  0.00    +0.000 A 
ATOM     12  C   UNL     1     106.377 124.554 148.615  0.00  0.00    +0.000 A 
ATOM     13  C   UNL     1     107.641 125.123 147.719  0.00  0.00    +0.000 A 
ATOM     14  C   UNL     1     107.151 124.466 148.889  0.00  0.00    +0.000 A 
ATOM     15  C   UNL     1     107.782 124.750 148.441  0.00  0.00    +0.000 A 
ENDROOT
BRANCH   9  16
ATOM     16  C   UNL     1     105.792 126.069 145.678  0.00  0.00    +0.000 A 
ATOM     17  C   UNL     1     105.762 125.624 144.983  0.00  0.00    +0.000 A 
ATOM     18  C   UNL     1     105.684 126.886 145.649  0.00  0.00    +0.000 A 
ATOM     19  C   UNL     1     105.623 125.998 144.261  0.00  0.00    +0.000 A 
ATOM     20  C   UNL     1     105.515 126.814 144.231  0.00  0.00    +0.000 A 
ATOM     21  C   UNL     1     105.545 127.259 144.926  0.00  0.00    +0.000 A 
BRANCH  19  22
ATOM     22  O   UNL     1     105.593 125.553 143.566  0.00  0.00    +0.000 OA
ATOM     23  C   UNL     1     105.974 124.822 143.526  0.00  0.00    +0.000 C 
ENDBRANCH  19  22
BRANCH  20  24
ATOM     24  O   UNL     1     105.376 127.188 143.509  0.00  0.00    +0.000 OA
ATOM     25  C   UNL     1     105.244 128.001 143.483  0.00  0.00    +0.000 C 
ENDBRANCH  20  24
ENDBRANCH   9  16
BRANCH  10  26
ATOM     26  O   UNL     1     104.498 125.486 146.596  0.00  0.00    +0.000 OA
ATOM     27  C   UNL     1     103.882 125.087 146.972  0.00  0.00    +0.000 C 
ENDBRANCH  10  26
TORSDOF 4
ENDMDL
MODEL 9
REMARK VINA RESULT:      -7.6     12.787     14.619
REMARK  Name = 131835549
REMARK  4 active torsions:
REMARK  status: ('A' for Active; 'I' for Inactive)
REMARK    1  A    between atoms: O_2  and  C_13
REMARK    2  A    between atoms: O_6  and  C_22
REMARK    3  A    between atoms: O_9  and  C_23
REMARK    4  A    between atoms: C_12  and  C_14
REMARK                            x       y       z     vdW  Elec       q    Type
REMARK                         _______ _______ _______ _____ _____    ______ ____
ROOT
ATOM      1  O   UNL     1     113.445 127.630 136.414  0.00  0.00    +0.000 OA
ATOM      2  O   UNL     1     110.906 126.362 135.843  0.00  0.00    +0.000 OA
ATOM      3  O   UNL     1     113.878 126.284 137.276  0.00  0.00    +0.000 OA
ATOM      4  O   UNL     1     111.162 127.680 135.318  0.00  0.00    +0.000 OA
ATOM      5  O   UNL     1     111.369 125.036 136.710  0.00  0.00    +0.000 OA
ATOM      6  O   UNL     1     112.855 124.997 137.426  0.00  0.00    +0.000 OA
ATOM      7  C   UNL     1     112.160 126.985 136.127  0.00  0.00    +0.000 A 
ATOM      8  C   UNL     1     112.903 126.966 136.485  0.00  0.00    +0.000 A 
ATOM      9  C   UNL     1     113.209 128.322 135.964  0.00  0.00    +0.000 A 
ATOM     10  C   UNL     1     112.435 128.343 135.591  0.00  0.00    +0.000 A 
ATOM     11  C   UNL     1     111.907 127.670 135.673  0.00  0.00    +0.000 A 
ATOM     12  C   UNL     1     111.649 126.342 136.201  0.00  0.00    +0.000 A 
ATOM     13  C   UNL     1     113.135 126.303 136.918  0.00  0.00    +0.000 A 
ATOM     14  C   UNL     1     111.881 125.680 136.635  0.00  0.00    +0.000 A 
ATOM     15  C   UNL     1     112.624 125.661 136.993  0.00  0.00    +0.000 A 
ENDROOT
BRANCH   9  16
ATOM     16  C   UNL     1     113.722 128.964 135.890  0.00  0.00    +0.000 A 
ATOM     17  C   UNL     1     113.752 129.538 136.482  0.00  0.00    +0.000 A 
ATOM     18  C   UNL     1     114.205 129.032 135.224  0.00  0.00    +0.000 A 
ATOM     19  C   UNL     1     114.265 130.180 136.409  0.00  0.00    +0.000 A 
ATOM     20  C   UNL     1     114.748 130.248 135.744  0.00  0.00    +0.000 A 
ATOM     21  C   UNL     1     114.718 129.675 135.152  0.00  0.00    +0.000 A 
BRANCH  19  22
ATOM     22  O   UNL     1     114.296 130.753 137.001  0.00  0.00    +0.000 OA
ATOM     23  C   UNL     1     113.958 130.604 137.739  0.00  0.00    +0.000 C 
ENDBRANCH  19  22
BRANCH  20  24
ATOM     24  O   UNL     1     115.261 130.890 135.670  0.00  0.00    +0.000 OA
ATOM     25  C   UNL     1     115.710 130.983 134.984  0.00  0.00    +0.000 C 
ENDBRANCH  20  24
ENDBRANCH   9  16
BRANCH  10  26
ATOM     26  O   UNL     1     112.200 129.004 135.157  0.00  0.00    +0.000 OA
ATOM     27  C   UNL     1     111.398 129.171 135.060  0.00  0.00    +0.000 C 
ENDBRANCH  10  26
TORSDOF 4
ENDMDL
MODEL 10
REMARK VINA RESULT:      -7.6      8.968     10.375
REMARK  Name = 131835549
REMARK  4 active torsions:
REMARK  status: ('A' for Active; 'I' for Inactive)
REMARK    1  A    between atoms: O_2  and  C_13
REMARK    2  A    between atoms: O_6  and  C_22
REMARK    3  A    between atoms: O_9  and  C_23
REMARK    4  A    between atoms: C_12  and  C_14
REMARK                            x       y       z     vdW  Elec       q    Type
REMARK                         _______ _______ _______ _____ _____    ______ ____
ROOT
ATOM      1  O   UNL     1     111.582 131.449 145.210  0.00  0.00    +0.000 OA
ATOM      2  O   UNL     1     112.364 131.790 142.444  0.00  0.00    +0.000 OA
ATOM      3  O   UNL     1     111.313 129.846 144.895  0.00  0.00    +0.000 OA
ATOM      4  O   UNL     1     112.388 132.933 143.323  0.00  0.00    +0.000 OA
ATOM      5  O   UNL     1     112.086 130.187 142.165  0.00  0.00    +0.000 OA
ATOM      6  O   UNL     1     111.561 129.215 143.391  0.00  0.00    +0.000 OA
ATOM      7  C   UNL     1     111.977 131.618 143.809  0.00  0.00    +0.000 A 
ATOM      8  C   UNL     1     111.715 131.132 144.422  0.00  0.00    +0.000 A 
ATOM      9  C   UNL     1     111.725 132.283 145.361  0.00  0.00    +0.000 A 
ATOM     10  C   UNL     1     111.998 132.789 144.723  0.00  0.00    +0.000 A 
ATOM     11  C   UNL     1     112.125 132.455 143.942  0.00  0.00    +0.000 A 
ATOM     12  C   UNL     1     112.101 131.304 143.057  0.00  0.00    +0.000 A 
ATOM     13  C   UNL     1     111.576 130.332 144.282  0.00  0.00    +0.000 A 
ATOM     14  C   UNL     1     111.962 130.503 142.918  0.00  0.00    +0.000 A 
ATOM     15  C   UNL     1     111.700 130.017 143.531  0.00  0.00    +0.000 A 
ENDROOT
BRANCH   9  16
ATOM     16  C   UNL     1     111.600 132.595 146.114  0.00  0.00    +0.000 A 
ATOM     17  C   UNL     1     110.868 132.922 146.309  0.00  0.00    +0.000 A 
ATOM     18  C   UNL     1     112.208 132.582 146.672  0.00  0.00    +0.000 A 
ATOM     19  C   UNL     1     110.744 133.235 147.063  0.00  0.00    +0.000 A 
ATOM     20  C   UNL     1     111.350 133.221 147.621  0.00  0.00    +0.000 A 
ATOM     21  C   UNL     1     112.082 132.895 147.426  0.00  0.00    +0.000 A 
BRANCH  19  22
ATOM     22  O   UNL     1     110.011 133.561 147.258  0.00  0.00    +0.000 OA
ATOM     23  C   UNL     1     109.329 133.310 146.866  0.00  0.00    +0.000 C 
ENDBRANCH  19  22
BRANCH  20  24
ATOM     24  O   UNL     1     111.226 133.534 148.374  0.00  0.00    +0.000 OA
ATOM     25  C   UNL     1     111.793 133.428 148.964  0.00  0.00    +0.000 C 
ENDBRANCH  20  24
ENDBRANCH   9  16
BRANCH  10  26
ATOM     26  O   UNL     1     112.138 133.591 144.859  0.00  0.00    +0.000 OA
ATOM     27  C   UNL     1     112.084 134.131 144.237  0.00  0.00    +0.000 C 
ENDBRANCH  10  26
TORSDOF 4
ENDMDL
