MODEL 1
REMARK VINA RESULT:      -9.6      0.000      0.000
REMARK  Name = 4142221
REMARK  4 active torsions:
REMARK  status: ('A' for Active; 'I' for Inactive)
REMARK    1  A    between atoms: O_2  and  C_14
REMARK    2  A    between atoms: O_2  and  C_16
REMARK    3  A    between atoms: C_13  and  C_15
REMARK    4  A    between atoms: C_18  and  C_23
REMARK                            x       y       z     vdW  Elec       q    Type
REMARK                         _______ _______ _______ _____ _____    ______ ____
ROOT
ATOM      1  O   UNL     1     112.224 125.422 136.086  0.00  0.00    +0.000 OA
ATOM      2  O   UNL     1     111.495 127.449 137.302  0.00  0.00    +0.000 OA
ATOM      3  O   UNL     1     109.713 125.376 134.614  0.00  0.00    +0.000 OA
ATOM      4  C   UNL     1     110.474 126.782 136.181  0.00  0.00    +0.000 A 
ATOM      5  C   UNL     1     111.242 126.429 136.336  0.00  0.00    +0.000 A 
ATOM      6  C   UNL     1     112.721 125.766 136.647  0.00  0.00    +0.000 C 
ATOM      7  C   UNL     1     112.478 126.442 137.053  0.00  0.00    +0.000 C 
ATOM      8  C   UNL     1     111.485 125.753 135.930  0.00  0.00    +0.000 A 
ATOM      9  C   UNL     1     111.738 126.774 136.897  0.00  0.00    +0.000 C 
ATOM     10  C   UNL     1     109.953 126.428 135.598  0.00  0.00    +0.000 A 
ATOM     11  C   UNL     1     110.978 125.383 135.343  0.00  0.00    +0.000 A 
ATOM     12  C   UNL     1     110.207 125.723 135.176  0.00  0.00    +0.000 A 
ENDROOT
BRANCH   6  13
ATOM     13  C   UNL     1     113.460 125.436 136.803  0.00  0.00    +0.000 A 
ATOM     14  C   UNL     1     114.127 125.705 136.399  0.00  0.00    +0.000 A 
ATOM     15  C   UNL     1     113.533 124.835 137.365  0.00  0.00    +0.000 A 
ATOM     16  C   UNL     1     114.866 125.374 136.555  0.00  0.00    +0.000 A 
ATOM     17  C   UNL     1     114.273 124.504 137.521  0.00  0.00    +0.000 A 
ATOM     18  C   UNL     1     114.939 124.773 137.116  0.00  0.00    +0.000 A 
ENDBRANCH   6  13
BRANCH   4  19
ATOM     19  O   UNL     1     110.239 127.459 136.592  0.00  0.00    +0.000 OA
BRANCH  19  28
ATOM     20  O   UNL     1     110.360 128.482 135.602  0.00  0.00    +0.000 OA
ATOM     21  O   UNL     1     108.065 129.251 136.116  0.00  0.00    +0.000 OA
ATOM     22  O   UNL     1     108.951 130.018 134.955  0.00  0.00    +0.000 OA
ATOM     23  O   UNL     1     108.709 127.971 136.935  0.00  0.00    +0.000 OA
ATOM     24  C   UNL     1     108.830 128.995 135.945  0.00  0.00    +0.000 C 
ATOM     25  C   UNL     1     109.272 129.378 135.365  0.00  0.00    +0.000 C 
ATOM     26  C   UNL     1     109.152 128.354 136.354  0.00  0.00    +0.000 C 
ATOM     27  C   UNL     1     110.038 129.122 135.193  0.00  0.00    +0.000 C 
ATOM     28  C   UNL     1     109.917 128.098 136.183  0.00  0.00    +0.000 C 
BRANCH  27  30
ATOM     29  O   UNL     1     111.276 129.680 134.749  0.00  0.00    +0.000 OA
ATOM     30  C   UNL     1     110.481 129.506 134.612  0.00  0.00    +0.000 C 
ENDBRANCH  27  30
ENDBRANCH  19  28
ENDBRANCH   4  19
TORSDOF 4
ENDMDL
MODEL 2
REMARK VINA RESULT:      -9.2      1.381      2.390
REMARK  Name = 4142221
REMARK  4 active torsions:
REMARK  status: ('A' for Active; 'I' for Inactive)
REMARK    1  A    between atoms: O_2  and  C_14
REMARK    2  A    between atoms: O_2  and  C_16
REMARK    3  A    between atoms: C_13  and  C_15
REMARK    4  A    between atoms: C_18  and  C_23
REMARK                            x       y       z     vdW  Elec       q    Type
REMARK                         _______ _______ _______ _____ _____    ______ ____
ROOT
ATOM      1  O   UNL     1     113.518 127.453 136.596  0.00  0.00    +0.000 OA
ATOM      2  O   UNL     1     111.202 126.902 135.923  0.00  0.00    +0.000 OA
ATOM      3  O   UNL     1     113.017 130.276 136.087  0.00  0.00    +0.000 OA
ATOM      4  C   UNL     1     111.688 128.485 135.883  0.00  0.00    +0.000 A 
ATOM      5  C   UNL     1     112.232 127.869 136.133  0.00  0.00    +0.000 A 
ATOM      6  C   UNL     1     113.260 126.670 136.611  0.00  0.00    +0.000 C 
ATOM      7  C   UNL     1     112.488 126.486 136.386  0.00  0.00    +0.000 C 
ATOM      8  C   UNL     1     113.004 128.053 136.358  0.00  0.00    +0.000 A 
ATOM      9  C   UNL     1     111.973 127.086 136.147  0.00  0.00    +0.000 C 
ATOM     10  C   UNL     1     111.951 129.302 135.866  0.00  0.00    +0.000 A 
ATOM     11  C   UNL     1     113.286 128.865 136.347  0.00  0.00    +0.000 A 
ATOM     12  C   UNL     1     112.756 129.494 136.100  0.00  0.00    +0.000 A 
ENDROOT
BRANCH   6  13
ATOM     13  C   UNL     1     113.774 126.070 136.849  0.00  0.00    +0.000 A 
ATOM     14  C   UNL     1     114.249 125.689 136.294  0.00  0.00    +0.000 A 
ATOM     15  C   UNL     1     113.812 125.852 137.644  0.00  0.00    +0.000 A 
ATOM     16  C   UNL     1     114.763 125.089 136.532  0.00  0.00    +0.000 A 
ATOM     17  C   UNL     1     114.326 125.252 137.883  0.00  0.00    +0.000 A 
ATOM     18  C   UNL     1     114.801 124.871 137.327  0.00  0.00    +0.000 A 
ENDBRANCH   6  13
BRANCH   4  19
ATOM     19  O   UNL     1     110.917 128.292 135.660  0.00  0.00    +0.000 OA
BRANCH  19  28
ATOM     20  O   UNL     1     110.182 128.822 136.765  0.00  0.00    +0.000 OA
ATOM     21  O   UNL     1     108.573 129.859 135.197  0.00  0.00    +0.000 OA
ATOM     22  O   UNL     1     108.374 130.044 136.825  0.00  0.00    +0.000 OA
ATOM     23  O   UNL     1     109.844 128.984 134.614  0.00  0.00    +0.000 OA
ATOM     24  C   UNL     1     109.109 129.514 135.720  0.00  0.00    +0.000 C 
ATOM     25  C   UNL     1     109.010 129.606 136.533  0.00  0.00    +0.000 C 
ATOM     26  C   UNL     1     109.745 129.076 135.428  0.00  0.00    +0.000 C 
ATOM     27  C   UNL     1     109.547 129.260 137.055  0.00  0.00    +0.000 C 
ATOM     28  C   UNL     1     110.281 128.730 135.950  0.00  0.00    +0.000 C 
BRANCH  27  30
ATOM     29  O   UNL     1     109.480 128.694 138.366  0.00  0.00    +0.000 OA
ATOM     30  C   UNL     1     109.448 129.352 137.870  0.00  0.00    +0.000 C 
ENDBRANCH  27  30
ENDBRANCH  19  28
ENDBRANCH   4  19
TORSDOF 4
ENDMDL
MODEL 3
REMARK VINA RESULT:      -9.2      7.126      8.533
REMARK  Name = 4142221
REMARK  4 active torsions:
REMARK  status: ('A' for Active; 'I' for Inactive)
REMARK    1  A    between atoms: O_2  and  C_14
REMARK    2  A    between atoms: O_2  and  C_16
REMARK    3  A    between atoms: C_13  and  C_15
REMARK    4  A    between atoms: C_18  and  C_23
REMARK                            x       y       z     vdW  Elec       q    Type
REMARK                         _______ _______ _______ _____ _____    ______ ____
ROOT
ATOM      1  O   UNL     1     104.177 123.384 139.329  0.00  0.00    +0.000 OA
ATOM      2  O   UNL     1     105.948 125.099 139.118  0.00  0.00    +0.000 OA
ATOM      3  O   UNL     1     104.774 123.086 142.163  0.00  0.00    +0.000 OA
ATOM      4  C   UNL     1     105.683 124.406 140.599  0.00  0.00    +0.000 A 
ATOM      5  C   UNL     1     105.213 124.172 139.918  0.00  0.00    +0.000 A 
ATOM      6  C   UNL     1     104.322 123.740 138.599  0.00  0.00    +0.000 C 
ATOM      7  C   UNL     1     104.912 124.311 138.528  0.00  0.00    +0.000 C 
ATOM      8  C   UNL     1     104.623 123.600 139.989  0.00  0.00    +0.000 A 
ATOM      9  C   UNL     1     105.358 124.528 139.189  0.00  0.00    +0.000 C 
ATOM     10  C   UNL     1     105.537 124.039 141.361  0.00  0.00    +0.000 A 
ATOM     11  C   UNL     1     104.461 123.223 140.744  0.00  0.00    +0.000 A 
ATOM     12  C   UNL     1     104.922 123.443 141.434  0.00  0.00    +0.000 A 
ENDROOT
BRANCH   6  13
ATOM     13  C   UNL     1     103.877 123.524 137.939  0.00  0.00    +0.000 A 
ATOM     14  C   UNL     1     103.058 123.629 137.941  0.00  0.00    +0.000 A 
ATOM     15  C   UNL     1     104.250 123.202 137.277  0.00  0.00    +0.000 A 
ATOM     16  C   UNL     1     102.613 123.413 137.281  0.00  0.00    +0.000 A 
ATOM     17  C   UNL     1     103.805 122.986 136.617  0.00  0.00    +0.000 A 
ATOM     18  C   UNL     1     102.986 123.091 136.618  0.00  0.00    +0.000 A 
ENDBRANCH   6  13
BRANCH   4  19
ATOM     19  O   UNL     1     106.272 124.978 140.519  0.00  0.00    +0.000 OA
BRANCH  19  28
ATOM     20  O   UNL     1     105.712 126.114 141.183  0.00  0.00    +0.000 OA
ATOM     21  O   UNL     1     107.776 126.344 142.530  0.00  0.00    +0.000 OA
ATOM     22  O   UNL     1     106.528 127.402 142.744  0.00  0.00    +0.000 OA
ATOM     23  O   UNL     1     107.647 125.132 141.417  0.00  0.00    +0.000 OA
ATOM     24  C   UNL     1     107.088 126.267 142.081  0.00  0.00    +0.000 C 
ATOM     25  C   UNL     1     106.465 126.796 142.188  0.00  0.00    +0.000 C 
ATOM     26  C   UNL     1     107.024 125.661 141.525  0.00  0.00    +0.000 C 
ATOM     27  C   UNL     1     105.777 126.719 141.739  0.00  0.00    +0.000 C 
ATOM     28  C   UNL     1     106.336 125.584 141.075  0.00  0.00    +0.000 C 
BRANCH  27  30
ATOM     29  O   UNL     1     104.758 127.558 141.191  0.00  0.00    +0.000 OA
ATOM     30  C   UNL     1     105.152 127.249 141.846  0.00  0.00    +0.000 C 
ENDBRANCH  27  30
ENDBRANCH  19  28
ENDBRANCH   4  19
TORSDOF 4
ENDMDL
MODEL 4
REMARK VINA RESULT:      -9.1      2.361      3.105
REMARK  Name = 4142221
REMARK  4 active torsions:
REMARK  status: ('A' for Active; 'I' for Inactive)
REMARK    1  A    between atoms: O_2  and  C_14
REMARK    2  A    between atoms: O_2  and  C_16
REMARK    3  A    between atoms: C_13  and  C_15
REMARK    4  A    between atoms: C_18  and  C_23
REMARK                            x       y       z     vdW  Elec       q    Type
REMARK                         _______ _______ _______ _____ _____    ______ ____
ROOT
ATOM      1  O   UNL     1     113.825 127.160 136.294  0.00  0.00    +0.000 OA
ATOM      2  O   UNL     1     112.369 128.193 138.006  0.00  0.00    +0.000 OA
ATOM      3  O   UNL     1     114.335 129.774 135.118  0.00  0.00    +0.000 OA
ATOM      4  C   UNL     1     113.086 129.169 136.876  0.00  0.00    +0.000 A 
ATOM      5  C   UNL     1     113.219 128.320 136.865  0.00  0.00    +0.000 A 
ATOM      6  C   UNL     1     113.460 126.688 136.864  0.00  0.00    +0.000 C 
ATOM      7  C   UNL     1     112.974 127.032 137.435  0.00  0.00    +0.000 C 
ATOM      8  C   UNL     1     113.704 127.975 136.294  0.00  0.00    +0.000 A 
ATOM      9  C   UNL     1     112.854 127.849 137.436  0.00  0.00    +0.000 C 
ATOM     10  C   UNL     1     113.462 129.665 136.285  0.00  0.00    +0.000 A 
ATOM     11  C   UNL     1     114.090 128.455 135.695  0.00  0.00    +0.000 A 
ATOM     12  C   UNL     1     113.969 129.305 135.690  0.00  0.00    +0.000 A 
ENDROOT
BRANCH   6  13
ATOM     13  C   UNL     1     113.580 125.872 136.863  0.00  0.00    +0.000 A 
ATOM     14  C   UNL     1     114.242 125.552 137.237  0.00  0.00    +0.000 A 
ATOM     15  C   UNL     1     113.038 125.375 136.488  0.00  0.00    +0.000 A 
ATOM     16  C   UNL     1     114.363 124.736 137.237  0.00  0.00    +0.000 A 
ATOM     17  C   UNL     1     113.159 124.559 136.488  0.00  0.00    +0.000 A 
ATOM     18  C   UNL     1     113.821 124.239 136.862  0.00  0.00    +0.000 A 
ENDBRANCH   6  13
BRANCH   4  19
ATOM     19  O   UNL     1     112.599 129.505 137.451  0.00  0.00    +0.000 OA
BRANCH  19  28
ATOM     20  O   UNL     1     111.476 129.894 136.657  0.00  0.00    +0.000 OA
ATOM     21  O   UNL     1     111.471 132.114 137.752  0.00  0.00    +0.000 OA
ATOM     22  O   UNL     1     110.350 131.763 136.594  0.00  0.00    +0.000 OA
ATOM     23  O   UNL     1     112.596 130.985 138.181  0.00  0.00    +0.000 OA
ATOM     24  C   UNL     1     111.473 131.374 137.387  0.00  0.00    +0.000 C 
ATOM     25  C   UNL     1     110.912 131.199 136.809  0.00  0.00    +0.000 C 
ATOM     26  C   UNL     1     112.035 130.810 137.602  0.00  0.00    +0.000 C 
ATOM     27  C   UNL     1     110.914 130.459 136.444  0.00  0.00    +0.000 C 
ATOM     28  C   UNL     1     112.037 130.070 137.237  0.00  0.00    +0.000 C 
BRANCH  27  30
ATOM     29  O   UNL     1     110.002 129.537 135.843  0.00  0.00    +0.000 OA
ATOM     30  C   UNL     1     110.353 130.284 135.864  0.00  0.00    +0.000 C 
ENDBRANCH  27  30
ENDBRANCH  19  28
ENDBRANCH   4  19
TORSDOF 4
ENDMDL
MODEL 5
REMARK VINA RESULT:      -9.1      3.838      5.056
REMARK  Name = 4142221
REMARK  4 active torsions:
REMARK  status: ('A' for Active; 'I' for Inactive)
REMARK    1  A    between atoms: O_2  and  C_14
REMARK    2  A    between atoms: O_2  and  C_16
REMARK    3  A    between atoms: C_13  and  C_15
REMARK    4  A    between atoms: C_18  and  C_23
REMARK                            x       y       z     vdW  Elec       q    Type
REMARK                         _______ _______ _______ _____ _____    ______ ____
ROOT
ATOM      1  O   UNL     1     113.151 127.058 137.859  0.00  0.00    +0.000 OA
ATOM      2  O   UNL     1     113.524 127.197 140.301  0.00  0.00    +0.000 OA
ATOM      3  O   UNL     1     112.111 129.777 137.841  0.00  0.00    +0.000 OA
ATOM      4  C   UNL     1     112.887 128.509 139.516  0.00  0.00    +0.000 A 
ATOM      5  C   UNL     1     113.083 127.795 139.081  0.00  0.00    +0.000 A 
ATOM      6  C   UNL     1     113.468 126.413 138.265  0.00  0.00    +0.000 C 
ATOM      7  C   UNL     1     113.592 126.459 139.079  0.00  0.00    +0.000 C 
ATOM      8  C   UNL     1     112.959 127.749 138.266  0.00  0.00    +0.000 A 
ATOM      9  C   UNL     1     113.399 127.151 139.487  0.00  0.00    +0.000 C 
ATOM     10  C   UNL     1     112.557 129.183 139.099  0.00  0.00    +0.000 A 
ATOM     11  C   UNL     1     112.630 128.412 137.831  0.00  0.00    +0.000 A 
ATOM     12  C   UNL     1     112.427 129.135 138.250  0.00  0.00    +0.000 A 
ENDROOT
BRANCH   6  13
ATOM     13  C   UNL     1     113.660 125.722 137.857  0.00  0.00    +0.000 A 
ATOM     14  C   UNL     1     114.451 125.521 137.736  0.00  0.00    +0.000 A 
ATOM     15  C   UNL     1     113.061 125.232 137.570  0.00  0.00    +0.000 A 
ATOM     16  C   UNL     1     114.643 124.831 137.328  0.00  0.00    +0.000 A 
ATOM     17  C   UNL     1     113.253 124.541 137.163  0.00  0.00    +0.000 A 
ATOM     18  C   UNL     1     114.044 124.340 137.042  0.00  0.00    +0.000 A 
ENDBRANCH   6  13
BRANCH   4  19
ATOM     19  O   UNL     1     113.014 128.547 140.330  0.00  0.00    +0.000 OA
BRANCH  19  28
ATOM     20  O   UNL     1     114.005 129.573 140.418  0.00  0.00    +0.000 OA
ATOM     21  O   UNL     1     112.704 130.677 142.210  0.00  0.00    +0.000 OA
ATOM     22  O   UNL     1     114.128 131.335 141.700  0.00  0.00    +0.000 OA
ATOM     23  O   UNL     1     112.147 129.283 141.525  0.00  0.00    +0.000 OA
ATOM     24  C   UNL     1     113.138 130.309 141.612  0.00  0.00    +0.000 C 
ATOM     25  C   UNL     1     113.849 130.638 141.358  0.00  0.00    +0.000 C 
ATOM     26  C   UNL     1     112.858 129.612 141.270  0.00  0.00    +0.000 C 
ATOM     27  C   UNL     1     114.283 130.270 140.760  0.00  0.00    +0.000 C 
ATOM     28  C   UNL     1     113.292 129.244 140.673  0.00  0.00    +0.000 C 
BRANCH  27  30
ATOM     29  O   UNL     1     115.662 130.120 140.418  0.00  0.00    +0.000 OA
ATOM     30  C   UNL     1     114.996 130.599 140.505  0.00  0.00    +0.000 C 
ENDBRANCH  27  30
ENDBRANCH  19  28
ENDBRANCH   4  19
TORSDOF 4
ENDMDL
MODEL 6
REMARK VINA RESULT:      -9.1      3.170      4.401
REMARK  Name = 4142221
REMARK  4 active torsions:
REMARK  status: ('A' for Active; 'I' for Inactive)
REMARK    1  A    between atoms: O_2  and  C_14
REMARK    2  A    between atoms: O_2  and  C_16
REMARK    3  A    between atoms: C_13  and  C_15
REMARK    4  A    between atoms: C_18  and  C_23
REMARK                            x       y       z     vdW  Elec       q    Type
REMARK                         _______ _______ _______ _____ _____    ______ ____
ROOT
ATOM      1  O   UNL     1     113.631 126.420 138.812  0.00  0.00    +0.000 OA
ATOM      2  O   UNL     1     111.339 125.490 138.880  0.00  0.00    +0.000 OA
ATOM      3  O   UNL     1     113.187 127.757 141.360  0.00  0.00    +0.000 OA
ATOM      4  C   UNL     1     111.846 126.452 140.130  0.00  0.00    +0.000 A 
ATOM      5  C   UNL     1     112.372 126.281 139.471  0.00  0.00    +0.000 A 
ATOM      6  C   UNL     1     113.363 125.939 138.198  0.00  0.00    +0.000 C 
ATOM      7  C   UNL     1     112.599 125.629 138.220  0.00  0.00    +0.000 C 
ATOM      8  C   UNL     1     113.136 126.591 139.449  0.00  0.00    +0.000 A 
ATOM      9  C   UNL     1     112.103 125.800 138.858  0.00  0.00    +0.000 C 
ATOM     10  C   UNL     1     112.120 126.952 140.772  0.00  0.00    +0.000 A 
ATOM     11  C   UNL     1     113.428 127.094 140.082  0.00  0.00    +0.000 A 
ATOM     12  C   UNL     1     112.916 127.276 140.748  0.00  0.00    +0.000 A 
ENDROOT
BRANCH   6  13
ATOM     13  C   UNL     1     113.859 125.768 137.561  0.00  0.00    +0.000 A 
ATOM     14  C   UNL     1     113.863 126.258 136.898  0.00  0.00    +0.000 A 
ATOM     15  C   UNL     1     114.351 125.105 137.587  0.00  0.00    +0.000 A 
ATOM     16  C   UNL     1     114.359 126.087 136.261  0.00  0.00    +0.000 A 
ATOM     17  C   UNL     1     114.846 124.934 136.951  0.00  0.00    +0.000 A 
ATOM     18  C   UNL     1     114.850 125.425 136.287  0.00  0.00    +0.000 A 
ENDBRANCH   6  13
BRANCH   4  19
ATOM     19  O   UNL     1     111.084 126.138 140.144  0.00  0.00    +0.000 OA
BRANCH  19  28
ATOM     20  O   UNL     1     110.289 127.315 139.986  0.00  0.00    +0.000 OA
ATOM     21  O   UNL     1     108.858 126.603 141.876  0.00  0.00    +0.000 OA
ATOM     22  O   UNL     1     108.541 128.018 141.088  0.00  0.00    +0.000 OA
ATOM     23  O   UNL     1     110.130 125.663 141.404  0.00  0.00    +0.000 OA
ATOM     24  C   UNL     1     109.335 126.841 141.246  0.00  0.00    +0.000 C 
ATOM     25  C   UNL     1     109.176 127.547 140.853  0.00  0.00    +0.000 C 
ATOM     26  C   UNL     1     109.971 126.370 141.010  0.00  0.00    +0.000 C 
ATOM     27  C   UNL     1     109.653 127.785 140.223  0.00  0.00    +0.000 C 
ATOM     28  C   UNL     1     110.448 126.607 140.381  0.00  0.00    +0.000 C 
BRANCH  27  30
ATOM     29  O   UNL     1     109.446 128.503 139.005  0.00  0.00    +0.000 OA
ATOM     30  C   UNL     1     109.495 128.493 139.828  0.00  0.00    +0.000 C 
ENDBRANCH  27  30
ENDBRANCH  19  28
ENDBRANCH   4  19
TORSDOF 4
ENDMDL
MODEL 7
REMARK VINA RESULT:      -8.9      9.484     10.379
REMARK  Name = 4142221
REMARK  4 active torsions:
REMARK  status: ('A' for Active; 'I' for Inactive)
REMARK    1  A    between atoms: O_2  and  C_14
REMARK    2  A    between atoms: O_2  and  C_16
REMARK    3  A    between atoms: C_13  and  C_15
REMARK    4  A    between atoms: C_18  and  C_23
REMARK                            x       y       z     vdW  Elec       q    Type
REMARK                         _______ _______ _______ _____ _____    ______ ____
ROOT
ATOM      1  O   UNL     1     106.522 124.812 146.492  0.00  0.00    +0.000 OA
ATOM      2  O   UNL     1     106.782 127.184 145.837  0.00  0.00    +0.000 OA
ATOM      3  O   UNL     1     105.173 124.243 143.976  0.00  0.00    +0.000 OA
ATOM      4  C   UNL     1     106.027 126.147 144.790  0.00  0.00    +0.000 A 
ATOM      5  C   UNL     1     106.322 125.864 145.546  0.00  0.00    +0.000 A 
ATOM      6  C   UNL     1     106.896 125.342 147.002  0.00  0.00    +0.000 C 
ATOM      7  C   UNL     1     106.983 126.133 146.784  0.00  0.00    +0.000 C 
ATOM      8  C   UNL     1     106.235 125.073 145.764  0.00  0.00    +0.000 A 
ATOM      9  C   UNL     1     106.695 126.394 146.055  0.00  0.00    +0.000 C 
ATOM     10  C   UNL     1     105.637 125.600 144.255  0.00  0.00    +0.000 A 
ATOM     11  C   UNL     1     105.848 124.510 145.243  0.00  0.00    +0.000 A 
ATOM     12  C   UNL     1     105.547 124.775 144.483  0.00  0.00    +0.000 A 
ENDROOT
BRANCH   6  13
ATOM     13  C   UNL     1     107.184 125.082 147.730  0.00  0.00    +0.000 A 
ATOM     14  C   UNL     1     106.659 124.912 148.344  0.00  0.00    +0.000 A 
ATOM     15  C   UNL     1     107.996 124.991 147.845  0.00  0.00    +0.000 A 
ATOM     16  C   UNL     1     106.946 124.652 149.072  0.00  0.00    +0.000 A 
ATOM     17  C   UNL     1     108.283 124.731 148.573  0.00  0.00    +0.000 A 
ATOM     18  C   UNL     1     107.759 124.561 149.187  0.00  0.00    +0.000 A 
ENDBRANCH   6  13
BRANCH   4  19
ATOM     19  O   UNL     1     106.118 126.939 144.580  0.00  0.00    +0.000 OA
BRANCH  19  28
ATOM     20  O   UNL     1     106.930 126.882 143.406  0.00  0.00    +0.000 OA
ATOM     21  O   UNL     1     105.287 128.286 142.200  0.00  0.00    +0.000 OA
ATOM     22  O   UNL     1     106.647 127.761 141.428  0.00  0.00    +0.000 OA
ATOM     23  O   UNL     1     105.022 127.875 143.776  0.00  0.00    +0.000 OA
ATOM     24  C   UNL     1     105.834 127.818 142.602  0.00  0.00    +0.000 C 
ATOM     25  C   UNL     1     106.514 127.556 142.216  0.00  0.00    +0.000 C 
ATOM     26  C   UNL     1     105.701 127.613 143.390  0.00  0.00    +0.000 C 
ATOM     27  C   UNL     1     107.062 127.088 142.618  0.00  0.00    +0.000 C 
ATOM     28  C   UNL     1     106.249 127.145 143.792  0.00  0.00    +0.000 C 
BRANCH  27  30
ATOM     29  O   UNL     1     108.481 126.921 142.587  0.00  0.00    +0.000 OA
ATOM     30  C   UNL     1     107.743 126.825 142.232  0.00  0.00    +0.000 C 
ENDBRANCH  27  30
ENDBRANCH  19  28
ENDBRANCH   4  19
TORSDOF 4
ENDMDL
MODEL 8
REMARK VINA RESULT:      -8.8      2.653      4.343
REMARK  Name = 4142221
REMARK  4 active torsions:
REMARK  status: ('A' for Active; 'I' for Inactive)
REMARK    1  A    between atoms: O_2  and  C_14
REMARK    2  A    between atoms: O_2  and  C_16
REMARK    3  A    between atoms: C_13  and  C_15
REMARK    4  A    between atoms: C_18  and  C_23
REMARK                            x       y       z     vdW  Elec       q    Type
REMARK                         _______ _______ _______ _____ _____    ______ ____
ROOT
ATOM      1  O   UNL     1     113.071 129.153 135.388  0.00  0.00    +0.000 OA
ATOM      2  O   UNL     1     113.923 127.103 136.479  0.00  0.00    +0.000 OA
ATOM      3  O   UNL     1     110.404 127.993 135.245  0.00  0.00    +0.000 OA
ATOM      4  C   UNL     1     112.322 127.176 136.061  0.00  0.00    +0.000 A 
ATOM      5  C   UNL     1     112.845 127.839 135.901  0.00  0.00    +0.000 A 
ATOM      6  C   UNL     1     113.866 129.101 135.603  0.00  0.00    +0.000 C 
ATOM      7  C   UNL     1     114.150 128.417 135.967  0.00  0.00    +0.000 C 
ATOM      8  C   UNL     1     112.560 128.523 135.537  0.00  0.00    +0.000 A 
ATOM      9  C   UNL     1     113.639 127.785 136.116  0.00  0.00    +0.000 C 
ATOM     10  C   UNL     1     111.494 127.225 135.840  0.00  0.00    +0.000 A 
ATOM     11  C   UNL     1     111.735 128.591 135.308  0.00  0.00    +0.000 A 
ATOM     12  C   UNL     1     111.198 127.937 135.460  0.00  0.00    +0.000 A 
ENDROOT
BRANCH   6  13
ATOM     13  C   UNL     1     114.376 129.731 135.454  0.00  0.00    +0.000 A 
ATOM     14  C   UNL     1     114.440 130.348 135.998  0.00  0.00    +0.000 A 
ATOM     15  C   UNL     1     114.823 129.745 134.761  0.00  0.00    +0.000 A 
ATOM     16  C   UNL     1     114.950 130.978 135.850  0.00  0.00    +0.000 A 
ATOM     17  C   UNL     1     115.334 130.376 134.612  0.00  0.00    +0.000 A 
ATOM     18  C   UNL     1     115.398 130.992 135.156  0.00  0.00    +0.000 A 
ENDBRANCH   6  13
BRANCH   4  19
ATOM     19  O   UNL     1     112.615 126.496 136.425  0.00  0.00    +0.000 OA
BRANCH  19  28
ATOM     20  O   UNL     1     111.946 126.558 137.686  0.00  0.00    +0.000 OA
ATOM     21  O   UNL     1     111.350 124.164 137.489  0.00  0.00    +0.000 OA
ATOM     22  O   UNL     1     110.879 125.025 138.815  0.00  0.00    +0.000 OA
ATOM     23  O   UNL     1     112.218 124.900 136.293  0.00  0.00    +0.000 OA
ATOM     24  C   UNL     1     111.549 124.962 137.554  0.00  0.00    +0.000 C 
ATOM     25  C   UNL     1     111.313 125.392 138.217  0.00  0.00    +0.000 C 
ATOM     26  C   UNL     1     111.983 125.329 136.956  0.00  0.00    +0.000 C 
ATOM     27  C   UNL     1     111.512 126.190 138.283  0.00  0.00    +0.000 C 
ATOM     28  C   UNL     1     112.181 126.127 137.022  0.00  0.00    +0.000 C 
BRANCH  27  30
ATOM     29  O   UNL     1     111.794 127.163 139.290  0.00  0.00    +0.000 OA
ATOM     30  C   UNL     1     111.276 126.621 138.947  0.00  0.00    +0.000 C 
ENDBRANCH  27  30
ENDBRANCH  19  28
ENDBRANCH   4  19
TORSDOF 4
ENDMDL
