MODEL 1
REMARK VINA RESULT:     -11.7      0.000      0.000
REMARK  Name = 42607811
REMARK  10 active torsions:
REMARK  status: ('A' for Active; 'I' for Inactive)
REMARK    1  A    between atoms: O_1  and  C_17
REMARK    2  A    between atoms: O_1  and  C_19
REMARK    3  A    between atoms: O_7  and  C_22
REMARK    4  A    between atoms: O_7  and  C_27
REMARK    5  A    between atoms: O_9  and  C_25
REMARK    6  A    between atoms: O_9  and  C_28
REMARK    7  A    between atoms: C_16  and  C_25
REMARK    8  A    between atoms: C_24  and  C_26
REMARK    9  A    between atoms: C_28  and  C_35
REMARK   10  A    between atoms: C_31  and  C_32
REMARK                            x       y       z     vdW  Elec       q    Type
REMARK                         _______ _______ _______ _____ _____    ______ ____
ROOT
ATOM      1  O   UNL     1     106.817 126.817 142.671  0.00  0.00    +0.000 OA
ATOM      2  O   UNL     1     107.533 125.804 140.529  0.00  0.00    +0.000 OA
ATOM      3  O   UNL     1     108.348 127.100 141.142  0.00  0.00    +0.000 OA
ATOM      4  C   UNL     1     106.647 125.830 141.650  0.00  0.00    +0.000 C 
ATOM      5  C   UNL     1     107.294 126.142 141.243  0.00  0.00    +0.000 C 
ATOM      6  C   UNL     1     107.702 126.789 141.549  0.00  0.00    +0.000 C 
ATOM      7  C   UNL     1     106.408 126.168 142.364  0.00  0.00    +0.000 C 
ATOM      8  C   UNL     1     107.463 127.127 142.263  0.00  0.00    +0.000 C 
ENDROOT
BRANCH   8  10
ATOM      9  O   UNL     1     108.398 127.671 143.197  0.00  0.00    +0.000 OA
ATOM     10  C   UNL     1     107.871 127.775 142.570  0.00  0.00    +0.000 C 
ENDBRANCH   8  10
BRANCH   4  11
ATOM     11  O   UNL     1     106.240 125.183 141.344  0.00  0.00    +0.000 OA
BRANCH  11  17
ATOM     12  O   UNL     1     105.320 126.010 140.549  0.00  0.00    +0.000 OA
ATOM     13  O   UNL     1     104.244 125.169 139.173  0.00  0.00    +0.000 OA
ATOM     14  O   UNL     1     105.555 123.904 140.286  0.00  0.00    +0.000 OA
ATOM     15  C   UNL     1     104.811 125.059 139.762  0.00  0.00    +0.000 C 
ATOM     16  C   UNL     1     105.358 124.705 140.269  0.00  0.00    +0.000 C 
ATOM     17  C   UNL     1     105.672 125.292 140.755  0.00  0.00    +0.000 C 
ATOM     18  C   UNL     1     104.788 125.865 139.935  0.00  0.00    +0.000 C 
BRANCH  15  19
ATOM     19  C   UNL     1     104.658 124.326 139.415  0.00  0.00    +0.000 C 
BRANCH  19  20
ATOM     20  O   UNL     1     104.128 124.270 138.787  0.00  0.00    +0.000 OA
BRANCH  20  22
ATOM     21  O   UNL     1     104.450 122.888 138.625  0.00  0.00    +0.000 OA
ATOM     22  C   UNL     1     103.983 123.539 138.433  0.00  0.00    +0.000 C 
BRANCH  22  24
ATOM     23  N   UNL     1     102.158 123.420 137.344  0.00  0.00    +0.000 NA
ATOM     24  C   UNL     1     103.370 123.459 137.885  0.00  0.00    +0.000 A 
ATOM     25  C   UNL     1     103.456 123.281 137.089  0.00  0.00    +0.000 A 
ATOM     26  C   UNL     1     102.569 123.545 138.043  0.00  0.00    +0.000 A 
ATOM     27  C   UNL     1     102.702 123.257 136.753  0.00  0.00    +0.000 A 
ATOM     28  C   UNL     1     104.121 123.137 136.622  0.00  0.00    +0.000 A 
ATOM     29  C   UNL     1     102.614 123.088 135.950  0.00  0.00    +0.000 A 
ATOM     30  C   UNL     1     104.033 122.969 135.820  0.00  0.00    +0.000 A 
ATOM     31  C   UNL     1     103.280 122.945 135.484  0.00  0.00    +0.000 A 
ENDBRANCH  22  24
ENDBRANCH  20  22
ENDBRANCH  19  20
ENDBRANCH  15  19
ENDBRANCH  11  17
ENDBRANCH   4  11
BRANCH   7  32
ATOM     32  O   UNL     1     105.762 125.858 142.772  0.00  0.00    +0.000 OA
BRANCH  32  33
ATOM     33  C   UNL     1     105.827 125.680 143.574  0.00  0.00    +0.000 A 
ATOM     34  C   UNL     1     106.056 124.924 143.811  0.00  0.00    +0.000 A 
ATOM     35  C   UNL     1     105.662 126.257 144.139  0.00  0.00    +0.000 A 
ATOM     36  C   UNL     1     105.956 125.324 145.180  0.00  0.00    +0.000 A 
ATOM     37  C   UNL     1     106.121 124.745 144.614  0.00  0.00    +0.000 A 
ATOM     38  C   UNL     1     105.727 126.079 144.942  0.00  0.00    +0.000 A 
BRANCH  36  42
ATOM     39  O   UNL     1     106.758 125.172 146.353  0.00  0.00    +0.000 OA
ATOM     40  O   UNL     1     104.741 124.558 147.651  0.00  0.00    +0.000 OA
ATOM     41  O   UNL     1     108.407 124.868 148.734  0.00  0.00    +0.000 OA
ATOM     42  C   UNL     1     106.021 125.145 145.983  0.00  0.00    +0.000 C 
ATOM     43  C   UNL     1     105.349 124.941 146.415  0.00  0.00    +0.000 C 
ATOM     44  C   UNL     1     105.414 124.763 147.218  0.00  0.00    +0.000 C 
ATOM     45  C   UNL     1     106.823 124.994 147.156  0.00  0.00    +0.000 A 
ATOM     46  C   UNL     1     106.150 124.789 147.589  0.00  0.00    +0.000 A 
ATOM     47  C   UNL     1     107.596 125.025 147.530  0.00  0.00    +0.000 A 
ATOM     48  C   UNL     1     106.205 124.602 148.426  0.00  0.00    +0.000 A 
ATOM     49  C   UNL     1     107.669 124.841 148.367  0.00  0.00    +0.000 A 
ATOM     50  C   UNL     1     106.969 124.628 148.817  0.00  0.00    +0.000 A 
ENDBRANCH  36  42
ENDBRANCH  32  33
ENDBRANCH   7  32
TORSDOF 10
ENDMDL
MODEL 2
REMARK VINA RESULT:     -11.5      3.429      7.469
REMARK  Name = 42607811
REMARK  10 active torsions:
REMARK  status: ('A' for Active; 'I' for Inactive)
REMARK    1  A    between atoms: O_1  and  C_17
REMARK    2  A    between atoms: O_1  and  C_19
REMARK    3  A    between atoms: O_7  and  C_22
REMARK    4  A    between atoms: O_7  and  C_27
REMARK    5  A    between atoms: O_9  and  C_25
REMARK    6  A    between atoms: O_9  and  C_28
REMARK    7  A    between atoms: C_16  and  C_25
REMARK    8  A    between atoms: C_24  and  C_26
REMARK    9  A    between atoms: C_28  and  C_35
REMARK   10  A    between atoms: C_31  and  C_32
REMARK                            x       y       z     vdW  Elec       q    Type
REMARK                         _______ _______ _______ _____ _____    ______ ____
ROOT
ATOM      1  O   UNL     1     106.411 124.975 141.765  0.00  0.00    +0.000 OA
ATOM      2  O   UNL     1     107.650 127.115 141.875  0.00  0.00    +0.000 OA
ATOM      3  O   UNL     1     106.676 126.661 143.126  0.00  0.00    +0.000 OA
ATOM      4  C   UNL     1     107.312 125.916 141.176  0.00  0.00    +0.000 C 
ATOM      5  C   UNL     1     107.237 126.402 141.839  0.00  0.00    +0.000 C 
ATOM      6  C   UNL     1     106.750 126.175 142.464  0.00  0.00    +0.000 C 
ATOM      7  C   UNL     1     106.899 125.203 141.139  0.00  0.00    +0.000 C 
ATOM      8  C   UNL     1     106.337 125.462 142.427  0.00  0.00    +0.000 C 
ENDROOT
BRANCH   8  10
ATOM      9  O   UNL     1     105.975 124.511 143.431  0.00  0.00    +0.000 OA
ATOM     10  C   UNL     1     105.849 125.234 143.053  0.00  0.00    +0.000 C 
ENDBRANCH   8  10
BRANCH   4  11
ATOM     11  O   UNL     1     107.799 126.143 140.551  0.00  0.00    +0.000 OA
BRANCH  11  17
ATOM     12  O   UNL     1     109.014 125.647 141.215  0.00  0.00    +0.000 OA
ATOM     13  O   UNL     1     110.718 125.805 140.306  0.00  0.00    +0.000 OA
ATOM     14  O   UNL     1     109.000 126.547 139.279  0.00  0.00    +0.000 OA
ATOM     15  C   UNL     1     109.907 125.948 140.269  0.00  0.00    +0.000 C 
ATOM     16  C   UNL     1     109.163 126.186 140.003  0.00  0.00    +0.000 C 
ATOM     17  C   UNL     1     108.611 126.000 140.587  0.00  0.00    +0.000 C 
ATOM     18  C   UNL     1     109.814 125.614 141.018  0.00  0.00    +0.000 C 
BRANCH  15  19
ATOM     19  C   UNL     1     110.246 126.221 139.568  0.00  0.00    +0.000 C 
BRANCH  19  20
ATOM     20  O   UNL     1     110.942 125.882 139.287  0.00  0.00    +0.000 OA
BRANCH  20  22
ATOM     21  O   UNL     1     110.929 126.775 138.173  0.00  0.00    +0.000 OA
ATOM     22  C   UNL     1     111.288 126.164 138.593  0.00  0.00    +0.000 C 
BRANCH  22  24
ATOM     23  N   UNL     1     113.286 125.573 138.159  0.00  0.00    +0.000 NA
ATOM     24  C   UNL     1     111.994 125.834 138.320  0.00  0.00    +0.000 A 
ATOM     25  C   UNL     1     112.063 125.251 137.749  0.00  0.00    +0.000 A 
ATOM     26  C   UNL     1     112.749 126.033 138.574  0.00  0.00    +0.000 A 
ATOM     27  C   UNL     1     112.866 125.088 137.648  0.00  0.00    +0.000 A 
ATOM     28  C   UNL     1     111.501 124.842 137.303  0.00  0.00    +0.000 A 
ATOM     29  C   UNL     1     113.107 124.518 137.103  0.00  0.00    +0.000 A 
ATOM     30  C   UNL     1     111.742 124.273 136.757  0.00  0.00    +0.000 A 
ATOM     31  C   UNL     1     112.544 124.111 136.657  0.00  0.00    +0.000 A 
ENDBRANCH  22  24
ENDBRANCH  20  22
ENDBRANCH  19  20
ENDBRANCH  15  19
ENDBRANCH  11  17
ENDBRANCH   4  11
BRANCH   7  32
ATOM     32  O   UNL     1     106.973 124.716 140.477  0.00  0.00    +0.000 OA
BRANCH  32  33
ATOM     33  C   UNL     1     106.303 124.493 140.052  0.00  0.00    +0.000 A 
ATOM     34  C   UNL     1     106.009 123.725 140.118  0.00  0.00    +0.000 A 
ATOM     35  C   UNL     1     105.927 125.038 139.560  0.00  0.00    +0.000 A 
ATOM     36  C   UNL     1     104.962 124.047 139.200  0.00  0.00    +0.000 A 
ATOM     37  C   UNL     1     105.339 123.502 139.692  0.00  0.00    +0.000 A 
ATOM     38  C   UNL     1     105.256 124.815 139.135  0.00  0.00    +0.000 A 
BRANCH  36  42
ATOM     39  O   UNL     1     104.357 123.630 137.975  0.00  0.00    +0.000 OA
ATOM     40  O   UNL     1     102.151 123.543 139.095  0.00  0.00    +0.000 OA
ATOM     41  O   UNL     1     103.140 122.780 135.469  0.00  0.00    +0.000 OA
ATOM     42  C   UNL     1     104.291 123.824 138.774  0.00  0.00    +0.000 C 
ATOM     43  C   UNL     1     103.557 123.795 139.147  0.00  0.00    +0.000 C 
ATOM     44  C   UNL     1     102.886 123.572 138.722  0.00  0.00    +0.000 C 
ATOM     45  C   UNL     1     103.686 123.407 137.549  0.00  0.00    +0.000 A 
ATOM     46  C   UNL     1     102.950 123.378 137.922  0.00  0.00    +0.000 A 
ATOM     47  C   UNL     1     103.767 123.207 136.717  0.00  0.00    +0.000 A 
ATOM     48  C   UNL     1     102.245 123.147 137.490  0.00  0.00    +0.000 A 
ATOM     49  C   UNL     1     103.071 122.973 136.268  0.00  0.00    +0.000 A 
ATOM     50  C   UNL     1     102.306 122.944 136.657  0.00  0.00    +0.000 A 
ENDBRANCH  36  42
ENDBRANCH  32  33
ENDBRANCH   7  32
TORSDOF 10
ENDMDL
MODEL 3
REMARK VINA RESULT:     -11.4      3.980      6.966
REMARK  Name = 42607811
REMARK  10 active torsions:
REMARK  status: ('A' for Active; 'I' for Inactive)
REMARK    1  A    between atoms: O_1  and  C_17
REMARK    2  A    between atoms: O_1  and  C_19
REMARK    3  A    between atoms: O_7  and  C_22
REMARK    4  A    between atoms: O_7  and  C_27
REMARK    5  A    between atoms: O_9  and  C_25
REMARK    6  A    between atoms: O_9  and  C_28
REMARK    7  A    between atoms: C_16  and  C_25
REMARK    8  A    between atoms: C_24  and  C_26
REMARK    9  A    between atoms: C_28  and  C_35
REMARK   10  A    between atoms: C_31  and  C_32
REMARK                            x       y       z     vdW  Elec       q    Type
REMARK                         _______ _______ _______ _____ _____    ______ ____
ROOT
ATOM      1  O   UNL     1     106.561 127.721 142.371  0.00  0.00    +0.000 OA
ATOM      2  O   UNL     1     107.412 125.398 142.441  0.00  0.00    +0.000 OA
ATOM      3  O   UNL     1     108.399 126.624 141.946  0.00  0.00    +0.000 OA
ATOM      4  C   UNL     1     106.351 126.334 142.642  0.00  0.00    +0.000 C 
ATOM      5  C   UNL     1     107.129 126.173 142.418  0.00  0.00    +0.000 C 
ATOM      6  C   UNL     1     107.622 126.785 142.170  0.00  0.00    +0.000 C 
ATOM      7  C   UNL     1     106.067 127.108 142.619  0.00  0.00    +0.000 C 
ATOM      8  C   UNL     1     107.339 127.559 142.147  0.00  0.00    +0.000 C 
ENDROOT
BRANCH   8  10
ATOM      9  O   UNL     1     107.715 128.522 141.161  0.00  0.00    +0.000 OA
ATOM     10  C   UNL     1     107.832 128.172 141.900  0.00  0.00    +0.000 C 
ENDBRANCH   8  10
BRANCH   4  11
ATOM     11  O   UNL     1     105.858 125.721 142.890  0.00  0.00    +0.000 OA
BRANCH  11  17
ATOM     12  O   UNL     1     106.327 125.800 144.281  0.00  0.00    +0.000 OA
ATOM     13  O   UNL     1     105.627 124.549 145.585  0.00  0.00    +0.000 OA
ATOM     14  O   UNL     1     104.899 124.373 143.587  0.00  0.00    +0.000 OA
ATOM     15  C   UNL     1     105.614 124.797 144.800  0.00  0.00    +0.000 C 
ATOM     16  C   UNL     1     105.430 124.854 143.997  0.00  0.00    +0.000 C 
ATOM     17  C   UNL     1     105.870 125.472 143.676  0.00  0.00    +0.000 C 
ATOM     18  C   UNL     1     106.168 125.383 144.974  0.00  0.00    +0.000 C 
BRANCH  15  19
ATOM     19  C   UNL     1     105.091 124.164 144.876  0.00  0.00    +0.000 C 
BRANCH  19  20
ATOM     20  O   UNL     1     104.555 124.144 145.502  0.00  0.00    +0.000 OA
BRANCH  20  22
ATOM     21  O   UNL     1     104.363 122.740 145.325  0.00  0.00    +0.000 OA
ATOM     22  C   UNL     1     104.128 123.456 145.658  0.00  0.00    +0.000 C 
BRANCH  22  24
ATOM     23  N   UNL     1     102.685 123.676 147.207  0.00  0.00    +0.000 NA
ATOM     24  C   UNL     1     103.465 123.484 146.149  0.00  0.00    +0.000 A 
ATOM     25  C   UNL     1     102.704 123.263 145.943  0.00  0.00    +0.000 A 
ATOM     26  C   UNL     1     103.454 123.740 146.929  0.00  0.00    +0.000 A 
ATOM     27  C   UNL     1     102.218 123.381 146.600  0.00  0.00    +0.000 A 
ATOM     28  C   UNL     1     102.383 122.967 145.242  0.00  0.00    +0.000 A 
ATOM     29  C   UNL     1     101.414 123.205 146.556  0.00  0.00    +0.000 A 
ATOM     30  C   UNL     1     101.579 122.790 145.198  0.00  0.00    +0.000 A 
ATOM     31  C   UNL     1     101.095 122.909 145.855  0.00  0.00    +0.000 A 
ENDBRANCH  22  24
ENDBRANCH  20  22
ENDBRANCH  19  20
ENDBRANCH  15  19
ENDBRANCH  11  17
ENDBRANCH   4  11
BRANCH   7  32
ATOM     32  O   UNL     1     105.290 127.270 142.843  0.00  0.00    +0.000 OA
BRANCH  32  33
ATOM     33  C   UNL     1     104.923 127.964 142.589  0.00  0.00    +0.000 A 
ATOM     34  C   UNL     1     104.877 128.614 143.094  0.00  0.00    +0.000 A 
ATOM     35  C   UNL     1     104.604 128.007 141.830  0.00  0.00    +0.000 A 
ATOM     36  C   UNL     1     104.189 129.352 142.080  0.00  0.00    +0.000 A 
ATOM     37  C   UNL     1     104.510 129.308 142.840  0.00  0.00    +0.000 A 
ATOM     38  C   UNL     1     104.237 128.701 141.576  0.00  0.00    +0.000 A 
BRANCH  36  42
ATOM     39  O   UNL     1     104.276 130.662 141.517  0.00  0.00    +0.000 OA
ATOM     40  O   UNL     1     101.816 130.893 141.681  0.00  0.00    +0.000 OA
ATOM     41  O   UNL     1     104.470 133.331 140.368  0.00  0.00    +0.000 OA
ATOM     42  C   UNL     1     103.822 130.045 141.826  0.00  0.00    +0.000 C 
ATOM     43  C   UNL     1     103.004 130.122 141.881  0.00  0.00    +0.000 C 
ATOM     44  C   UNL     1     102.637 130.816 141.627  0.00  0.00    +0.000 C 
ATOM     45  C   UNL     1     103.909 131.356 141.263  0.00  0.00    +0.000 A 
ATOM     46  C   UNL     1     103.089 131.433 141.318  0.00  0.00    +0.000 A 
ATOM     47  C   UNL     1     104.391 131.991 140.943  0.00  0.00    +0.000 A 
ATOM     48  C   UNL     1     102.695 132.150 141.056  0.00  0.00    +0.000 A 
ATOM     49  C   UNL     1     104.014 132.716 140.677  0.00  0.00    +0.000 A 
ATOM     50  C   UNL     1     103.161 132.796 140.734  0.00  0.00    +0.000 A 
ENDBRANCH  36  42
ENDBRANCH  32  33
ENDBRANCH   7  32
TORSDOF 10
ENDMDL
MODEL 4
REMARK VINA RESULT:     -11.4      3.356      6.233
REMARK  Name = 42607811
REMARK  10 active torsions:
REMARK  status: ('A' for Active; 'I' for Inactive)
REMARK    1  A    between atoms: O_1  and  C_17
REMARK    2  A    between atoms: O_1  and  C_19
REMARK    3  A    between atoms: O_7  and  C_22
REMARK    4  A    between atoms: O_7  and  C_27
REMARK    5  A    between atoms: O_9  and  C_25
REMARK    6  A    between atoms: O_9  and  C_28
REMARK    7  A    between atoms: C_16  and  C_25
REMARK    8  A    between atoms: C_24  and  C_26
REMARK    9  A    between atoms: C_28  and  C_35
REMARK   10  A    between atoms: C_31  and  C_32
REMARK                            x       y       z     vdW  Elec       q    Type
REMARK                         _______ _______ _______ _____ _____    ______ ____
ROOT
ATOM      1  O   UNL     1     108.611 126.912 141.001  0.00  0.00    +0.000 OA
ATOM      2  O   UNL     1     106.955 125.736 142.416  0.00  0.00    +0.000 OA
ATOM      3  O   UNL     1     107.787 127.026 143.019  0.00  0.00    +0.000 OA
ATOM      4  C   UNL     1     107.642 125.875 141.171  0.00  0.00    +0.000 C 
ATOM      5  C   UNL     1     107.507 126.128 141.944  0.00  0.00    +0.000 C 
ATOM      6  C   UNL     1     107.923 126.773 142.246  0.00  0.00    +0.000 C 
ATOM      7  C   UNL     1     108.194 126.266 140.699  0.00  0.00    +0.000 C 
ATOM      8  C   UNL     1     108.475 127.165 141.774  0.00  0.00    +0.000 C 
ENDROOT
BRANCH   8  10
ATOM      9  O   UNL     1     109.699 127.741 142.233  0.00  0.00    +0.000 OA
ATOM     10  C   UNL     1     108.892 127.809 142.076  0.00  0.00    +0.000 C 
ENDBRANCH   8  10
BRANCH   4  11
ATOM     11  O   UNL     1     107.226 125.230 140.869  0.00  0.00    +0.000 OA
BRANCH  11  17
ATOM     12  O   UNL     1     106.030 126.036 140.583  0.00  0.00    +0.000 OA
ATOM     13  O   UNL     1     104.501 125.192 139.741  0.00  0.00    +0.000 OA
ATOM     14  O   UNL     1     106.200 123.958 140.124  0.00  0.00    +0.000 OA
ATOM     15  C   UNL     1     105.267 125.090 140.029  0.00  0.00    +0.000 C 
ATOM     16  C   UNL     1     105.988 124.748 140.238  0.00  0.00    +0.000 C 
ATOM     17  C   UNL     1     106.459 125.331 140.580  0.00  0.00    +0.000 C 
ATOM     18  C   UNL     1     105.293 125.886 140.243  0.00  0.00    +0.000 C 
BRANCH  15  19
ATOM     19  C   UNL     1     105.006 124.364 139.737  0.00  0.00    +0.000 C 
BRANCH  19  20
ATOM     20  O   UNL     1     104.381 124.336 139.201  0.00  0.00    +0.000 OA
BRANCH  20  22
ATOM     21  O   UNL     1     104.329 122.915 139.331  0.00  0.00    +0.000 OA
ATOM     22  C   UNL     1     104.060 123.609 138.979  0.00  0.00    +0.000 C 
BRANCH  22  24
ATOM     23  N   UNL     1     102.286 123.656 137.803  0.00  0.00    +0.000 NA
ATOM     24  C   UNL     1     103.468 123.578 138.404  0.00  0.00    +0.000 A 
ATOM     25  C   UNL     1     103.569 123.356 137.621  0.00  0.00    +0.000 A 
ATOM     26  C   UNL     1     102.676 123.763 138.517  0.00  0.00    +0.000 A 
ATOM     27  C   UNL     1     102.835 123.404 137.248  0.00  0.00    +0.000 A 
ATOM     28  C   UNL     1     104.233 123.114 137.195  0.00  0.00    +0.000 A 
ATOM     29  C   UNL     1     102.765 123.212 136.449  0.00  0.00    +0.000 A 
ATOM     30  C   UNL     1     104.164 122.922 136.396  0.00  0.00    +0.000 A 
ATOM     31  C   UNL     1     103.430 122.971 136.023  0.00  0.00    +0.000 A 
ENDBRANCH  22  24
ENDBRANCH  20  22
ENDBRANCH  19  20
ENDBRANCH  15  19
ENDBRANCH  11  17
ENDBRANCH   4  11
BRANCH   7  32
ATOM     32  O   UNL     1     108.330 126.014 139.926  0.00  0.00    +0.000 OA
BRANCH  32  33
ATOM     33  C   UNL     1     109.100 125.977 139.632  0.00  0.00    +0.000 A 
ATOM     34  C   UNL     1     109.621 125.402 139.913  0.00  0.00    +0.000 A 
ATOM     35  C   UNL     1     109.348 126.515 139.059  0.00  0.00    +0.000 A 
ATOM     36  C   UNL     1     110.640 125.905 139.046  0.00  0.00    +0.000 A 
ATOM     37  C   UNL     1     110.391 125.366 139.620  0.00  0.00    +0.000 A 
ATOM     38  C   UNL     1     110.119 126.479 138.766  0.00  0.00    +0.000 A 
BRANCH  36  42
ATOM     39  O   UNL     1     111.591 125.356 138.131  0.00  0.00    +0.000 OA
ATOM     40  O   UNL     1     113.359 126.784 139.114  0.00  0.00    +0.000 OA
ATOM     41  O   UNL     1     113.516 124.226 136.261  0.00  0.00    +0.000 OA
ATOM     42  C   UNL     1     111.411 125.868 138.752  0.00  0.00    +0.000 C 
ATOM     43  C   UNL     1     111.999 126.344 139.080  0.00  0.00    +0.000 C 
ATOM     44  C   UNL     1     112.769 126.308 138.786  0.00  0.00    +0.000 C 
ATOM     45  C   UNL     1     112.362 125.319 137.838  0.00  0.00    +0.000 A 
ATOM     46  C   UNL     1     112.951 125.796 138.166  0.00  0.00    +0.000 A 
ATOM     47  C   UNL     1     112.538 124.782 137.191  0.00  0.00    +0.000 A 
ATOM     48  C   UNL     1     113.757 125.767 137.869  0.00  0.00    +0.000 A 
ATOM     49  C   UNL     1     113.339 124.740 136.881  0.00  0.00    +0.000 A 
ATOM     50  C   UNL     1     113.951 125.235 137.223  0.00  0.00    +0.000 A 
ENDBRANCH  36  42
ENDBRANCH  32  33
ENDBRANCH   7  32
TORSDOF 10
ENDMDL
MODEL 5
REMARK VINA RESULT:     -11.3      7.729     11.108
REMARK  Name = 42607811
REMARK  10 active torsions:
REMARK  status: ('A' for Active; 'I' for Inactive)
REMARK    1  A    between atoms: O_1  and  C_17
REMARK    2  A    between atoms: O_1  and  C_19
REMARK    3  A    between atoms: O_7  and  C_22
REMARK    4  A    between atoms: O_7  and  C_27
REMARK    5  A    between atoms: O_9  and  C_25
REMARK    6  A    between atoms: O_9  and  C_28
REMARK    7  A    between atoms: C_16  and  C_25
REMARK    8  A    between atoms: C_24  and  C_26
REMARK    9  A    between atoms: C_28  and  C_35
REMARK   10  A    between atoms: C_31  and  C_32
REMARK                            x       y       z     vdW  Elec       q    Type
REMARK                         _______ _______ _______ _____ _____    ______ ____
ROOT
ATOM      1  O   UNL     1     113.718 129.778 139.735  0.00  0.00    +0.000 OA
ATOM      2  O   UNL     1     114.051 131.126 141.783  0.00  0.00    +0.000 OA
ATOM      3  O   UNL     1     114.910 131.474 140.419  0.00  0.00    +0.000 OA
ATOM      4  C   UNL     1     113.400 130.054 141.101  0.00  0.00    +0.000 C 
ATOM      5  C   UNL     1     113.940 130.677 141.101  0.00  0.00    +0.000 C 
ATOM      6  C   UNL     1     114.369 130.851 140.419  0.00  0.00    +0.000 C 
ATOM      7  C   UNL     1     113.289 129.604 140.418  0.00  0.00    +0.000 C 
ATOM      8  C   UNL     1     114.258 130.401 139.736  0.00  0.00    +0.000 C 
ENDROOT
BRANCH   8  10
ATOM      9  O   UNL     1     114.292 130.791 138.361  0.00  0.00    +0.000 OA
ATOM     10  C   UNL     1     114.688 130.575 139.053  0.00  0.00    +0.000 C 
ENDBRANCH   8  10
BRANCH   4  11
ATOM     11  O   UNL     1     112.970 129.880 141.783  0.00  0.00    +0.000 OA
BRANCH  11  17
ATOM     12  O   UNL     1     111.898 130.835 141.467  0.00  0.00    +0.000 OA
ATOM     13  O   UNL     1     110.605 131.289 142.838  0.00  0.00    +0.000 OA
ATOM     14  O   UNL     1     112.131 129.895 143.370  0.00  0.00    +0.000 OA
ATOM     15  C   UNL     1     111.274 130.847 142.648  0.00  0.00    +0.000 C 
ATOM     16  C   UNL     1     111.915 130.329 142.702  0.00  0.00    +0.000 C 
ATOM     17  C   UNL     1     112.300 130.322 141.974  0.00  0.00    +0.000 C 
ATOM     18  C   UNL     1     111.265 131.159 141.884  0.00  0.00    +0.000 C 
BRANCH  15  19
ATOM     19  C   UNL     1     111.077 130.686 143.432  0.00  0.00    +0.000 C 
BRANCH  19  20
ATOM     20  O   UNL     1     110.750 131.277 143.905  0.00  0.00    +0.000 OA
BRANCH  20  22
ATOM     21  O   UNL     1     110.617 130.347 144.981  0.00  0.00    +0.000 OA
ATOM     22  C   UNL     1     110.538 131.112 144.685  0.00  0.00    +0.000 C 
BRANCH  22  24
ATOM     23  N   UNL     1     109.421 132.582 145.744  0.00  0.00    +0.000 NA
ATOM     24  C   UNL     1     110.245 131.713 145.169  0.00  0.00    +0.000 A 
ATOM     25  C   UNL     1     110.677 132.144 145.716  0.00  0.00    +0.000 A 
ATOM     26  C   UNL     1     109.470 131.983 145.186  0.00  0.00    +0.000 A 
ATOM     27  C   UNL     1     110.166 132.684 146.074  0.00  0.00    +0.000 A 
ATOM     28  C   UNL     1     111.471 132.119 145.938  0.00  0.00    +0.000 A 
ATOM     29  C   UNL     1     110.448 133.198 146.653  0.00  0.00    +0.000 A 
ATOM     30  C   UNL     1     111.754 132.633 146.518  0.00  0.00    +0.000 A 
ATOM     31  C   UNL     1     111.243 133.172 146.875  0.00  0.00    +0.000 A 
ENDBRANCH  22  24
ENDBRANCH  20  22
ENDBRANCH  19  20
ENDBRANCH  15  19
ENDBRANCH  11  17
ENDBRANCH   4  11
BRANCH   7  32
ATOM     32  O   UNL     1     112.748 128.981 140.417  0.00  0.00    +0.000 OA
BRANCH  32  33
ATOM     33  C   UNL     1     112.881 128.320 139.942  0.00  0.00    +0.000 A 
ATOM     34  C   UNL     1     112.519 128.264 139.203  0.00  0.00    +0.000 A 
ATOM     35  C   UNL     1     113.376 127.715 140.206  0.00  0.00    +0.000 A 
ATOM     36  C   UNL     1     113.147 126.997 138.992  0.00  0.00    +0.000 A 
ATOM     37  C   UNL     1     112.652 127.603 138.728  0.00  0.00    +0.000 A 
ATOM     38  C   UNL     1     113.509 127.054 139.731  0.00  0.00    +0.000 A 
BRANCH  36  42
ATOM     39  O   UNL     1     112.642 125.926 138.193  0.00  0.00    +0.000 OA
ATOM     40  O   UNL     1     114.956 125.172 137.741  0.00  0.00    +0.000 OA
ATOM     41  O   UNL     1     111.594 123.749 136.568  0.00  0.00    +0.000 OA
ATOM     42  C   UNL     1     113.281 126.336 138.517  0.00  0.00    +0.000 C 
ATOM     43  C   UNL     1     114.051 126.085 138.367  0.00  0.00    +0.000 C 
ATOM     44  C   UNL     1     114.184 125.424 137.892  0.00  0.00    +0.000 C 
ATOM     45  C   UNL     1     112.775 125.265 137.718  0.00  0.00    +0.000 A 
ATOM     46  C   UNL     1     113.547 125.013 137.567  0.00  0.00    +0.000 A 
ATOM     47  C   UNL     1     112.102 124.846 137.386  0.00  0.00    +0.000 A 
ATOM     48  C   UNL     1     113.698 124.326 137.074  0.00  0.00    +0.000 A 
ATOM     49  C   UNL     1     112.234 124.156 136.890  0.00  0.00    +0.000 A 
ATOM     50  C   UNL     1     113.037 123.895 136.734  0.00  0.00    +0.000 A 
ENDBRANCH  36  42
ENDBRANCH  32  33
ENDBRANCH   7  32
TORSDOF 10
ENDMDL
MODEL 6
REMARK VINA RESULT:     -11.1      6.049     10.763
REMARK  Name = 42607811
REMARK  10 active torsions:
REMARK  status: ('A' for Active; 'I' for Inactive)
REMARK    1  A    between atoms: O_1  and  C_17
REMARK    2  A    between atoms: O_1  and  C_19
REMARK    3  A    between atoms: O_7  and  C_22
REMARK    4  A    between atoms: O_7  and  C_27
REMARK    5  A    between atoms: O_9  and  C_25
REMARK    6  A    between atoms: O_9  and  C_28
REMARK    7  A    between atoms: C_16  and  C_25
REMARK    8  A    between atoms: C_24  and  C_26
REMARK    9  A    between atoms: C_28  and  C_35
REMARK   10  A    between atoms: C_31  and  C_32
REMARK                            x       y       z     vdW  Elec       q    Type
REMARK                         _______ _______ _______ _____ _____    ______ ____
ROOT
ATOM      1  O   UNL     1     110.240 127.640 140.777  0.00  0.00    +0.000 OA
ATOM      2  O   UNL     1     109.898 128.615 143.026  0.00  0.00    +0.000 OA
ATOM      3  O   UNL     1     108.774 127.588 142.393  0.00  0.00    +0.000 OA
ATOM      4  C   UNL     1     110.689 128.479 141.843  0.00  0.00    +0.000 C 
ATOM      5  C   UNL     1     110.012 128.290 142.276  0.00  0.00    +0.000 C 
ATOM      6  C   UNL     1     109.450 127.776 141.960  0.00  0.00    +0.000 C 
ATOM      7  C   UNL     1     110.802 128.154 141.093  0.00  0.00    +0.000 C 
ATOM      8  C   UNL     1     109.564 127.451 141.210  0.00  0.00    +0.000 C 
ENDROOT
BRANCH   8  10
ATOM      9  O   UNL     1     108.622 127.127 140.185  0.00  0.00    +0.000 OA
ATOM     10  C   UNL     1     109.002 126.937 140.894  0.00  0.00    +0.000 C 
ENDBRANCH   8  10
BRANCH   4  11
ATOM     11  O   UNL     1     111.251 128.993 142.159  0.00  0.00    +0.000 OA
BRANCH  11  17
ATOM     12  O   UNL     1     110.603 130.191 141.606  0.00  0.00    +0.000 OA
ATOM     13  O   UNL     1     111.182 131.940 142.209  0.00  0.00    +0.000 OA
ATOM     14  O   UNL     1     112.169 130.248 143.056  0.00  0.00    +0.000 OA
ATOM     15  C   UNL     1     111.286 131.125 142.274  0.00  0.00    +0.000 C 
ATOM     16  C   UNL     1     111.569 130.385 142.507  0.00  0.00    +0.000 C 
ATOM     17  C   UNL     1     111.147 129.809 142.095  0.00  0.00    +0.000 C 
ATOM     18  C   UNL     1     110.689 131.004 141.717  0.00  0.00    +0.000 C 
BRANCH  15  19
ATOM     19  C   UNL     1     111.821 131.491 142.783  0.00  0.00    +0.000 C 
BRANCH  19  20
ATOM     20  O   UNL     1     111.595 132.160 143.209  0.00  0.00    +0.000 OA
BRANCH  20  22
ATOM     21  O   UNL     1     112.941 132.357 143.643  0.00  0.00    +0.000 OA
ATOM     22  C   UNL     1     112.141 132.546 143.692  0.00  0.00    +0.000 C 
BRANCH  22  24
ATOM     23  N   UNL     1     111.475 134.277 144.736  0.00  0.00    +0.000 NA
ATOM     24  C   UNL     1     111.885 133.121 144.226  0.00  0.00    +0.000 A 
ATOM     25  C   UNL     1     111.764 133.013 145.030  0.00  0.00    +0.000 A 
ATOM     26  C   UNL     1     111.706 133.901 144.045  0.00  0.00    +0.000 A 
ATOM     27  C   UNL     1     111.510 133.731 145.347  0.00  0.00    +0.000 A 
ATOM     28  C   UNL     1     111.852 132.353 145.519  0.00  0.00    +0.000 A 
ATOM     29  C   UNL     1     111.343 133.790 146.152  0.00  0.00    +0.000 A 
ATOM     30  C   UNL     1     111.685 132.413 146.325  0.00  0.00    +0.000 A 
ATOM     31  C   UNL     1     111.431 133.130 146.641  0.00  0.00    +0.000 A 
ENDBRANCH  22  24
ENDBRANCH  20  22
ENDBRANCH  19  20
ENDBRANCH  15  19
ENDBRANCH  11  17
ENDBRANCH   4  11
BRANCH   7  32
ATOM     32  O   UNL     1     111.478 128.342 140.660  0.00  0.00    +0.000 OA
BRANCH  32  33
ATOM     33  C   UNL     1     111.800 127.792 140.137  0.00  0.00    +0.000 A 
ATOM     34  C   UNL     1     111.710 127.895 139.323  0.00  0.00    +0.000 A 
ATOM     35  C   UNL     1     112.212 127.139 140.427  0.00  0.00    +0.000 A 
ATOM     36  C   UNL     1     112.444 126.690 139.091  0.00  0.00    +0.000 A 
ATOM     37  C   UNL     1     112.032 127.344 138.800  0.00  0.00    +0.000 A 
ATOM     38  C   UNL     1     112.534 126.588 139.904  0.00  0.00    +0.000 A 
BRANCH  36  42
ATOM     39  O   UNL     1     112.270 125.633 138.145  0.00  0.00    +0.000 OA
ATOM     40  O   UNL     1     114.724 125.500 137.844  0.00  0.00    +0.000 OA
ATOM     41  O   UNL     1     111.897 123.480 136.221  0.00  0.00    +0.000 OA
ATOM     42  C   UNL     1     112.766 126.139 138.568  0.00  0.00    +0.000 C 
ATOM     43  C   UNL     1     113.583 126.095 138.467  0.00  0.00    +0.000 C 
ATOM     44  C   UNL     1     113.905 125.544 137.944  0.00  0.00    +0.000 C 
ATOM     45  C   UNL     1     112.592 125.082 137.622  0.00  0.00    +0.000 A 
ATOM     46  C   UNL     1     113.410 125.038 137.521  0.00  0.00    +0.000 A 
ATOM     47  C   UNL     1     112.065 124.561 137.188  0.00  0.00    +0.000 A 
ATOM     48  C   UNL     1     113.758 124.468 136.980  0.00  0.00    +0.000 A 
ATOM     49  C   UNL     1     112.395 123.984 136.641  0.00  0.00    +0.000 A 
ATOM     50  C   UNL     1     113.246 123.939 136.537  0.00  0.00    +0.000 A 
ENDBRANCH  36  42
ENDBRANCH  32  33
ENDBRANCH   7  32
TORSDOF 10
ENDMDL
MODEL 7
REMARK VINA RESULT:     -11.1      4.679      7.693
REMARK  Name = 42607811
REMARK  10 active torsions:
REMARK  status: ('A' for Active; 'I' for Inactive)
REMARK    1  A    between atoms: O_1  and  C_17
REMARK    2  A    between atoms: O_1  and  C_19
REMARK    3  A    between atoms: O_7  and  C_22
REMARK    4  A    between atoms: O_7  and  C_27
REMARK    5  A    between atoms: O_9  and  C_25
REMARK    6  A    between atoms: O_9  and  C_28
REMARK    7  A    between atoms: C_16  and  C_25
REMARK    8  A    between atoms: C_24  and  C_26
REMARK    9  A    between atoms: C_28  and  C_35
REMARK   10  A    between atoms: C_31  and  C_32
REMARK                            x       y       z     vdW  Elec       q    Type
REMARK                         _______ _______ _______ _____ _____    ______ ____
ROOT
ATOM      1  O   UNL     1     107.573 130.126 142.949  0.00  0.00    +0.000 OA
ATOM      2  O   UNL     1     106.538 128.252 141.707  0.00  0.00    +0.000 OA
ATOM      3  O   UNL     1     106.488 129.780 141.088  0.00  0.00    +0.000 OA
ATOM      4  C   UNL     1     107.252 128.737 142.846  0.00  0.00    +0.000 C 
ATOM      5  C   UNL     1     106.883 128.877 142.121  0.00  0.00    +0.000 C 
ATOM      6  C   UNL     1     106.858 129.640 141.811  0.00  0.00    +0.000 C 
ATOM      7  C   UNL     1     107.597 129.362 143.260  0.00  0.00    +0.000 C 
ATOM      8  C   UNL     1     107.203 130.265 142.225  0.00  0.00    +0.000 C 
ENDROOT
BRANCH   8  10
ATOM      9  O   UNL     1     106.902 131.653 142.380  0.00  0.00    +0.000 OA
ATOM     10  C   UNL     1     107.178 131.029 141.916  0.00  0.00    +0.000 C 
ENDBRANCH   8  10
BRANCH   4  11
ATOM     11  O   UNL     1     107.277 127.974 143.156  0.00  0.00    +0.000 OA
BRANCH  11  17
ATOM     12  O   UNL     1     105.937 128.085 143.750  0.00  0.00    +0.000 OA
ATOM     13  O   UNL     1     105.262 126.628 144.836  0.00  0.00    +0.000 OA
ATOM     14  O   UNL     1     107.215 126.394 144.007  0.00  0.00    +0.000 OA
ATOM     15  C   UNL     1     105.890 126.910 144.383  0.00  0.00    +0.000 C 
ATOM     16  C   UNL     1     106.619 126.966 144.000  0.00  0.00    +0.000 C 
ATOM     17  C   UNL     1     106.648 127.691 143.609  0.00  0.00    +0.000 C 
ATOM     18  C   UNL     1     105.469 127.603 144.228  0.00  0.00    +0.000 C 
BRANCH  15  19
ATOM     19  C   UNL     1     106.097 126.165 144.670  0.00  0.00    +0.000 C 
BRANCH  19  20
ATOM     20  O   UNL     1     105.879 125.941 145.433  0.00  0.00    +0.000 OA
BRANCH  20  22
ATOM     21  O   UNL     1     106.421 124.639 145.210  0.00  0.00    +0.000 OA
ATOM     22  C   UNL     1     106.069 125.189 145.713  0.00  0.00    +0.000 C 
BRANCH  22  24
ATOM     23  N   UNL     1     105.263 124.607 147.594  0.00  0.00    +0.000 NA
ATOM     24  C   UNL     1     105.906 124.987 146.496  0.00  0.00    +0.000 A 
ATOM     25  C   UNL     1     106.445 124.984 147.115  0.00  0.00    +0.000 A 
ATOM     26  C   UNL     1     105.177 124.754 146.792  0.00  0.00    +0.000 A 
ATOM     27  C   UNL     1     106.045 124.748 147.797  0.00  0.00    +0.000 A 
ATOM     28  C   UNL     1     107.249 125.166 147.150  0.00  0.00    +0.000 A 
ATOM     29  C   UNL     1     106.450 124.693 148.514  0.00  0.00    +0.000 A 
ATOM     30  C   UNL     1     107.654 125.111 147.866  0.00  0.00    +0.000 A 
ATOM     31  C   UNL     1     107.255 124.875 148.548  0.00  0.00    +0.000 A 
ENDBRANCH  22  24
ENDBRANCH  20  22
ENDBRANCH  19  20
ENDBRANCH  15  19
ENDBRANCH  11  17
ENDBRANCH   4  11
BRANCH   7  32
ATOM     32  O   UNL     1     107.967 129.223 143.984  0.00  0.00    +0.000 OA
BRANCH  32  33
ATOM     33  C   UNL     1     108.629 129.665 144.201  0.00  0.00    +0.000 A 
ATOM     34  C   UNL     1     109.358 129.520 143.841  0.00  0.00    +0.000 A 
ATOM     35  C   UNL     1     108.562 130.251 144.777  0.00  0.00    +0.000 A 
ATOM     36  C   UNL     1     109.953 130.549 144.635  0.00  0.00    +0.000 A 
ATOM     37  C   UNL     1     110.019 129.962 144.058  0.00  0.00    +0.000 A 
ATOM     38  C   UNL     1     109.224 130.693 144.994  0.00  0.00    +0.000 A 
BRANCH  36  42
ATOM     39  O   UNL     1     110.721 131.750 144.547  0.00  0.00    +0.000 OA
ATOM     40  O   UNL     1     112.386 130.800 146.114  0.00  0.00    +0.000 OA
ATOM     41  O   UNL     1     112.276 134.206 144.355  0.00  0.00    +0.000 OA
ATOM     42  C   UNL     1     110.615 130.991 144.852  0.00  0.00    +0.000 C 
ATOM     43  C   UNL     1     111.169 130.675 145.374  0.00  0.00    +0.000 C 
ATOM     44  C   UNL     1     111.830 131.117 145.591  0.00  0.00    +0.000 C 
ATOM     45  C   UNL     1     111.383 132.193 144.764  0.00  0.00    +0.000 A 
ATOM     46  C   UNL     1     111.938 131.876 145.286  0.00  0.00    +0.000 A 
ATOM     47  C   UNL     1     111.484 132.982 144.439  0.00  0.00    +0.000 A 
ATOM     48  C   UNL     1     112.632 132.326 145.520  0.00  0.00    +0.000 A 
ATOM     49  C   UNL     1     112.172 133.447 144.662  0.00  0.00    +0.000 A 
ATOM     50  C   UNL     1     112.749 133.117 145.205  0.00  0.00    +0.000 A 
ENDBRANCH  36  42
ENDBRANCH  32  33
ENDBRANCH   7  32
TORSDOF 10
ENDMDL
MODEL 8
REMARK VINA RESULT:     -10.9      7.441     12.108
REMARK  Name = 42607811
REMARK  10 active torsions:
REMARK  status: ('A' for Active; 'I' for Inactive)
REMARK    1  A    between atoms: O_1  and  C_17
REMARK    2  A    between atoms: O_1  and  C_19
REMARK    3  A    between atoms: O_7  and  C_22
REMARK    4  A    between atoms: O_7  and  C_27
REMARK    5  A    between atoms: O_9  and  C_25
REMARK    6  A    between atoms: O_9  and  C_28
REMARK    7  A    between atoms: C_16  and  C_25
REMARK    8  A    between atoms: C_24  and  C_26
REMARK    9  A    between atoms: C_28  and  C_35
REMARK   10  A    between atoms: C_31  and  C_32
REMARK                            x       y       z     vdW  Elec       q    Type
REMARK                         _______ _______ _______ _____ _____    ______ ____
ROOT
ATOM      1  O   UNL     1     110.425 129.815 139.847  0.00  0.00    +0.000 OA
ATOM      2  O   UNL     1     109.291 131.351 141.422  0.00  0.00    +0.000 OA
ATOM      3  O   UNL     1     108.402 130.320 140.491  0.00  0.00    +0.000 OA
ATOM      4  C   UNL     1     110.492 130.843 140.838  0.00  0.00    +0.000 C 
ATOM      5  C   UNL     1     109.669 130.839 140.897  0.00  0.00    +0.000 C 
ATOM      6  C   UNL     1     109.224 130.324 140.432  0.00  0.00    +0.000 C 
ATOM      7  C   UNL     1     110.870 130.331 140.313  0.00  0.00    +0.000 C 
ATOM      8  C   UNL     1     109.602 129.812 139.906  0.00  0.00    +0.000 C 
ENDROOT
BRANCH   8  10
ATOM      9  O   UNL     1     109.395 128.511 139.355  0.00  0.00    +0.000 OA
ATOM     10  C   UNL     1     109.158 129.297 139.440  0.00  0.00    +0.000 C 
ENDBRANCH   8  10
BRANCH   4  11
ATOM     11  O   UNL     1     110.937 131.358 141.304  0.00  0.00    +0.000 OA
BRANCH  11  17
ATOM     12  O   UNL     1     111.054 130.397 142.411  0.00  0.00    +0.000 OA
ATOM     13  O   UNL     1     111.789 130.992 144.103  0.00  0.00    +0.000 OA
ATOM     14  O   UNL     1     111.651 132.442 142.543  0.00  0.00    +0.000 OA
ATOM     15  C   UNL     1     111.585 131.204 143.333  0.00  0.00    +0.000 C 
ATOM     16  C   UNL     1     111.470 131.644 142.644  0.00  0.00    +0.000 C 
ATOM     17  C   UNL     1     111.142 131.146 142.074  0.00  0.00    +0.000 C 
ATOM     18  C   UNL     1     111.328 130.434 143.188  0.00  0.00    +0.000 C 
BRANCH  15  19
ATOM     19  C   UNL     1     111.892 131.871 143.708  0.00  0.00    +0.000 C 
BRANCH  19  20
ATOM     20  O   UNL     1     111.843 131.943 144.528  0.00  0.00    +0.000 OA
BRANCH  20  22
ATOM     21  O   UNL     1     112.879 132.925 144.569  0.00  0.00    +0.000 OA
ATOM     22  C   UNL     1     112.219 132.569 144.910  0.00  0.00    +0.000 C 
BRANCH  22  24
ATOM     23  N   UNL     1     111.196 133.458 146.552  0.00  0.00    +0.000 NA
ATOM     24  C   UNL     1     111.934 132.840 145.636  0.00  0.00    +0.000 A 
ATOM     25  C   UNL     1     112.253 132.670 146.372  0.00  0.00    +0.000 A 
ATOM     26  C   UNL     1     111.282 133.326 145.747  0.00  0.00    +0.000 A 
ATOM     27  C   UNL     1     111.795 133.054 146.941  0.00  0.00    +0.000 A 
ATOM     28  C   UNL     1     112.902 132.216 146.603  0.00  0.00    +0.000 A 
ATOM     29  C   UNL     1     111.985 132.984 147.741  0.00  0.00    +0.000 A 
ATOM     30  C   UNL     1     113.092 132.145 147.403  0.00  0.00    +0.000 A 
ATOM     31  C   UNL     1     112.634 132.529 147.971  0.00  0.00    +0.000 A 
ENDBRANCH  22  24
ENDBRANCH  20  22
ENDBRANCH  19  20
ENDBRANCH  15  19
ENDBRANCH  11  17
ENDBRANCH   4  11
BRANCH   7  32
ATOM     32  O   UNL     1     111.693 130.334 140.253  0.00  0.00    +0.000 OA
BRANCH  32  33
ATOM     33  C   UNL     1     112.054 130.194 139.525  0.00  0.00    +0.000 A 
ATOM     34  C   UNL     1     111.971 130.739 138.911  0.00  0.00    +0.000 A 
ATOM     35  C   UNL     1     112.499 129.509 139.411  0.00  0.00    +0.000 A 
ATOM     36  C   UNL     1     112.778 129.913 138.069  0.00  0.00    +0.000 A 
ATOM     37  C   UNL     1     112.332 130.599 138.183  0.00  0.00    +0.000 A 
ATOM     38  C   UNL     1     112.861 129.368 138.683  0.00  0.00    +0.000 A 
BRANCH  36  42
ATOM     39  O   UNL     1     113.739 130.273 137.075  0.00  0.00    +0.000 OA
ATOM     40  O   UNL     1     113.025 128.351 135.688  0.00  0.00    +0.000 OA
ATOM     41  O   UNL     1     115.705 131.021 135.061  0.00  0.00    +0.000 OA
ATOM     42  C   UNL     1     113.139 129.772 137.341  0.00  0.00    +0.000 C 
ATOM     43  C   UNL     1     112.901 129.133 136.879  0.00  0.00    +0.000 C 
ATOM     44  C   UNL     1     113.263 128.992 136.151  0.00  0.00    +0.000 C 
ATOM     45  C   UNL     1     114.101 130.133 136.347  0.00  0.00    +0.000 A 
ATOM     46  C   UNL     1     113.863 129.492 135.884  0.00  0.00    +0.000 A 
ATOM     47  C   UNL     1     114.725 130.661 136.082  0.00  0.00    +0.000 A 
ATOM     48  C   UNL     1     114.232 129.335 135.125  0.00  0.00    +0.000 A 
ATOM     49  C   UNL     1     115.105 130.520 135.323  0.00  0.00    +0.000 A 
ATOM     50  C   UNL     1     114.857 129.853 134.843  0.00  0.00    +0.000 A 
ENDBRANCH  36  42
ENDBRANCH  32  33
ENDBRANCH   7  32
TORSDOF 10
ENDMDL
MODEL 9
REMARK VINA RESULT:     -10.9      4.961      8.001
REMARK  Name = 42607811
REMARK  10 active torsions:
REMARK  status: ('A' for Active; 'I' for Inactive)
REMARK    1  A    between atoms: O_1  and  C_17
REMARK    2  A    between atoms: O_1  and  C_19
REMARK    3  A    between atoms: O_7  and  C_22
REMARK    4  A    between atoms: O_7  and  C_27
REMARK    5  A    between atoms: O_9  and  C_25
REMARK    6  A    between atoms: O_9  and  C_28
REMARK    7  A    between atoms: C_16  and  C_25
REMARK    8  A    between atoms: C_24  and  C_26
REMARK    9  A    between atoms: C_28  and  C_35
REMARK   10  A    between atoms: C_31  and  C_32
REMARK                            x       y       z     vdW  Elec       q    Type
REMARK                         _______ _______ _______ _____ _____    ______ ____
ROOT
ATOM      1  O   UNL     1     111.502 128.463 141.314  0.00  0.00    +0.000 OA
ATOM      2  O   UNL     1     110.513 128.682 143.572  0.00  0.00    +0.000 OA
ATOM      3  O   UNL     1     112.042 129.231 143.284  0.00  0.00    +0.000 OA
ATOM      4  C   UNL     1     110.408 128.261 142.211  0.00  0.00    +0.000 C 
ATOM      5  C   UNL     1     110.843 128.609 142.820  0.00  0.00    +0.000 C 
ATOM      6  C   UNL     1     111.607 128.884 142.676  0.00  0.00    +0.000 C 
ATOM      7  C   UNL     1     110.737 128.188 141.459  0.00  0.00    +0.000 C 
ATOM      8  C   UNL     1     111.937 128.810 141.923  0.00  0.00    +0.000 C 
ENDROOT
BRANCH   8  10
ATOM      9  O   UNL     1     112.820 129.721 141.266  0.00  0.00    +0.000 OA
ATOM     10  C   UNL     1     112.701 129.085 141.779  0.00  0.00    +0.000 C 
ENDBRANCH   8  10
BRANCH   4  11
ATOM     11  O   UNL     1     109.644 127.987 142.355  0.00  0.00    +0.000 OA
BRANCH  11  17
ATOM     12  O   UNL     1     109.044 129.313 142.147  0.00  0.00    +0.000 OA
ATOM     13  O   UNL     1     107.124 129.519 142.317  0.00  0.00    +0.000 OA
ATOM     14  O   UNL     1     107.921 127.564 142.633  0.00  0.00    +0.000 OA
ATOM     15  C   UNL     1     107.763 128.999 142.354  0.00  0.00    +0.000 C 
ATOM     16  C   UNL     1     108.213 128.313 142.446  0.00  0.00    +0.000 C 
ATOM     17  C   UNL     1     109.004 128.507 142.318  0.00  0.00    +0.000 C 
ATOM     18  C   UNL     1     108.277 129.617 142.169  0.00  0.00    +0.000 C 
BRANCH  15  19
ATOM     19  C   UNL     1     107.077 128.572 142.518  0.00  0.00    +0.000 C 
BRANCH  19  20
ATOM     20  O   UNL     1     106.349 128.834 142.233  0.00  0.00    +0.000 OA
BRANCH  20  22
ATOM     21  O   UNL     1     105.615 128.056 143.179  0.00  0.00    +0.000 OA
ATOM     22  C   UNL     1     105.655 128.448 142.456  0.00  0.00    +0.000 C 
BRANCH  22  24
ATOM     23  N   UNL     1     104.150 128.140 140.983  0.00  0.00    +0.000 NA
ATOM     24  C   UNL     1     105.000 128.455 141.954  0.00  0.00    +0.000 A 
ATOM     25  C   UNL     1     104.372 128.981 141.988  0.00  0.00    +0.000 A 
ATOM     26  C   UNL     1     104.863 127.936 141.333  0.00  0.00    +0.000 A 
ATOM     27  C   UNL     1     103.844 128.786 141.385  0.00  0.00    +0.000 A 
ATOM     28  C   UNL     1     104.209 129.616 142.490  0.00  0.00    +0.000 A 
ATOM     29  C   UNL     1     103.153 129.225 141.283  0.00  0.00    +0.000 A 
ATOM     30  C   UNL     1     103.518 130.055 142.389  0.00  0.00    +0.000 A 
ATOM     31  C   UNL     1     102.991 129.860 141.786  0.00  0.00    +0.000 A 
ENDBRANCH  22  24
ENDBRANCH  20  22
ENDBRANCH  19  20
ENDBRANCH  15  19
ENDBRANCH  11  17
ENDBRANCH   4  11
BRANCH   7  32
ATOM     32  O   UNL     1     110.303 127.841 140.849  0.00  0.00    +0.000 OA
BRANCH  32  33
ATOM     33  C   UNL     1     110.682 127.370 140.288  0.00  0.00    +0.000 A 
ATOM     34  C   UNL     1     110.910 126.601 140.480  0.00  0.00    +0.000 A 
ATOM     35  C   UNL     1     110.834 127.670 139.535  0.00  0.00    +0.000 A 
ATOM     36  C   UNL     1     111.442 126.430 139.164  0.00  0.00    +0.000 A 
ATOM     37  C   UNL     1     111.289 126.131 139.919  0.00  0.00    +0.000 A 
ATOM     38  C   UNL     1     111.214 127.200 138.973  0.00  0.00    +0.000 A 
BRANCH  36  42
ATOM     39  O   UNL     1     112.645 125.943 138.569  0.00  0.00    +0.000 OA
ATOM     40  O   UNL     1     111.311 124.586 136.985  0.00  0.00    +0.000 OA
ATOM     41  O   UNL     1     115.109 124.959 137.367  0.00  0.00    +0.000 OA
ATOM     42  C   UNL     1     111.821 125.960 138.602  0.00  0.00    +0.000 C 
ATOM     43  C   UNL     1     111.377 125.508 138.075  0.00  0.00    +0.000 C 
ATOM     44  C   UNL     1     111.756 125.038 137.513  0.00  0.00    +0.000 C 
ATOM     45  C   UNL     1     113.025 125.473 138.007  0.00  0.00    +0.000 A 
ATOM     46  C   UNL     1     112.580 125.020 137.479  0.00  0.00    +0.000 A 
ATOM     47  C   UNL     1     113.884 125.463 137.982  0.00  0.00    +0.000 A 
ATOM     48  C   UNL     1     112.964 124.527 136.889  0.00  0.00    +0.000 A 
ATOM     49  C   UNL     1     114.285 124.974 137.398  0.00  0.00    +0.000 A 
ATOM     50  C   UNL     1     113.822 124.504 136.849  0.00  0.00    +0.000 A 
ENDBRANCH  36  42
ENDBRANCH  32  33
ENDBRANCH   7  32
TORSDOF 10
ENDMDL
MODEL 10
REMARK VINA RESULT:     -10.8      6.741      7.984
REMARK  Name = 42607811
REMARK  10 active torsions:
REMARK  status: ('A' for Active; 'I' for Inactive)
REMARK    1  A    between atoms: O_1  and  C_17
REMARK    2  A    between atoms: O_1  and  C_19
REMARK    3  A    between atoms: O_7  and  C_22
REMARK    4  A    between atoms: O_7  and  C_27
REMARK    5  A    between atoms: O_9  and  C_25
REMARK    6  A    between atoms: O_9  and  C_28
REMARK    7  A    between atoms: C_16  and  C_25
REMARK    8  A    between atoms: C_24  and  C_26
REMARK    9  A    between atoms: C_28  and  C_35
REMARK   10  A    between atoms: C_31  and  C_32
REMARK                            x       y       z     vdW  Elec       q    Type
REMARK                         _______ _______ _______ _____ _____    ______ ____
ROOT
ATOM      1  O   UNL     1     113.530 130.113 141.261  0.00  0.00    +0.000 OA
ATOM      2  O   UNL     1     113.555 129.772 138.810  0.00  0.00    +0.000 OA
ATOM      3  O   UNL     1     114.746 130.655 139.533  0.00  0.00    +0.000 OA
ATOM      4  C   UNL     1     112.942 129.557 140.083  0.00  0.00    +0.000 C 
ATOM      5  C   UNL     1     113.547 129.885 139.627  0.00  0.00    +0.000 C 
ATOM      6  C   UNL     1     114.142 130.327 139.988  0.00  0.00    +0.000 C 
ATOM      7  C   UNL     1     112.933 129.671 140.900  0.00  0.00    +0.000 C 
ATOM      8  C   UNL     1     114.134 130.440 140.805  0.00  0.00    +0.000 C 
ENDROOT
BRANCH   8  10
ATOM      9  O   UNL     1     114.543 131.591 141.547  0.00  0.00    +0.000 OA
ATOM     10  C   UNL     1     114.729 130.882 141.167  0.00  0.00    +0.000 C 
ENDBRANCH   8  10
BRANCH   4  11
ATOM     11  O   UNL     1     112.346 129.116 139.722  0.00  0.00    +0.000 OA
BRANCH  11  17
ATOM     12  O   UNL     1     113.151 127.885 139.721  0.00  0.00    +0.000 OA
ATOM     13  O   UNL     1     112.405 126.270 138.951  0.00  0.00    +0.000 OA
ATOM     14  O   UNL     1     111.178 128.016 138.916  0.00  0.00    +0.000 OA
ATOM     15  C   UNL     1     112.282 127.067 139.121  0.00  0.00    +0.000 C 
ATOM     16  C   UNL     1     111.933 127.813 139.181  0.00  0.00    +0.000 C 
ATOM     17  C   UNL     1     112.469 128.318 139.551  0.00  0.00    +0.000 C 
ATOM     18  C   UNL     1     113.035 127.113 139.455  0.00  0.00    +0.000 C 
BRANCH  15  19
ATOM     19  C   UNL     1     111.604 126.778 138.751  0.00  0.00    +0.000 C 
BRANCH  19  20
ATOM     20  O   UNL     1     111.670 126.237 138.133  0.00  0.00    +0.000 OA
BRANCH  20  22
ATOM     21  O   UNL     1     110.308 125.840 138.292  0.00  0.00    +0.000 OA
ATOM     22  C   UNL     1     110.998 125.858 137.842  0.00  0.00    +0.000 C 
BRANCH  22  24
ATOM     23  N   UNL     1     111.308 124.662 136.109  0.00  0.00    +0.000 NA
ATOM     24  C   UNL     1     111.016 125.497 137.100  0.00  0.00    +0.000 A 
ATOM     25  C   UNL     1     110.603 125.741 136.435  0.00  0.00    +0.000 A 
ATOM     26  C   UNL     1     111.451 124.831 136.899  0.00  0.00    +0.000 A 
ATOM     27  C   UNL     1     110.784 125.222 135.820  0.00  0.00    +0.000 A 
ATOM     28  C   UNL     1     110.083 126.370 136.306  0.00  0.00    +0.000 A 
ATOM     29  C   UNL     1     110.446 125.331 135.075  0.00  0.00    +0.000 A 
ATOM     30  C   UNL     1     109.745 126.478 135.562  0.00  0.00    +0.000 A 
ATOM     31  C   UNL     1     109.926 125.960 134.947  0.00  0.00    +0.000 A 
ENDBRANCH  22  24
ENDBRANCH  20  22
ENDBRANCH  19  20
ENDBRANCH  15  19
ENDBRANCH  11  17
ENDBRANCH   4  11
BRANCH   7  32
ATOM     32  O   UNL     1     112.329 129.343 141.356  0.00  0.00    +0.000 OA
BRANCH  32  33
ATOM     33  C   UNL     1     111.996 129.777 141.973  0.00  0.00    +0.000 A 
ATOM     34  C   UNL     1     111.475 130.395 141.808  0.00  0.00    +0.000 A 
ATOM     35  C   UNL     1     112.183 129.593 142.755  0.00  0.00    +0.000 A 
ATOM     36  C   UNL     1     111.329 130.645 143.208  0.00  0.00    +0.000 A 
ATOM     37  C   UNL     1     111.142 130.829 142.425  0.00  0.00    +0.000 A 
ATOM     38  C   UNL     1     111.850 130.027 143.372  0.00  0.00    +0.000 A 
BRANCH  36  42
ATOM     39  O   UNL     1     111.358 131.775 144.082  0.00  0.00    +0.000 OA
ATOM     40  O   UNL     1     109.273 130.990 145.163  0.00  0.00    +0.000 OA
ATOM     41  O   UNL     1     111.431 134.084 145.855  0.00  0.00    +0.000 OA
ATOM     42  C   UNL     1     110.996 131.079 143.825  0.00  0.00    +0.000 C 
ATOM     43  C   UNL     1     110.302 130.818 144.185  0.00  0.00    +0.000 C 
ATOM     44  C   UNL     1     109.968 131.252 144.802  0.00  0.00    +0.000 C 
ATOM     45  C   UNL     1     111.024 132.209 144.699  0.00  0.00    +0.000 A 
ATOM     46  C   UNL     1     110.329 131.948 145.059  0.00  0.00    +0.000 A 
ATOM     47  C   UNL     1     111.410 132.932 144.957  0.00  0.00    +0.000 A 
ATOM     48  C   UNL     1     109.972 132.391 145.703  0.00  0.00    +0.000 A 
ATOM     49  C   UNL     1     111.067 133.389 145.600  0.00  0.00    +0.000 A 
ATOM     50  C   UNL     1     110.344 133.116 145.975  0.00  0.00    +0.000 A 
ENDBRANCH  36  42
ENDBRANCH  32  33
ENDBRANCH   7  32
TORSDOF 10
ENDMDL
