MODEL 1
REMARK VINA RESULT:      -7.9      0.000      0.000
REMARK  Name = 
REMARK  5 active torsions:
REMARK  status: ('A' for Active; 'I' for Inactive)
REMARK    1  A    between atoms: C_3  and  O_5
REMARK    2  A    between atoms: C_6  and  C_11
REMARK    3  A    between atoms: C_8  and  O_13
REMARK    4  A    between atoms: C_12  and  O_17
REMARK    5  A    between atoms: C_18  and  O_24
REMARK                            x       y       z     vdW  Elec       q    Type
REMARK                         _______ _______ _______ _____ _____    ______ ____
ROOT
ATOM      1  O   UNL     1     110.903 124.732 135.795  0.00  0.00    +0.000 OA
ATOM      2  C   UNL     1     111.439 125.334 135.974  0.00  0.00    +0.000 A 
ATOM      3  C   UNL     1     112.135 125.158 136.378  0.00  0.00    +0.000 A 
ATOM      4  C   UNL     1     111.277 126.111 135.748  0.00  0.00    +0.000 A 
ATOM      5  C   UNL     1     112.672 125.760 136.558  0.00  0.00    +0.000 A 
ATOM      6  C   UNL     1     111.813 126.712 135.927  0.00  0.00    +0.000 A 
ATOM      7  C   UNL     1     110.581 126.286 135.343  0.00  0.00    +0.000 A 
ATOM      8  O   UNL     1     112.510 126.536 136.332  0.00  0.00    +0.000 OA
ATOM      9  C   UNL     1     111.652 127.489 135.701  0.00  0.00    +0.000 A 
ATOM     10  C   UNL     1     110.419 127.063 135.117  0.00  0.00    +0.000 A 
ATOM     11  C   UNL     1     110.955 127.665 135.296  0.00  0.00    +0.000 A 
ENDROOT
BRANCH   5  12
ATOM     12  C   UNL     1     113.368 125.584 136.962  0.00  0.00    +0.000 A 
ATOM     13  C   UNL     1     113.429 125.745 137.769  0.00  0.00    +0.000 A 
ATOM     14  C   UNL     1     114.004 125.246 136.560  0.00  0.00    +0.000 A 
ATOM     15  O   UNL     1     112.792 126.084 138.172  0.00  0.00    +0.000 OA
ATOM     16  C   UNL     1     114.126 125.570 138.174  0.00  0.00    +0.000 A 
ATOM     17  C   UNL     1     114.702 125.070 136.965  0.00  0.00    +0.000 A 
ATOM     18  C   UNL     1     114.763 125.232 137.772  0.00  0.00    +0.000 A 
ENDBRANCH   5  12
BRANCH   3  19
ATOM     19  O   UNL     1     112.296 124.382 136.604  0.00  0.00    +0.000 OA
ATOM     20  C   UNL     1     111.827 123.764 136.322  0.00  0.00    +0.000 C 
ENDBRANCH   3  19
BRANCH   7  21
ATOM     21  O   UNL     1     110.045 125.685 135.164  0.00  0.00    +0.000 OA
ATOM     22  C   UNL     1     109.369 125.852 134.722  0.00  0.00    +0.000 C 
ENDBRANCH   7  21
BRANCH   9  23
ATOM     23  O   UNL     1     112.188 128.090 135.880  0.00  0.00    +0.000 OA
ATOM     24  C   UNL     1     112.606 128.465 135.275  0.00  0.00    +0.000 C 
ENDBRANCH   9  23
BRANCH  11  25
ATOM     25  O   UNL     1     110.794 128.441 135.070  0.00  0.00    +0.000 OA
ATOM     26  C   UNL     1     110.015 128.712 135.047  0.00  0.00    +0.000 C 
ENDBRANCH  11  25
TORSDOF 5
ENDMDL
MODEL 2
REMARK VINA RESULT:      -7.7     12.917     13.647
REMARK  Name = 
REMARK  5 active torsions:
REMARK  status: ('A' for Active; 'I' for Inactive)
REMARK    1  A    between atoms: C_3  and  O_5
REMARK    2  A    between atoms: C_6  and  C_11
REMARK    3  A    between atoms: C_8  and  O_13
REMARK    4  A    between atoms: C_12  and  O_17
REMARK    5  A    between atoms: C_18  and  O_24
REMARK                            x       y       z     vdW  Elec       q    Type
REMARK                         _______ _______ _______ _____ _____    ______ ____
ROOT
ATOM      1  O   UNL     1     103.602 125.384 148.633  0.00  0.00    +0.000 OA
ATOM      2  C   UNL     1     104.153 125.036 148.126  0.00  0.00    +0.000 A 
ATOM      3  C   UNL     1     104.959 125.120 148.275  0.00  0.00    +0.000 A 
ATOM      4  C   UNL     1     103.896 124.605 147.471  0.00  0.00    +0.000 A 
ATOM      5  C   UNL     1     105.511 124.772 147.767  0.00  0.00    +0.000 A 
ATOM      6  C   UNL     1     104.447 124.258 146.964  0.00  0.00    +0.000 A 
ATOM      7  C   UNL     1     103.089 124.522 147.323  0.00  0.00    +0.000 A 
ATOM      8  O   UNL     1     105.254 124.342 147.113  0.00  0.00    +0.000 OA
ATOM      9  C   UNL     1     104.191 123.827 146.309  0.00  0.00    +0.000 A 
ATOM     10  C   UNL     1     102.832 124.091 146.668  0.00  0.00    +0.000 A 
ATOM     11  C   UNL     1     103.383 123.743 146.160  0.00  0.00    +0.000 A 
ENDROOT
BRANCH   5  12
ATOM     12  C   UNL     1     106.317 124.856 147.916  0.00  0.00    +0.000 A 
ATOM     13  C   UNL     1     106.762 125.404 147.489  0.00  0.00    +0.000 A 
ATOM     14  C   UNL     1     106.681 124.391 148.492  0.00  0.00    +0.000 A 
ATOM     15  O   UNL     1     106.398 125.870 146.912  0.00  0.00    +0.000 OA
ATOM     16  C   UNL     1     107.569 125.489 147.637  0.00  0.00    +0.000 A 
ATOM     17  C   UNL     1     107.489 124.474 148.641  0.00  0.00    +0.000 A 
ATOM     18  C   UNL     1     107.933 125.023 148.213  0.00  0.00    +0.000 A 
ENDBRANCH   5  12
BRANCH   3  19
ATOM     19  O   UNL     1     105.216 125.550 148.929  0.00  0.00    +0.000 OA
ATOM     20  C   UNL     1     104.682 125.752 149.525  0.00  0.00    +0.000 C 
ENDBRANCH   3  19
BRANCH   7  21
ATOM     21  O   UNL     1     102.539 124.869 147.829  0.00  0.00    +0.000 OA
ATOM     22  C   UNL     1     101.732 124.815 147.663  0.00  0.00    +0.000 C 
ENDBRANCH   7  21
BRANCH   9  23
ATOM     23  O   UNL     1     104.741 123.480 145.803  0.00  0.00    +0.000 OA
ATOM     24  C   UNL     1     104.792 123.726 145.016  0.00  0.00    +0.000 C 
ENDBRANCH   9  23
BRANCH  11  25
ATOM     25  O   UNL     1     103.127 123.312 145.506  0.00  0.00    +0.000 OA
ATOM     26  C   UNL     1     102.466 122.822 145.567  0.00  0.00    +0.000 C 
ENDBRANCH  11  25
TORSDOF 5
ENDMDL
MODEL 3
REMARK VINA RESULT:      -7.5     12.713     13.383
REMARK  Name = 
REMARK  5 active torsions:
REMARK  status: ('A' for Active; 'I' for Inactive)
REMARK    1  A    between atoms: C_3  and  O_5
REMARK    2  A    between atoms: C_6  and  C_11
REMARK    3  A    between atoms: C_8  and  O_13
REMARK    4  A    between atoms: C_12  and  O_17
REMARK    5  A    between atoms: C_18  and  O_24
REMARK                            x       y       z     vdW  Elec       q    Type
REMARK                         _______ _______ _______ _____ _____    ______ ____
ROOT
ATOM      1  O   UNL     1     104.410 123.777 145.121  0.00  0.00    +0.000 OA
ATOM      2  C   UNL     1     104.494 124.119 145.867  0.00  0.00    +0.000 A 
ATOM      3  C   UNL     1     105.180 124.538 146.053  0.00  0.00    +0.000 A 
ATOM      4  C   UNL     1     103.892 124.044 146.426  0.00  0.00    +0.000 A 
ATOM      5  C   UNL     1     105.264 124.881 146.800  0.00  0.00    +0.000 A 
ATOM      6  C   UNL     1     103.976 124.387 147.172  0.00  0.00    +0.000 A 
ATOM      7  C   UNL     1     103.206 123.625 146.240  0.00  0.00    +0.000 A 
ATOM      8  O   UNL     1     104.663 124.805 147.358  0.00  0.00    +0.000 OA
ATOM      9  C   UNL     1     103.374 124.311 147.731  0.00  0.00    +0.000 A 
ATOM     10  C   UNL     1     102.604 123.550 146.799  0.00  0.00    +0.000 A 
ATOM     11  C   UNL     1     102.688 123.893 147.545  0.00  0.00    +0.000 A 
ENDROOT
BRANCH   5  12
ATOM     12  C   UNL     1     105.950 125.299 146.986  0.00  0.00    +0.000 A 
ATOM     13  C   UNL     1     106.539 124.945 147.442  0.00  0.00    +0.000 A 
ATOM     14  C   UNL     1     106.047 126.072 146.715  0.00  0.00    +0.000 A 
ATOM     15  O   UNL     1     106.441 124.170 147.713  0.00  0.00    +0.000 OA
ATOM     16  C   UNL     1     107.225 125.363 147.629  0.00  0.00    +0.000 A 
ATOM     17  C   UNL     1     106.734 126.491 146.902  0.00  0.00    +0.000 A 
ATOM     18  C   UNL     1     107.323 126.136 147.359  0.00  0.00    +0.000 A 
ENDBRANCH   5  12
BRANCH   3  19
ATOM     19  O   UNL     1     105.781 124.613 145.494  0.00  0.00    +0.000 OA
ATOM     20  C   UNL     1     105.603 124.577 144.690  0.00  0.00    +0.000 C 
ENDBRANCH   3  19
BRANCH   7  21
ATOM     21  O   UNL     1     103.122 123.283 145.494  0.00  0.00    +0.000 OA
ATOM     22  C   UNL     1     102.455 122.828 145.321  0.00  0.00    +0.000 C 
ENDBRANCH   7  21
BRANCH   9  23
ATOM     23  O   UNL     1     103.459 124.654 148.477  0.00  0.00    +0.000 OA
ATOM     24  C   UNL     1     103.017 125.323 148.676  0.00  0.00    +0.000 C 
ENDBRANCH   9  23
BRANCH  11  25
ATOM     25  O   UNL     1     102.086 123.817 148.104  0.00  0.00    +0.000 OA
ATOM     26  C   UNL     1     101.652 123.118 148.151  0.00  0.00    +0.000 C 
ENDBRANCH  11  25
TORSDOF 5
ENDMDL
MODEL 4
REMARK VINA RESULT:      -7.5      2.431      3.955
REMARK  Name = 
REMARK  5 active torsions:
REMARK  status: ('A' for Active; 'I' for Inactive)
REMARK    1  A    between atoms: C_3  and  O_5
REMARK    2  A    between atoms: C_6  and  C_11
REMARK    3  A    between atoms: C_8  and  O_13
REMARK    4  A    between atoms: C_12  and  O_17
REMARK    5  A    between atoms: C_18  and  O_24
REMARK                            x       y       z     vdW  Elec       q    Type
REMARK                         _______ _______ _______ _____ _____    ______ ____
ROOT
ATOM      1  O   UNL     1     111.158 125.573 138.818  0.00  0.00    +0.000 OA
ATOM      2  C   UNL     1     111.935 125.851 138.839  0.00  0.00    +0.000 A 
ATOM      3  C   UNL     1     112.454 125.673 138.225  0.00  0.00    +0.000 A 
ATOM      4  C   UNL     1     112.190 126.309 139.477  0.00  0.00    +0.000 A 
ATOM      5  C   UNL     1     113.231 125.952 138.246  0.00  0.00    +0.000 A 
ATOM      6  C   UNL     1     112.967 126.588 139.498  0.00  0.00    +0.000 A 
ATOM      7  C   UNL     1     111.671 126.488 140.091  0.00  0.00    +0.000 A 
ATOM      8  O   UNL     1     113.487 126.409 138.883  0.00  0.00    +0.000 OA
ATOM      9  C   UNL     1     113.223 127.046 140.134  0.00  0.00    +0.000 A 
ATOM     10  C   UNL     1     111.927 126.946 140.728  0.00  0.00    +0.000 A 
ATOM     11  C   UNL     1     112.704 127.225 140.750  0.00  0.00    +0.000 A 
ENDROOT
BRANCH   5  12
ATOM     12  C   UNL     1     113.750 125.773 137.632  0.00  0.00    +0.000 A 
ATOM     13  C   UNL     1     113.883 126.321 137.029  0.00  0.00    +0.000 A 
ATOM     14  C   UNL     1     114.138 125.045 137.618  0.00  0.00    +0.000 A 
ATOM     15  O   UNL     1     113.494 127.050 137.043  0.00  0.00    +0.000 OA
ATOM     16  C   UNL     1     114.402 126.142 136.414  0.00  0.00    +0.000 A 
ATOM     17  C   UNL     1     114.658 124.865 137.003  0.00  0.00    +0.000 A 
ATOM     18  C   UNL     1     114.790 125.414 136.401  0.00  0.00    +0.000 A 
ENDBRANCH   5  12
BRANCH   3  19
ATOM     19  O   UNL     1     112.198 125.215 137.589  0.00  0.00    +0.000 OA
ATOM     20  C   UNL     1     111.535 124.731 137.669  0.00  0.00    +0.000 C 
ENDBRANCH   3  19
BRANCH   7  21
ATOM     21  O   UNL     1     110.895 126.210 140.070  0.00  0.00    +0.000 OA
ATOM     22  C   UNL     1     110.377 126.380 140.689  0.00  0.00    +0.000 C 
ENDBRANCH   7  21
BRANCH   9  23
ATOM     23  O   UNL     1     114.000 127.325 140.156  0.00  0.00    +0.000 OA
ATOM     24  C   UNL     1     114.525 127.040 140.726  0.00  0.00    +0.000 C 
ENDBRANCH   9  23
BRANCH  11  25
ATOM     25  O   UNL     1     112.960 127.683 141.386  0.00  0.00    +0.000 OA
ATOM     26  C   UNL     1     112.423 128.156 141.797  0.00  0.00    +0.000 C 
ENDBRANCH  11  25
TORSDOF 5
ENDMDL
MODEL 5
REMARK VINA RESULT:      -7.2     13.438     14.334
REMARK  Name = 
REMARK  5 active torsions:
REMARK  status: ('A' for Active; 'I' for Inactive)
REMARK    1  A    between atoms: C_3  and  O_5
REMARK    2  A    between atoms: C_6  and  C_11
REMARK    3  A    between atoms: C_8  and  O_13
REMARK    4  A    between atoms: C_12  and  O_17
REMARK    5  A    between atoms: C_18  and  O_24
REMARK                            x       y       z     vdW  Elec       q    Type
REMARK                         _______ _______ _______ _____ _____    ______ ____
ROOT
ATOM      1  O   UNL     1     104.965 123.753 145.999  0.00  0.00    +0.000 OA
ATOM      2  C   UNL     1     104.338 124.015 146.467  0.00  0.00    +0.000 A 
ATOM      3  C   UNL     1     103.588 123.684 146.374  0.00  0.00    +0.000 A 
ATOM      4  C   UNL     1     104.462 124.607 147.028  0.00  0.00    +0.000 A 
ATOM      5  C   UNL     1     102.961 123.946 146.843  0.00  0.00    +0.000 A 
ATOM      6  C   UNL     1     103.834 124.869 147.496  0.00  0.00    +0.000 A 
ATOM      7  C   UNL     1     105.211 124.938 147.120  0.00  0.00    +0.000 A 
ATOM      8  O   UNL     1     103.084 124.538 147.403  0.00  0.00    +0.000 OA
ATOM      9  C   UNL     1     103.957 125.462 148.056  0.00  0.00    +0.000 A 
ATOM     10  C   UNL     1     105.335 125.530 147.681  0.00  0.00    +0.000 A 
ATOM     11  C   UNL     1     104.707 125.793 148.150  0.00  0.00    +0.000 A 
ENDROOT
BRANCH   5  12
ATOM     12  C   UNL     1     102.211 123.616 146.750  0.00  0.00    +0.000 A 
ATOM     13  C   UNL     1     101.929 123.070 147.301  0.00  0.00    +0.000 A 
ATOM     14  C   UNL     1     101.743 123.831 146.106  0.00  0.00    +0.000 A 
ATOM     15  O   UNL     1     102.398 122.855 147.945  0.00  0.00    +0.000 OA
ATOM     16  C   UNL     1     101.179 122.739 147.208  0.00  0.00    +0.000 A 
ATOM     17  C   UNL     1     100.992 123.500 146.012  0.00  0.00    +0.000 A 
ATOM     18  C   UNL     1     100.710 122.954 146.564  0.00  0.00    +0.000 A 
ENDBRANCH   5  12
BRANCH   3  19
ATOM     19  O   UNL     1     103.465 123.092 145.814  0.00  0.00    +0.000 OA
ATOM     20  C   UNL     1     104.042 122.935 145.246  0.00  0.00    +0.000 C 
ENDBRANCH   3  19
BRANCH   7  21
ATOM     21  O   UNL     1     105.838 124.676 146.652  0.00  0.00    +0.000 OA
ATOM     22  C   UNL     1     106.580 125.030 146.720  0.00  0.00    +0.000 C 
ENDBRANCH   7  21
BRANCH   9  23
ATOM     23  O   UNL     1     103.330 125.723 148.524  0.00  0.00    +0.000 OA
ATOM     24  C   UNL     1     103.013 126.476 148.406  0.00  0.00    +0.000 C 
ENDBRANCH   9  23
BRANCH  11  25
ATOM     25  O   UNL     1     104.831 126.385 148.710  0.00  0.00    +0.000 OA
ATOM     26  C   UNL     1     105.569 126.465 149.071  0.00  0.00    +0.000 C 
ENDBRANCH  11  25
TORSDOF 5
ENDMDL
MODEL 6
REMARK VINA RESULT:      -7.2      0.958      2.333
REMARK  Name = 
REMARK  5 active torsions:
REMARK  status: ('A' for Active; 'I' for Inactive)
REMARK    1  A    between atoms: C_3  and  O_5
REMARK    2  A    between atoms: C_6  and  C_11
REMARK    3  A    between atoms: C_8  and  O_13
REMARK    4  A    between atoms: C_12  and  O_17
REMARK    5  A    between atoms: C_18  and  O_24
REMARK                            x       y       z     vdW  Elec       q    Type
REMARK                         _______ _______ _______ _____ _____    ______ ____
ROOT
ATOM      1  O   UNL     1     112.749 128.638 135.784  0.00  0.00    +0.000 OA
ATOM      2  C   UNL     1     112.559 127.861 135.985  0.00  0.00    +0.000 A 
ATOM      3  C   UNL     1     113.138 127.362 136.295  0.00  0.00    +0.000 A 
ATOM      4  C   UNL     1     111.789 127.583 135.877  0.00  0.00    +0.000 A 
ATOM      5  C   UNL     1     112.948 126.584 136.496  0.00  0.00    +0.000 A 
ATOM      6  C   UNL     1     111.599 126.805 136.078  0.00  0.00    +0.000 A 
ATOM      7  C   UNL     1     111.210 128.082 135.567  0.00  0.00    +0.000 A 
ATOM      8  O   UNL     1     112.179 126.306 136.388  0.00  0.00    +0.000 OA
ATOM      9  C   UNL     1     110.831 126.527 135.970  0.00  0.00    +0.000 A 
ATOM     10  C   UNL     1     110.441 127.804 135.459  0.00  0.00    +0.000 A 
ATOM     11  C   UNL     1     110.251 127.026 135.660  0.00  0.00    +0.000 A 
ENDROOT
BRANCH   5  12
ATOM     12  C   UNL     1     113.527 126.085 136.805  0.00  0.00    +0.000 A 
ATOM     13  C   UNL     1     113.573 125.961 137.620  0.00  0.00    +0.000 A 
ATOM     14  C   UNL     1     114.060 125.710 136.300  0.00  0.00    +0.000 A 
ATOM     15  O   UNL     1     113.039 126.336 138.125  0.00  0.00    +0.000 OA
ATOM     16  C   UNL     1     114.153 125.461 137.930  0.00  0.00    +0.000 A 
ATOM     17  C   UNL     1     114.640 125.210 136.609  0.00  0.00    +0.000 A 
ATOM     18  C   UNL     1     114.686 125.086 137.425  0.00  0.00    +0.000 A 
ENDBRANCH   5  12
BRANCH   3  19
ATOM     19  O   UNL     1     113.906 127.640 136.403  0.00  0.00    +0.000 OA
ATOM     20  C   UNL     1     114.179 128.280 135.961  0.00  0.00    +0.000 C 
ENDBRANCH   3  19
BRANCH   7  21
ATOM     21  O   UNL     1     111.400 128.859 135.366  0.00  0.00    +0.000 OA
ATOM     22  C   UNL     1     110.848 129.331 134.976  0.00  0.00    +0.000 C 
ENDBRANCH   7  21
BRANCH   9  23
ATOM     23  O   UNL     1     110.641 125.750 136.171  0.00  0.00    +0.000 OA
ATOM     24  C   UNL     1     110.531 125.185 135.578  0.00  0.00    +0.000 C 
ENDBRANCH   9  23
BRANCH  11  25
ATOM     25  O   UNL     1     109.482 126.748 135.552  0.00  0.00    +0.000 OA
ATOM     26  C   UNL     1     108.839 127.222 135.759  0.00  0.00    +0.000 C 
ENDBRANCH  11  25
TORSDOF 5
ENDMDL
MODEL 7
REMARK VINA RESULT:      -7.1      1.314      3.419
REMARK  Name = 
REMARK  5 active torsions:
REMARK  status: ('A' for Active; 'I' for Inactive)
REMARK    1  A    between atoms: C_3  and  O_5
REMARK    2  A    between atoms: C_6  and  C_11
REMARK    3  A    between atoms: C_8  and  O_13
REMARK    4  A    between atoms: C_12  and  O_17
REMARK    5  A    between atoms: C_18  and  O_24
REMARK                            x       y       z     vdW  Elec       q    Type
REMARK                         _______ _______ _______ _____ _____    ______ ____
ROOT
ATOM      1  O   UNL     1     111.049 127.525 135.363  0.00  0.00    +0.000 OA
ATOM      2  C   UNL     1     111.800 127.484 135.701  0.00  0.00    +0.000 A 
ATOM      3  C   UNL     1     112.264 128.164 135.758  0.00  0.00    +0.000 A 
ATOM      4  C   UNL     1     112.087 126.764 135.982  0.00  0.00    +0.000 A 
ATOM      5  C   UNL     1     113.016 128.123 136.096  0.00  0.00    +0.000 A 
ATOM      6  C   UNL     1     112.840 126.723 136.320  0.00  0.00    +0.000 A 
ATOM      7  C   UNL     1     111.624 126.084 135.925  0.00  0.00    +0.000 A 
ATOM      8  O   UNL     1     113.304 127.403 136.376  0.00  0.00    +0.000 OA
ATOM      9  C   UNL     1     113.127 126.003 136.601  0.00  0.00    +0.000 A 
ATOM     10  C   UNL     1     111.911 125.363 136.206  0.00  0.00    +0.000 A 
ATOM     11  C   UNL     1     112.663 125.323 136.544  0.00  0.00    +0.000 A 
ENDROOT
BRANCH   5  12
ATOM     12  C   UNL     1     113.480 128.802 136.152  0.00  0.00    +0.000 A 
ATOM     13  C   UNL     1     113.509 129.225 136.860  0.00  0.00    +0.000 A 
ATOM     14  C   UNL     1     113.915 129.060 135.500  0.00  0.00    +0.000 A 
ATOM     15  O   UNL     1     113.074 128.967 137.513  0.00  0.00    +0.000 OA
ATOM     16  C   UNL     1     113.973 129.905 136.918  0.00  0.00    +0.000 A 
ATOM     17  C   UNL     1     114.379 129.741 135.557  0.00  0.00    +0.000 A 
ATOM     18  C   UNL     1     114.408 130.163 136.266  0.00  0.00    +0.000 A 
ENDBRANCH   5  12
BRANCH   3  19
ATOM     19  O   UNL     1     111.977 128.884 135.477  0.00  0.00    +0.000 OA
ATOM     20  C   UNL     1     111.388 128.896 134.899  0.00  0.00    +0.000 C 
ENDBRANCH   3  19
BRANCH   7  21
ATOM     21  O   UNL     1     110.872 126.125 135.588  0.00  0.00    +0.000 OA
ATOM     22  C   UNL     1     110.445 125.434 135.446  0.00  0.00    +0.000 C 
ENDBRANCH   7  21
BRANCH   9  23
ATOM     23  O   UNL     1     113.879 125.962 136.938  0.00  0.00    +0.000 OA
ATOM     24  C   UNL     1     114.489 125.571 136.543  0.00  0.00    +0.000 C 
ENDBRANCH   9  23
BRANCH  11  25
ATOM     25  O   UNL     1     112.951 124.603 136.825  0.00  0.00    +0.000 OA
ATOM     26  C   UNL     1     112.427 123.992 137.007  0.00  0.00    +0.000 C 
ENDBRANCH  11  25
TORSDOF 5
ENDMDL
MODEL 8
REMARK VINA RESULT:      -7.1      1.299      2.523
REMARK  Name = 
REMARK  5 active torsions:
REMARK  status: ('A' for Active; 'I' for Inactive)
REMARK    1  A    between atoms: C_3  and  O_5
REMARK    2  A    between atoms: C_6  and  C_11
REMARK    3  A    between atoms: C_8  and  O_13
REMARK    4  A    between atoms: C_12  and  O_17
REMARK    5  A    between atoms: C_18  and  O_24
REMARK                            x       y       z     vdW  Elec       q    Type
REMARK                         _______ _______ _______ _____ _____    ______ ____
ROOT
ATOM      1  O   UNL     1     111.072 127.154 135.071  0.00  0.00    +0.000 OA
ATOM      2  C   UNL     1     111.552 126.935 135.705  0.00  0.00    +0.000 A 
ATOM      3  C   UNL     1     111.641 126.139 135.899  0.00  0.00    +0.000 A 
ATOM      4  C   UNL     1     111.943 127.514 136.145  0.00  0.00    +0.000 A 
ATOM      5  C   UNL     1     112.121 125.919 136.534  0.00  0.00    +0.000 A 
ATOM      6  C   UNL     1     112.423 127.294 136.780  0.00  0.00    +0.000 A 
ATOM      7  C   UNL     1     111.854 128.310 135.951  0.00  0.00    +0.000 A 
ATOM      8  O   UNL     1     112.512 126.497 136.974  0.00  0.00    +0.000 OA
ATOM      9  C   UNL     1     112.814 127.872 137.220  0.00  0.00    +0.000 A 
ATOM     10  C   UNL     1     112.245 128.888 136.391  0.00  0.00    +0.000 A 
ATOM     11  C   UNL     1     112.725 128.669 137.026  0.00  0.00    +0.000 A 
ENDROOT
BRANCH   5  12
ATOM     12  C   UNL     1     112.210 125.123 136.728  0.00  0.00    +0.000 A 
ATOM     13  C   UNL     1     112.896 124.719 136.510  0.00  0.00    +0.000 A 
ATOM     14  C   UNL     1     111.613 124.730 137.139  0.00  0.00    +0.000 A 
ATOM     15  O   UNL     1     113.494 125.113 136.098  0.00  0.00    +0.000 OA
ATOM     16  C   UNL     1     112.985 123.922 136.704  0.00  0.00    +0.000 A 
ATOM     17  C   UNL     1     111.702 123.932 137.334  0.00  0.00    +0.000 A 
ATOM     18  C   UNL     1     112.388 123.528 137.116  0.00  0.00    +0.000 A 
ENDBRANCH   5  12
BRANCH   3  19
ATOM     19  O   UNL     1     111.250 125.561 135.459  0.00  0.00    +0.000 OA
ATOM     20  C   UNL     1     110.563 125.753 135.045  0.00  0.00    +0.000 C 
ENDBRANCH   3  19
BRANCH   7  21
ATOM     21  O   UNL     1     111.374 128.529 135.317  0.00  0.00    +0.000 OA
ATOM     22  C   UNL     1     111.236 129.327 135.160  0.00  0.00    +0.000 C 
ENDBRANCH   7  21
BRANCH   9  23
ATOM     23  O   UNL     1     113.294 127.653 137.854  0.00  0.00    +0.000 OA
ATOM     24  C   UNL     1     113.050 127.805 138.628  0.00  0.00    +0.000 C 
ENDBRANCH   9  23
BRANCH  11  25
ATOM     25  O   UNL     1     113.116 129.247 137.466  0.00  0.00    +0.000 OA
ATOM     26  C   UNL     1     113.400 129.927 137.095  0.00  0.00    +0.000 C 
ENDBRANCH  11  25
TORSDOF 5
ENDMDL
MODEL 9
REMARK VINA RESULT:      -7.1      2.205      4.395
REMARK  Name = 
REMARK  5 active torsions:
REMARK  status: ('A' for Active; 'I' for Inactive)
REMARK    1  A    between atoms: C_3  and  O_5
REMARK    2  A    between atoms: C_6  and  C_11
REMARK    3  A    between atoms: C_8  and  O_13
REMARK    4  A    between atoms: C_12  and  O_17
REMARK    5  A    between atoms: C_18  and  O_24
REMARK                            x       y       z     vdW  Elec       q    Type
REMARK                         _______ _______ _______ _____ _____    ______ ____
ROOT
ATOM      1  O   UNL     1     114.330 126.153 138.862  0.00  0.00    +0.000 OA
ATOM      2  C   UNL     1     113.510 126.120 138.774  0.00  0.00    +0.000 A 
ATOM      3  C   UNL     1     113.181 125.778 138.100  0.00  0.00    +0.000 A 
ATOM      4  C   UNL     1     113.021 126.429 139.362  0.00  0.00    +0.000 A 
ATOM      5  C   UNL     1     112.361 125.745 138.013  0.00  0.00    +0.000 A 
ATOM      6  C   UNL     1     112.200 126.395 139.275  0.00  0.00    +0.000 A 
ATOM      7  C   UNL     1     113.350 126.770 140.037  0.00  0.00    +0.000 A 
ATOM      8  O   UNL     1     111.871 126.053 138.600  0.00  0.00    +0.000 OA
ATOM      9  C   UNL     1     111.710 126.704 139.862  0.00  0.00    +0.000 A 
ATOM     10  C   UNL     1     112.860 127.079 140.624  0.00  0.00    +0.000 A 
ATOM     11  C   UNL     1     112.039 127.046 140.537  0.00  0.00    +0.000 A 
ENDROOT
BRANCH   5  12
ATOM     12  C   UNL     1     112.032 125.403 137.339  0.00  0.00    +0.000 A 
ATOM     13  C   UNL     1     111.757 125.881 136.725  0.00  0.00    +0.000 A 
ATOM     14  C   UNL     1     111.977 124.582 137.277  0.00  0.00    +0.000 A 
ATOM     15  O   UNL     1     111.812 126.703 136.786  0.00  0.00    +0.000 OA
ATOM     16  C   UNL     1     111.428 125.540 136.050  0.00  0.00    +0.000 A 
ATOM     17  C   UNL     1     111.647 124.240 136.602  0.00  0.00    +0.000 A 
ATOM     18  C   UNL     1     111.373 124.719 135.988  0.00  0.00    +0.000 A 
ENDBRANCH   5  12
BRANCH   3  19
ATOM     19  O   UNL     1     113.671 125.469 137.513  0.00  0.00    +0.000 OA
ATOM     20  C   UNL     1     114.448 125.258 137.693  0.00  0.00    +0.000 C 
ENDBRANCH   3  19
BRANCH   7  21
ATOM     21  O   UNL     1     114.169 126.803 140.124  0.00  0.00    +0.000 OA
ATOM     22  C   UNL     1     114.499 127.127 140.807  0.00  0.00    +0.000 C 
ENDBRANCH   7  21
BRANCH   9  23
ATOM     23  O   UNL     1     110.891 126.671 139.775  0.00  0.00    +0.000 OA
ATOM     24  C   UNL     1     110.443 126.177 140.263  0.00  0.00    +0.000 C 
ENDBRANCH   9  23
BRANCH  11  25
ATOM     25  O   UNL     1     111.550 127.354 141.124  0.00  0.00    +0.000 OA
ATOM     26  C   UNL     1     111.825 127.954 141.619  0.00  0.00    +0.000 C 
ENDBRANCH  11  25
TORSDOF 5
ENDMDL
MODEL 10
REMARK VINA RESULT:      -7.0      1.121      4.007
REMARK  Name = 
REMARK  5 active torsions:
REMARK  status: ('A' for Active; 'I' for Inactive)
REMARK    1  A    between atoms: C_3  and  O_5
REMARK    2  A    between atoms: C_6  and  C_11
REMARK    3  A    between atoms: C_8  and  O_13
REMARK    4  A    between atoms: C_12  and  O_17
REMARK    5  A    between atoms: C_18  and  O_24
REMARK                            x       y       z     vdW  Elec       q    Type
REMARK                         _______ _______ _______ _____ _____    ______ ____
ROOT
ATOM      1  O   UNL     1     114.037 127.164 136.475  0.00  0.00    +0.000 OA
ATOM      2  C   UNL     1     113.226 127.112 136.335  0.00  0.00    +0.000 A 
ATOM      3  C   UNL     1     112.795 127.791 136.153  0.00  0.00    +0.000 A 
ATOM      4  C   UNL     1     112.846 126.381 136.378  0.00  0.00    +0.000 A 
ATOM      5  C   UNL     1     111.983 127.740 136.013  0.00  0.00    +0.000 A 
ATOM      6  C   UNL     1     112.033 126.330 136.238  0.00  0.00    +0.000 A 
ATOM      7  C   UNL     1     113.276 125.702 136.560  0.00  0.00    +0.000 A 
ATOM      8  O   UNL     1     111.603 127.010 136.056  0.00  0.00    +0.000 OA
ATOM      9  C   UNL     1     111.653 125.600 136.280  0.00  0.00    +0.000 A 
ATOM     10  C   UNL     1     112.896 124.971 136.602  0.00  0.00    +0.000 A 
ATOM     11  C   UNL     1     112.084 124.920 136.463  0.00  0.00    +0.000 A 
ENDROOT
BRANCH   5  12
ATOM     12  C   UNL     1     111.552 128.419 135.831  0.00  0.00    +0.000 A 
ATOM     13  C   UNL     1     111.119 128.804 136.419  0.00  0.00    +0.000 A 
ATOM     14  C   UNL     1     111.555 128.715 135.061  0.00  0.00    +0.000 A 
ATOM     15  O   UNL     1     111.117 128.508 137.190  0.00  0.00    +0.000 OA
ATOM     16  C   UNL     1     110.688 129.484 136.237  0.00  0.00    +0.000 A 
ATOM     17  C   UNL     1     111.124 129.395 134.879  0.00  0.00    +0.000 A 
ATOM     18  C   UNL     1     110.690 129.779 135.467  0.00  0.00    +0.000 A 
ENDBRANCH   5  12
BRANCH   3  19
ATOM     19  O   UNL     1     113.175 128.522 136.110  0.00  0.00    +0.000 OA
ATOM     20  C   UNL     1     113.974 128.560 135.908  0.00  0.00    +0.000 C 
ENDBRANCH   3  19
BRANCH   7  21
ATOM     21  O   UNL     1     114.088 125.753 136.699  0.00  0.00    +0.000 OA
ATOM     22  C   UNL     1     114.528 125.068 136.831  0.00  0.00    +0.000 C 
ENDBRANCH   7  21
BRANCH   9  23
ATOM     23  O   UNL     1     110.842 125.548 136.141  0.00  0.00    +0.000 OA
ATOM     24  C   UNL     1     110.564 125.239 135.428  0.00  0.00    +0.000 C 
ENDBRANCH   9  23
BRANCH  11  25
ATOM     25  O   UNL     1     111.703 124.189 136.505  0.00  0.00    +0.000 OA
ATOM     26  C   UNL     1     111.983 123.607 137.019  0.00  0.00    +0.000 C 
ENDBRANCH  11  25
TORSDOF 5
ENDMDL
