MODEL 1
REMARK VINA RESULT:      -7.4      0.000      0.000
REMARK  Name = 54100766
REMARK  4 active torsions:
REMARK  status: ('A' for Active; 'I' for Inactive)
REMARK    1  A    between atoms: O_2  and  C_12
REMARK    2  A    between atoms: O_3  and  C_16
REMARK    3  A    between atoms: O_4  and  C_18
REMARK    4  A    between atoms: C_6  and  C_9
REMARK                            x       y       z     vdW  Elec       q    Type
REMARK                         _______ _______ _______ _____ _____    ______ ____
ROOT
ATOM      1  C   UNL     1     113.460 128.066 136.363  0.00  0.00    +0.000 A 
ATOM      2  C   UNL     1     113.223 128.603 136.943  0.00  0.00    +0.000 A 
ATOM      3  C   UNL     1     113.935 128.317 135.737  0.00  0.00    +0.000 A 
ATOM      4  C   UNL     1     113.462 129.392 136.896  0.00  0.00    +0.000 A 
ATOM      5  C   UNL     1     114.173 129.106 135.691  0.00  0.00    +0.000 A 
ATOM      6  C   UNL     1     113.936 129.643 136.271  0.00  0.00    +0.000 A 
ENDROOT
BRANCH   1   9
ATOM      7  O   UNL     1     112.218 126.275 136.240  0.00  0.00    +0.000 OA
ATOM      8  O   UNL     1     112.796 123.489 136.862  0.00  0.00    +0.000 OA
ATOM      9  C   UNL     1     113.222 127.277 136.409  0.00  0.00    +0.000 C 
ATOM     10  C   UNL     1     113.753 126.701 136.671  0.00  0.00    +0.000 C 
ATOM     11  C   UNL     1     112.455 127.064 136.194  0.00  0.00    +0.000 C 
ATOM     12  C   UNL     1     113.515 125.913 136.717  0.00  0.00    +0.000 A 
ATOM     13  C   UNL     1     112.748 125.700 136.501  0.00  0.00    +0.000 A 
ATOM     14  C   UNL     1     114.076 125.322 136.991  0.00  0.00    +0.000 A 
ATOM     15  C   UNL     1     112.489 124.881 136.545  0.00  0.00    +0.000 A 
ATOM     16  C   UNL     1     113.835 124.500 137.041  0.00  0.00    +0.000 A 
ATOM     17  C   UNL     1     113.036 124.277 136.817  0.00  0.00    +0.000 A 
ENDBRANCH   1   9
BRANCH   2  18
ATOM     18  O   UNL     1     112.749 128.352 137.569  0.00  0.00    +0.000 OA
ATOM     19  C   UNL     1     112.942 128.561 138.343  0.00  0.00    +0.000 C 
ENDBRANCH   2  18
BRANCH   4  20
ATOM     20  O   UNL     1     113.225 129.929 137.476  0.00  0.00    +0.000 OA
ATOM     21  C   UNL     1     112.646 130.491 137.306  0.00  0.00    +0.000 C 
ENDBRANCH   4  20
BRANCH   6  22
ATOM     22  O   UNL     1     114.175 130.432 136.224  0.00  0.00    +0.000 OA
ATOM     23  C   UNL     1     114.805 130.644 135.737  0.00  0.00    +0.000 C 
ENDBRANCH   6  22
TORSDOF 4
ENDMDL
MODEL 2
REMARK VINA RESULT:      -7.3     12.487     13.660
REMARK  Name = 54100766
REMARK  4 active torsions:
REMARK  status: ('A' for Active; 'I' for Inactive)
REMARK    1  A    between atoms: O_2  and  C_12
REMARK    2  A    between atoms: O_3  and  C_16
REMARK    3  A    between atoms: O_4  and  C_18
REMARK    4  A    between atoms: C_6  and  C_9
REMARK                            x       y       z     vdW  Elec       q    Type
REMARK                         _______ _______ _______ _____ _____    ______ ____
ROOT
ATOM      1  C   UNL     1     105.155 124.552 146.559  0.00  0.00    +0.000 A 
ATOM      2  C   UNL     1     105.522 124.940 145.930  0.00  0.00    +0.000 A 
ATOM      3  C   UNL     1     105.532 124.507 147.293  0.00  0.00    +0.000 A 
ATOM      4  C   UNL     1     106.266 125.283 146.035  0.00  0.00    +0.000 A 
ATOM      5  C   UNL     1     106.275 124.851 147.396  0.00  0.00    +0.000 A 
ATOM      6  C   UNL     1     106.642 125.238 146.767  0.00  0.00    +0.000 A 
ENDROOT
BRANCH   1   9
ATOM      7  O   UNL     1     103.598 123.144 145.962  0.00  0.00    +0.000 OA
ATOM      8  O   UNL     1     100.710 123.203 146.332  0.00  0.00    +0.000 OA
ATOM      9  C   UNL     1     104.413 124.209 146.456  0.00  0.00    +0.000 C 
ATOM     10  C   UNL     1     103.739 124.590 146.745  0.00  0.00    +0.000 C 
ATOM     11  C   UNL     1     104.342 123.486 146.065  0.00  0.00    +0.000 C 
ATOM     12  C   UNL     1     102.996 124.246 146.642  0.00  0.00    +0.000 A 
ATOM     13  C   UNL     1     102.926 123.524 146.251  0.00  0.00    +0.000 A 
ATOM     14  C   UNL     1     102.302 124.652 146.948  0.00  0.00    +0.000 A 
ATOM     15  C   UNL     1     102.157 123.157 146.138  0.00  0.00    +0.000 A 
ATOM     16  C   UNL     1     101.526 124.300 146.844  0.00  0.00    +0.000 A 
ATOM     17  C   UNL     1     101.452 123.547 146.436  0.00  0.00    +0.000 A 
ENDBRANCH   1   9
BRANCH   2  18
ATOM     18  O   UNL     1     105.146 124.984 145.198  0.00  0.00    +0.000 OA
ATOM     19  C   UNL     1     105.562 124.802 144.509  0.00  0.00    +0.000 C 
ENDBRANCH   2  18
BRANCH   4  20
ATOM     20  O   UNL     1     106.632 125.670 145.405  0.00  0.00    +0.000 OA
ATOM     21  C   UNL     1     106.608 126.493 145.356  0.00  0.00    +0.000 C 
ENDBRANCH   4  20
BRANCH   6  22
ATOM     22  O   UNL     1     107.385 125.581 146.871  0.00  0.00    +0.000 OA
ATOM     23  C   UNL     1     107.835 125.396 147.536  0.00  0.00    +0.000 C 
ENDBRANCH   6  22
TORSDOF 4
ENDMDL
MODEL 3
REMARK VINA RESULT:      -7.2     10.981     12.258
REMARK  Name = 54100766
REMARK  4 active torsions:
REMARK  status: ('A' for Active; 'I' for Inactive)
REMARK    1  A    between atoms: O_2  and  C_12
REMARK    2  A    between atoms: O_3  and  C_16
REMARK    3  A    between atoms: O_4  and  C_18
REMARK    4  A    between atoms: C_6  and  C_9
REMARK                            x       y       z     vdW  Elec       q    Type
REMARK                         _______ _______ _______ _____ _____    ______ ____
ROOT
ATOM      1  C   UNL     1     105.959 126.071 145.791  0.00  0.00    +0.000 A 
ATOM      2  C   UNL     1     105.908 125.644 145.086  0.00  0.00    +0.000 A 
ATOM      3  C   UNL     1     105.822 126.885 145.791  0.00  0.00    +0.000 A 
ATOM      4  C   UNL     1     105.721 126.033 144.382  0.00  0.00    +0.000 A 
ATOM      5  C   UNL     1     105.635 127.272 145.087  0.00  0.00    +0.000 A 
ATOM      6  C   UNL     1     105.585 126.845 144.383  0.00  0.00    +0.000 A 
ENDROOT
BRANCH   1   9
ATOM      7  O   UNL     1     105.737 124.950 147.650  0.00  0.00    +0.000 OA
ATOM      8  O   UNL     1     107.703 124.074 149.612  0.00  0.00    +0.000 OA
ATOM      9  C   UNL     1     106.146 125.684 146.495  0.00  0.00    +0.000 C 
ATOM     10  C   UNL     1     106.931 125.645 146.748  0.00  0.00    +0.000 C 
ATOM     11  C   UNL     1     105.549 125.336 146.946  0.00  0.00    +0.000 C 
ATOM     12  C   UNL     1     107.118 125.258 147.452  0.00  0.00    +0.000 A 
ATOM     13  C   UNL     1     106.521 124.911 147.903  0.00  0.00    +0.000 A 
ATOM     14  C   UNL     1     107.939 125.225 147.705  0.00  0.00    +0.000 A 
ATOM     15  C   UNL     1     106.704 124.505 148.639  0.00  0.00    +0.000 A 
ATOM     16  C   UNL     1     108.140 124.823 148.437  0.00  0.00    +0.000 A 
ATOM     17  C   UNL     1     107.519 124.461 148.907  0.00  0.00    +0.000 A 
ENDBRANCH   1   9
BRANCH   2  18
ATOM     18  O   UNL     1     106.045 124.832 145.086  0.00  0.00    +0.000 OA
ATOM     19  C   UNL     1     105.525 124.326 144.692  0.00  0.00    +0.000 C 
ENDBRANCH   2  18
BRANCH   4  20
ATOM     20  O   UNL     1     105.671 125.606 143.678  0.00  0.00    +0.000 OA
ATOM     21  C   UNL     1     106.253 125.692 143.100  0.00  0.00    +0.000 C 
ENDBRANCH   4  20
BRANCH   6  22
ATOM     22  O   UNL     1     105.398 127.234 143.679  0.00  0.00    +0.000 OA
ATOM     23  C   UNL     1     105.193 128.032 143.689  0.00  0.00    +0.000 C 
ENDBRANCH   6  22
TORSDOF 4
ENDMDL
MODEL 4
REMARK VINA RESULT:      -7.1     10.696     11.984
REMARK  Name = 54100766
REMARK  4 active torsions:
REMARK  status: ('A' for Active; 'I' for Inactive)
REMARK    1  A    between atoms: O_2  and  C_12
REMARK    2  A    between atoms: O_3  and  C_16
REMARK    3  A    between atoms: O_4  and  C_18
REMARK    4  A    between atoms: C_6  and  C_9
REMARK                            x       y       z     vdW  Elec       q    Type
REMARK                         _______ _______ _______ _____ _____    ______ ____
ROOT
ATOM      1  C   UNL     1     102.548 131.324 141.515  0.00  0.00    +0.000 A 
ATOM      2  C   UNL     1     102.925 132.008 141.250  0.00  0.00    +0.000 A 
ATOM      3  C   UNL     1     101.823 131.377 141.907  0.00  0.00    +0.000 A 
ATOM      4  C   UNL     1     102.577 132.746 141.379  0.00  0.00    +0.000 A 
ATOM      5  C   UNL     1     101.477 132.115 142.035  0.00  0.00    +0.000 A 
ATOM      6  C   UNL     1     101.854 132.799 141.771  0.00  0.00    +0.000 A 
ENDROOT
BRANCH   1   9
ATOM      7  O   UNL     1     103.092 129.438 140.560  0.00  0.00    +0.000 OA
ATOM      8  O   UNL     1     104.803 127.256 141.451  0.00  0.00    +0.000 OA
ATOM      9  C   UNL     1     102.894 130.586 141.387  0.00  0.00    +0.000 C 
ATOM     10  C   UNL     1     103.389 130.258 141.961  0.00  0.00    +0.000 C 
ATOM     11  C   UNL     1     102.746 130.176 140.686  0.00  0.00    +0.000 C 
ATOM     12  C   UNL     1     103.735 129.520 141.833  0.00  0.00    +0.000 A 
ATOM     13  C   UNL     1     103.587 129.110 141.132  0.00  0.00    +0.000 A 
ATOM     14  C   UNL     1     104.248 129.189 142.437  0.00  0.00    +0.000 A 
ATOM     15  C   UNL     1     103.942 128.341 140.988  0.00  0.00    +0.000 A 
ATOM     16  C   UNL     1     104.612 128.421 142.311  0.00  0.00    +0.000 A 
ATOM     17  C   UNL     1     104.457 127.994 141.581  0.00  0.00    +0.000 A 
ENDBRANCH   1   9
BRANCH   2  18
ATOM     18  O   UNL     1     103.648 131.955 140.859  0.00  0.00    +0.000 OA
ATOM     19  C   UNL     1     103.788 132.414 140.187  0.00  0.00    +0.000 C 
ENDBRANCH   2  18
BRANCH   4  20
ATOM     20  O   UNL     1     102.955 133.430 141.115  0.00  0.00    +0.000 OA
ATOM     21  C   UNL     1     103.291 133.952 141.658  0.00  0.00    +0.000 C 
ENDBRANCH   4  20
BRANCH   6  22
ATOM     22  O   UNL     1     101.507 133.537 141.899  0.00  0.00    +0.000 OA
ATOM     23  C   UNL     1     100.710 133.588 142.104  0.00  0.00    +0.000 C 
ENDBRANCH   6  22
TORSDOF 4
ENDMDL
MODEL 5
REMARK VINA RESULT:      -7.1      0.786      4.372
REMARK  Name = 54100766
REMARK  4 active torsions:
REMARK  status: ('A' for Active; 'I' for Inactive)
REMARK    1  A    between atoms: O_2  and  C_12
REMARK    2  A    between atoms: O_3  and  C_16
REMARK    3  A    between atoms: O_4  and  C_18
REMARK    4  A    between atoms: C_6  and  C_9
REMARK                            x       y       z     vdW  Elec       q    Type
REMARK                         _______ _______ _______ _____ _____    ______ ____
ROOT
ATOM      1  C   UNL     1     113.197 126.972 136.504  0.00  0.00    +0.000 A 
ATOM      2  C   UNL     1     112.418 126.762 136.332  0.00  0.00    +0.000 A 
ATOM      3  C   UNL     1     113.746 126.391 136.710  0.00  0.00    +0.000 A 
ATOM      4  C   UNL     1     112.188 125.970 136.365  0.00  0.00    +0.000 A 
ATOM      5  C   UNL     1     113.514 125.599 136.743  0.00  0.00    +0.000 A 
ATOM      6  C   UNL     1     112.735 125.389 136.571  0.00  0.00    +0.000 A 
ENDROOT
BRANCH   1   9
ATOM      7  O   UNL     1     113.466 129.068 137.052  0.00  0.00    +0.000 OA
ATOM      8  O   UNL     1     114.801 131.258 135.673  0.00  0.00    +0.000 OA
ATOM      9  C   UNL     1     113.428 127.763 136.470  0.00  0.00    +0.000 C 
ATOM     10  C   UNL     1     113.854 128.041 135.820  0.00  0.00    +0.000 C 
ATOM     11  C   UNL     1     113.234 128.277 137.086  0.00  0.00    +0.000 C 
ATOM     12  C   UNL     1     114.085 128.832 135.787  0.00  0.00    +0.000 A 
ATOM     13  C   UNL     1     113.891 129.345 136.403  0.00  0.00    +0.000 A 
ATOM     14  C   UNL     1     114.529 129.109 135.104  0.00  0.00    +0.000 A 
ATOM     15  C   UNL     1     114.127 130.172 136.379  0.00  0.00    +0.000 A 
ATOM     16  C   UNL     1     114.772 129.932 135.063  0.00  0.00    +0.000 A 
ATOM     17  C   UNL     1     114.570 130.467 135.705  0.00  0.00    +0.000 A 
ENDBRANCH   1   9
BRANCH   2  18
ATOM     18  O   UNL     1     111.870 127.343 136.126  0.00  0.00    +0.000 OA
ATOM     19  C   UNL     1     111.370 127.228 135.480  0.00  0.00    +0.000 C 
ENDBRANCH   2  18
BRANCH   4  20
ATOM     20  O   UNL     1     111.409 125.760 136.193  0.00  0.00    +0.000 OA
ATOM     21  C   UNL     1     110.894 125.549 136.802  0.00  0.00    +0.000 C 
ENDBRANCH   4  20
BRANCH   6  22
ATOM     22  O   UNL     1     112.505 124.598 136.605  0.00  0.00    +0.000 OA
ATOM     23  C   UNL     1     113.071 124.007 136.706  0.00  0.00    +0.000 C 
ENDBRANCH   6  22
TORSDOF 4
ENDMDL
MODEL 6
REMARK VINA RESULT:      -7.1     13.155     14.644
REMARK  Name = 54100766
REMARK  4 active torsions:
REMARK  status: ('A' for Active; 'I' for Inactive)
REMARK    1  A    between atoms: O_2  and  C_12
REMARK    2  A    between atoms: O_3  and  C_16
REMARK    3  A    between atoms: O_4  and  C_18
REMARK    4  A    between atoms: C_6  and  C_9
REMARK                            x       y       z     vdW  Elec       q    Type
REMARK                         _______ _______ _______ _____ _____    ______ ____
ROOT
ATOM      1  C   UNL     1     103.462 124.329 146.922  0.00  0.00    +0.000 A 
ATOM      2  C   UNL     1     103.200 123.782 146.362  0.00  0.00    +0.000 A 
ATOM      3  C   UNL     1     102.970 124.547 147.548  0.00  0.00    +0.000 A 
ATOM      4  C   UNL     1     102.445 123.454 146.429  0.00  0.00    +0.000 A 
ATOM      5  C   UNL     1     102.217 124.218 147.614  0.00  0.00    +0.000 A 
ATOM      6  C   UNL     1     101.954 123.672 147.054  0.00  0.00    +0.000 A 
ENDROOT
BRANCH   1   9
ATOM      7  O   UNL     1     105.135 125.524 146.189  0.00  0.00    +0.000 OA
ATOM      8  O   UNL     1     107.876 125.779 147.138  0.00  0.00    +0.000 OA
ATOM      9  C   UNL     1     104.216 124.657 146.856  0.00  0.00    +0.000 C 
ATOM     10  C   UNL     1     104.805 124.447 147.395  0.00  0.00    +0.000 C 
ATOM     11  C   UNL     1     104.380 125.196 146.253  0.00  0.00    +0.000 C 
ATOM     12  C   UNL     1     105.559 124.776 147.329  0.00  0.00    +0.000 A 
ATOM     13  C   UNL     1     105.724 125.314 146.726  0.00  0.00    +0.000 A 
ATOM     14  C   UNL     1     106.165 124.549 147.896  0.00  0.00    +0.000 A 
ATOM     15  C   UNL     1     106.506 125.663 146.648  0.00  0.00    +0.000 A 
ATOM     16  C   UNL     1     106.952 124.888 147.833  0.00  0.00    +0.000 A 
ATOM     17  C   UNL     1     107.123 125.449 147.205  0.00  0.00    +0.000 A 
ENDBRANCH   1   9
BRANCH   2  18
ATOM     18  O   UNL     1     103.691 123.564 145.737  0.00  0.00    +0.000 OA
ATOM     19  C   UNL     1     103.765 122.770 145.529  0.00  0.00    +0.000 C 
ENDBRANCH   2  18
BRANCH   4  20
ATOM     20  O   UNL     1     102.183 122.907 145.870  0.00  0.00    +0.000 OA
ATOM     21  C   UNL     1     101.577 123.109 145.348  0.00  0.00    +0.000 C 
ENDBRANCH   4  20
BRANCH   6  22
ATOM     22  O   UNL     1     101.200 123.343 147.121  0.00  0.00    +0.000 OA
ATOM     23  C   UNL     1     100.777 123.420 147.825  0.00  0.00    +0.000 C 
ENDBRANCH   6  22
TORSDOF 4
ENDMDL
MODEL 7
REMARK VINA RESULT:      -7.0     13.335     14.499
REMARK  Name = 54100766
REMARK  4 active torsions:
REMARK  status: ('A' for Active; 'I' for Inactive)
REMARK    1  A    between atoms: O_2  and  C_12
REMARK    2  A    between atoms: O_3  and  C_16
REMARK    3  A    between atoms: O_4  and  C_18
REMARK    4  A    between atoms: C_6  and  C_9
REMARK                            x       y       z     vdW  Elec       q    Type
REMARK                         _______ _______ _______ _____ _____    ______ ____
ROOT
ATOM      1  C   UNL     1     105.024 124.711 147.383  0.00  0.00    +0.000 A 
ATOM      2  C   UNL     1     105.263 124.633 148.169  0.00  0.00    +0.000 A 
ATOM      3  C   UNL     1     105.573 124.922 146.804  0.00  0.00    +0.000 A 
ATOM      4  C   UNL     1     106.051 124.764 148.375  0.00  0.00    +0.000 A 
ATOM      5  C   UNL     1     106.361 125.053 147.011  0.00  0.00    +0.000 A 
ATOM      6  C   UNL     1     106.599 124.974 147.797  0.00  0.00    +0.000 A 
ENDROOT
BRANCH   1   9
ATOM      7  O   UNL     1     102.881 125.027 147.117  0.00  0.00    +0.000 OA
ATOM      8  O   UNL     1     100.816 123.324 145.969  0.00  0.00    +0.000 OA
ATOM      9  C   UNL     1     104.236 124.580 147.175  0.00  0.00    +0.000 C 
ATOM     10  C   UNL     1     104.018 123.869 146.818  0.00  0.00    +0.000 C 
ATOM     11  C   UNL     1     103.668 125.159 147.325  0.00  0.00    +0.000 C 
ATOM     12  C   UNL     1     103.230 123.738 146.610  0.00  0.00    +0.000 A 
ATOM     13  C   UNL     1     102.662 124.317 146.760  0.00  0.00    +0.000 A 
ATOM     14  C   UNL     1     103.014 122.993 146.239  0.00  0.00    +0.000 A 
ATOM     15  C   UNL     1     101.838 124.191 146.548  0.00  0.00    +0.000 A 
ATOM     16  C   UNL     1     102.196 122.850 146.020  0.00  0.00    +0.000 A 
ATOM     17  C   UNL     1     101.604 123.453 146.175  0.00  0.00    +0.000 A 
ENDBRANCH   1   9
BRANCH   2  18
ATOM     18  O   UNL     1     104.714 124.423 148.747  0.00  0.00    +0.000 OA
ATOM     19  C   UNL     1     104.692 124.832 149.463  0.00  0.00    +0.000 C 
ENDBRANCH   2  18
BRANCH   4  20
ATOM     20  O   UNL     1     106.289 124.685 149.161  0.00  0.00    +0.000 OA
ATOM     21  C   UNL     1     106.769 124.053 149.386  0.00  0.00    +0.000 C 
ENDBRANCH   4  20
BRANCH   6  22
ATOM     22  O   UNL     1     107.387 125.106 148.004  0.00  0.00    +0.000 OA
ATOM     23  C   UNL     1     107.905 125.449 147.461  0.00  0.00    +0.000 C 
ENDBRANCH   6  22
TORSDOF 4
ENDMDL
MODEL 8
REMARK VINA RESULT:      -6.9      2.173      3.402
REMARK  Name = 54100766
REMARK  4 active torsions:
REMARK  status: ('A' for Active; 'I' for Inactive)
REMARK    1  A    between atoms: O_2  and  C_12
REMARK    2  A    between atoms: O_3  and  C_16
REMARK    3  A    between atoms: O_4  and  C_18
REMARK    4  A    between atoms: C_6  and  C_9
REMARK                            x       y       z     vdW  Elec       q    Type
REMARK                         _______ _______ _______ _____ _____    ______ ____
ROOT
ATOM      1  C   UNL     1     112.886 127.032 139.665  0.00  0.00    +0.000 A 
ATOM      2  C   UNL     1     113.069 127.836 139.623  0.00  0.00    +0.000 A 
ATOM      3  C   UNL     1     112.640 126.702 140.381  0.00  0.00    +0.000 A 
ATOM      4  C   UNL     1     113.005 128.309 140.295  0.00  0.00    +0.000 A 
ATOM      5  C   UNL     1     112.577 127.176 141.053  0.00  0.00    +0.000 A 
ATOM      6  C   UNL     1     112.759 127.980 141.010  0.00  0.00    +0.000 A 
ENDROOT
BRANCH   1   9
ATOM      7  O   UNL     1     112.355 125.955 137.843  0.00  0.00    +0.000 OA
ATOM      8  O   UNL     1     113.944 124.280 136.068  0.00  0.00    +0.000 OA
ATOM      9  C   UNL     1     112.950 126.558 138.993  0.00  0.00    +0.000 C 
ATOM     10  C   UNL     1     113.674 126.212 138.800  0.00  0.00    +0.000 C 
ATOM     11  C   UNL     1     112.290 126.429 138.515  0.00  0.00    +0.000 C 
ATOM     12  C   UNL     1     113.737 125.737 138.128  0.00  0.00    +0.000 A 
ATOM     13  C   UNL     1     113.078 125.609 137.650  0.00  0.00    +0.000 A 
ATOM     14  C   UNL     1     114.496 125.382 137.937  0.00  0.00    +0.000 A 
ATOM     15  C   UNL     1     113.132 125.117 136.947  0.00  0.00    +0.000 A 
ATOM     16  C   UNL     1     114.569 124.887 137.239  0.00  0.00    +0.000 A 
ATOM     17  C   UNL     1     113.882 124.754 136.741  0.00  0.00    +0.000 A 
ENDBRANCH   1   9
BRANCH   2  18
ATOM     18  O   UNL     1     113.314 128.165 138.908  0.00  0.00    +0.000 OA
ATOM     19  C   UNL     1     112.967 128.861 138.633  0.00  0.00    +0.000 C 
ENDBRANCH   2  18
BRANCH   4  20
ATOM     20  O   UNL     1     113.187 129.112 140.253  0.00  0.00    +0.000 OA
ATOM     21  C   UNL     1     113.891 129.394 140.578  0.00  0.00    +0.000 C 
ENDBRANCH   4  20
BRANCH   6  22
ATOM     22  O   UNL     1     112.695 128.453 141.683  0.00  0.00    +0.000 OA
ATOM     23  C   UNL     1     112.170 128.248 142.284  0.00  0.00    +0.000 C 
ENDBRANCH   6  22
TORSDOF 4
ENDMDL
