MODEL 1
REMARK VINA RESULT:     -10.0      0.000      0.000
REMARK  Name = 44258204
REMARK  8 active torsions:
REMARK  status: ('A' for Active; 'I' for Inactive)
REMARK    1  A    between atoms: O_3  and  C_20
REMARK    2  A    between atoms: O_3  and  C_24
REMARK    3  A    between atoms: O_8  and  C_25
REMARK    4  A    between atoms: O_8  and  C_27
REMARK    5  A    between atoms: O_14  and  C_39
REMARK    6  A    between atoms: C_16  and  C_26
REMARK    7  A    between atoms: C_17  and  C_24
REMARK    8  A    between atoms: C_34  and  C_36
REMARK                            x       y       z     vdW  Elec       q    Type
REMARK                         _______ _______ _______ _____ _____    ______ ____
ROOT
ATOM      1  O   UNL     1     110.399 128.751 135.148  0.00  0.00    +0.000 OA
ENDROOT
BRANCH   1   5
ATOM      2  O   UNL     1     112.151 126.682 136.214  0.00  0.00    +0.000 OA
ATOM      3  O   UNL     1     109.645 125.934 134.984  0.00  0.00    +0.000 OA
ATOM      4  O   UNL     1     110.538 124.936 135.522  0.00  0.00    +0.000 OA
ATOM      5  C   UNL     1     110.560 127.955 135.295  0.00  0.00    +0.000 A 
ATOM      6  C   UNL     1     111.290 127.727 135.688  0.00  0.00    +0.000 A 
ATOM      7  C   UNL     1     110.000 127.349 135.054  0.00  0.00    +0.000 A 
ATOM      8  C   UNL     1     111.449 126.896 135.836  0.00  0.00    +0.000 A 
ATOM      9  C   UNL     1     110.176 126.523 135.211  0.00  0.00    +0.000 A 
ATOM     10  C   UNL     1     110.911 126.314 135.605  0.00  0.00    +0.000 A 
ATOM     11  C   UNL     1     111.075 125.519 135.753  0.00  0.00    +0.000 A 
ATOM     12  C   UNL     1     112.315 125.887 136.361  0.00  0.00    +0.000 A 
ATOM     13  C   UNL     1     111.777 125.306 136.131  0.00  0.00    +0.000 A 
BRANCH  12  15
ATOM     14  O   UNL     1     115.121 125.034 137.874  0.00  0.00    +0.000 OA
ATOM     15  C   UNL     1     113.016 125.674 136.739  0.00  0.00    +0.000 A 
ATOM     16  C   UNL     1     113.132 125.868 137.533  0.00  0.00    +0.000 A 
ATOM     17  C   UNL     1     113.601 125.267 136.324  0.00  0.00    +0.000 A 
ATOM     18  C   UNL     1     113.834 125.655 137.911  0.00  0.00    +0.000 A 
ATOM     19  C   UNL     1     114.302 125.054 136.703  0.00  0.00    +0.000 A 
ATOM     20  C   UNL     1     114.419 125.248 137.496  0.00  0.00    +0.000 A 
BRANCH  18  21
ATOM     21  O   UNL     1     113.951 125.849 138.704  0.00  0.00    +0.000 OA
ATOM     22  C   UNL     1     113.507 126.452 139.051  0.00  0.00    +0.000 C 
ENDBRANCH  18  21
ENDBRANCH  12  15
ENDBRANCH   1   5
BRANCH   1  31
ATOM     23  O   UNL     1     110.145 129.231 136.470  0.00  0.00    +0.000 OA
ATOM     24  O   UNL     1     108.528 130.469 137.256  0.00  0.00    +0.000 OA
ATOM     25  O   UNL     1     108.099 130.367 135.666  0.00  0.00    +0.000 OA
ATOM     26  O   UNL     1     109.034 129.508 134.612  0.00  0.00    +0.000 OA
ATOM     27  C   UNL     1     109.678 129.661 136.998  0.00  0.00    +0.000 C 
ATOM     28  C   UNL     1     108.996 130.039 136.730  0.00  0.00    +0.000 C 
ATOM     29  C   UNL     1     108.781 129.989 135.934  0.00  0.00    +0.000 C 
ATOM     30  C   UNL     1     109.249 129.559 135.407  0.00  0.00    +0.000 C 
ATOM     31  C   UNL     1     109.931 129.180 135.675  0.00  0.00    +0.000 C 
BRANCH  27  32
ATOM     32  C   UNL     1     109.892 129.712 137.792  0.00  0.00    +0.000 C 
BRANCH  32  33
ATOM     33  O   UNL     1     110.640 129.990 138.001  0.00  0.00    +0.000 OA
BRANCH  33  39
ATOM     34  O   UNL     1     110.586 129.453 139.369  0.00  0.00    +0.000 OA
ATOM     35  O   UNL     1     112.159 130.740 140.022  0.00  0.00    +0.000 OA
ATOM     36  O   UNL     1     111.939 130.981 138.743  0.00  0.00    +0.000 OA
ATOM     37  C   UNL     1     111.552 130.190 139.920  0.00  0.00    +0.000 C 
ATOM     38  C   UNL     1     111.487 130.408 139.127  0.00  0.00    +0.000 C 
ATOM     39  C   UNL     1     110.890 129.953 138.786  0.00  0.00    +0.000 C 
ATOM     40  C   UNL     1     110.996 129.601 140.069  0.00  0.00    +0.000 C 
BRANCH  37  42
ATOM     41  O   UNL     1     112.123 130.822 141.068  0.00  0.00    +0.000 OA
ATOM     42  C   UNL     1     111.802 130.154 140.706  0.00  0.00    +0.000 C 
ENDBRANCH  37  42
ENDBRANCH  33  39
ENDBRANCH  32  33
ENDBRANCH  27  32
ENDBRANCH   1  31
TORSDOF 8
ENDMDL
MODEL 2
REMARK VINA RESULT:      -9.8      1.873      4.119
REMARK  Name = 44258204
REMARK  8 active torsions:
REMARK  status: ('A' for Active; 'I' for Inactive)
REMARK    1  A    between atoms: O_3  and  C_20
REMARK    2  A    between atoms: O_3  and  C_24
REMARK    3  A    between atoms: O_8  and  C_25
REMARK    4  A    between atoms: O_8  and  C_27
REMARK    5  A    between atoms: O_14  and  C_39
REMARK    6  A    between atoms: C_16  and  C_26
REMARK    7  A    between atoms: C_17  and  C_24
REMARK    8  A    between atoms: C_34  and  C_36
REMARK                            x       y       z     vdW  Elec       q    Type
REMARK                         _______ _______ _______ _____ _____    ______ ____
ROOT
ATOM      1  O   UNL     1     111.627 129.570 139.279  0.00  0.00    +0.000 OA
ENDROOT
BRANCH   1   5
ATOM      2  O   UNL     1     111.187 126.952 138.080  0.00  0.00    +0.000 OA
ATOM      3  O   UNL     1     109.133 128.122 139.743  0.00  0.00    +0.000 OA
ATOM      4  O   UNL     1     108.950 126.828 139.133  0.00  0.00    +0.000 OA
ATOM      5  C   UNL     1     111.148 128.909 139.160  0.00  0.00    +0.000 A 
ATOM      6  C   UNL     1     111.423 128.258 138.670  0.00  0.00    +0.000 A 
ATOM      7  C   UNL     1     110.371 128.866 139.526  0.00  0.00    +0.000 A 
ATOM      8  C   UNL     1     110.918 127.574 138.552  0.00  0.00    +0.000 A 
ATOM      9  C   UNL     1     109.880 128.173 139.396  0.00  0.00    +0.000 A 
ATOM     10  C   UNL     1     110.172 127.532 138.903  0.00  0.00    +0.000 A 
ATOM     11  C   UNL     1     109.696 126.870 138.782  0.00  0.00    +0.000 A 
ATOM     12  C   UNL     1     110.710 126.290 137.960  0.00  0.00    +0.000 A 
ATOM     13  C   UNL     1     109.965 126.249 138.311  0.00  0.00    +0.000 A 
BRANCH  12  15
ATOM     14  O   UNL     1     111.785 123.805 136.073  0.00  0.00    +0.000 OA
ATOM     15  C   UNL     1     110.979 125.668 137.488  0.00  0.00    +0.000 A 
ATOM     16  C   UNL     1     110.818 125.666 136.678  0.00  0.00    +0.000 A 
ATOM     17  C   UNL     1     111.408 125.050 137.826  0.00  0.00    +0.000 A 
ATOM     18  C   UNL     1     111.087 125.045 136.207  0.00  0.00    +0.000 A 
ATOM     19  C   UNL     1     111.677 124.430 137.354  0.00  0.00    +0.000 A 
ATOM     20  C   UNL     1     111.516 124.427 136.544  0.00  0.00    +0.000 A 
BRANCH  18  21
ATOM     21  O   UNL     1     110.926 125.042 135.398  0.00  0.00    +0.000 OA
ATOM     22  C   UNL     1     110.386 125.580 135.082  0.00  0.00    +0.000 C 
ENDBRANCH  18  21
ENDBRANCH  12  15
ENDBRANCH   1   5
BRANCH   1  31
ATOM     23  O   UNL     1     111.097 130.423 138.263  0.00  0.00    +0.000 OA
ATOM     24  O   UNL     1     112.097 131.729 136.828  0.00  0.00    +0.000 OA
ATOM     25  O   UNL     1     113.393 131.102 137.635  0.00  0.00    +0.000 OA
ATOM     26  O   UNL     1     113.158 130.023 138.861  0.00  0.00    +0.000 OA
ATOM     27  C   UNL     1     111.214 130.963 137.649  0.00  0.00    +0.000 C 
ATOM     28  C   UNL     1     111.979 131.189 137.440  0.00  0.00    +0.000 C 
ATOM     29  C   UNL     1     112.627 130.876 137.844  0.00  0.00    +0.000 C 
ATOM     30  C   UNL     1     112.510 130.336 138.458  0.00  0.00    +0.000 C 
ATOM     31  C   UNL     1     111.744 130.109 138.667  0.00  0.00    +0.000 C 
BRANCH  27  32
ATOM     32  C   UNL     1     110.567 131.276 137.246  0.00  0.00    +0.000 C 
BRANCH  32  33
ATOM     33  O   UNL     1     109.903 130.808 137.104  0.00  0.00    +0.000 OA
BRANCH  33  39
ATOM     34  O   UNL     1     109.166 131.909 136.467  0.00  0.00    +0.000 OA
ATOM     35  O   UNL     1     107.489 130.654 136.053  0.00  0.00    +0.000 OA
ATOM     36  O   UNL     1     108.402 129.926 136.667  0.00  0.00    +0.000 OA
ATOM     37  C   UNL     1     108.050 131.253 136.142  0.00  0.00    +0.000 C 
ATOM     38  C   UNL     1     108.558 130.722 136.518  0.00  0.00    +0.000 C 
ATOM     39  C   UNL     1     109.247 131.127 136.719  0.00  0.00    +0.000 C 
ATOM     40  C   UNL     1     108.426 131.986 136.110  0.00  0.00    +0.000 C 
BRANCH  37  42
ATOM     41  O   UNL     1     106.671 131.174 135.777  0.00  0.00    +0.000 OA
ATOM     42  C   UNL     1     107.394 131.572 135.757  0.00  0.00    +0.000 C 
ENDBRANCH  37  42
ENDBRANCH  33  39
ENDBRANCH  32  33
ENDBRANCH  27  32
ENDBRANCH   1  31
TORSDOF 8
ENDMDL
MODEL 3
REMARK VINA RESULT:      -9.7      1.756      2.696
REMARK  Name = 44258204
REMARK  8 active torsions:
REMARK  status: ('A' for Active; 'I' for Inactive)
REMARK    1  A    between atoms: O_3  and  C_20
REMARK    2  A    between atoms: O_3  and  C_24
REMARK    3  A    between atoms: O_8  and  C_25
REMARK    4  A    between atoms: O_8  and  C_27
REMARK    5  A    between atoms: O_14  and  C_39
REMARK    6  A    between atoms: C_16  and  C_26
REMARK    7  A    between atoms: C_17  and  C_24
REMARK    8  A    between atoms: C_34  and  C_36
REMARK                            x       y       z     vdW  Elec       q    Type
REMARK                         _______ _______ _______ _____ _____    ______ ____
ROOT
ATOM      1  O   UNL     1     110.411 130.650 135.758  0.00  0.00    +0.000 OA
ENDROOT
BRANCH   1   5
ATOM      2  O   UNL     1     110.388 127.742 135.927  0.00  0.00    +0.000 OA
ATOM      3  O   UNL     1     107.887 129.181 135.768  0.00  0.00    +0.000 OA
ATOM      4  O   UNL     1     107.914 127.741 135.853  0.00  0.00    +0.000 OA
ATOM      5  C   UNL     1     109.996 129.938 135.787  0.00  0.00    +0.000 A 
ATOM      6  C   UNL     1     110.419 129.192 135.843  0.00  0.00    +0.000 A 
ATOM      7  C   UNL     1     109.136 129.938 135.761  0.00  0.00    +0.000 A 
ATOM      8  C   UNL     1     109.977 128.455 135.873  0.00  0.00    +0.000 A 
ATOM      9  C   UNL     1     108.712 129.191 135.792  0.00  0.00    +0.000 A 
ATOM     10  C   UNL     1     109.153 128.455 135.848  0.00  0.00    +0.000 A 
ATOM     11  C   UNL     1     108.739 127.742 135.877  0.00  0.00    +0.000 A 
ATOM     12  C   UNL     1     109.975 127.029 135.956  0.00  0.00    +0.000 A 
ATOM     13  C   UNL     1     109.151 127.029 135.931  0.00  0.00    +0.000 A 
BRANCH  12  15
ATOM     14  O   UNL     1     111.621 124.177 136.172  0.00  0.00    +0.000 OA
ATOM     15  C   UNL     1     110.387 126.316 136.010  0.00  0.00    +0.000 A 
ATOM     16  C   UNL     1     110.681 126.064 136.738  0.00  0.00    +0.000 A 
ATOM     17  C   UNL     1     110.503 125.855 135.335  0.00  0.00    +0.000 A 
ATOM     18  C   UNL     1     111.093 125.351 136.792  0.00  0.00    +0.000 A 
ATOM     19  C   UNL     1     110.914 125.142 135.390  0.00  0.00    +0.000 A 
ATOM     20  C   UNL     1     111.209 124.890 136.118  0.00  0.00    +0.000 A 
BRANCH  18  21
ATOM     21  O   UNL     1     111.388 125.099 137.520  0.00  0.00    +0.000 OA
ATOM     22  C   UNL     1     111.036 125.358 138.220  0.00  0.00    +0.000 C 
ENDBRANCH  18  21
ENDBRANCH  12  15
ENDBRANCH   1   5
BRANCH   1  31
ATOM     23  O   UNL     1     110.859 130.787 137.108  0.00  0.00    +0.000 OA
ATOM     24  O   UNL     1     110.748 132.477 138.486  0.00  0.00    +0.000 OA
ATOM     25  O   UNL     1     110.021 133.116 137.149  0.00  0.00    +0.000 OA
ATOM     26  O   UNL     1     109.853 132.202 135.786  0.00  0.00    +0.000 OA
ATOM     27  C   UNL     1     110.944 131.244 137.790  0.00  0.00    +0.000 C 
ATOM     28  C   UNL     1     110.664 132.020 137.804  0.00  0.00    +0.000 C 
ATOM     29  C   UNL     1     110.300 132.340 137.136  0.00  0.00    +0.000 C 
ATOM     30  C   UNL     1     110.216 131.882 136.453  0.00  0.00    +0.000 C 
ATOM     31  C   UNL     1     110.496 131.106 136.439  0.00  0.00    +0.000 C 
BRANCH  27  32
ATOM     32  C   UNL     1     111.307 130.924 138.458  0.00  0.00    +0.000 C 
BRANCH  32  33
ATOM     33  O   UNL     1     112.066 130.607 138.403  0.00  0.00    +0.000 OA
BRANCH  33  39
ATOM     34  O   UNL     1     112.005 129.897 139.689  0.00  0.00    +0.000 OA
ATOM     35  O   UNL     1     114.133 129.806 139.831  0.00  0.00    +0.000 OA
ATOM     36  O   UNL     1     113.825 130.427 138.708  0.00  0.00    +0.000 OA
ATOM     37  C   UNL     1     113.313 129.764 139.916  0.00  0.00    +0.000 C 
ATOM     38  C   UNL     1     113.218 130.160 139.199  0.00  0.00    +0.000 C 
ATOM     39  C   UNL     1     112.410 130.243 139.059  0.00  0.00    +0.000 C 
ATOM     40  C   UNL     1     112.564 129.601 140.219  0.00  0.00    +0.000 C 
BRANCH  37  42
ATOM     41  O   UNL     1     114.476 129.424 140.673  0.00  0.00    +0.000 OA
ATOM     42  C   UNL     1     113.658 129.400 140.572  0.00  0.00    +0.000 C 
ENDBRANCH  37  42
ENDBRANCH  33  39
ENDBRANCH  32  33
ENDBRANCH  27  32
ENDBRANCH   1  31
TORSDOF 8
ENDMDL
MODEL 4
REMARK VINA RESULT:      -9.6      2.083      4.900
REMARK  Name = 44258204
REMARK  8 active torsions:
REMARK  status: ('A' for Active; 'I' for Inactive)
REMARK    1  A    between atoms: O_3  and  C_20
REMARK    2  A    between atoms: O_3  and  C_24
REMARK    3  A    between atoms: O_8  and  C_25
REMARK    4  A    between atoms: O_8  and  C_27
REMARK    5  A    between atoms: O_14  and  C_39
REMARK    6  A    between atoms: C_16  and  C_26
REMARK    7  A    between atoms: C_17  and  C_24
REMARK    8  A    between atoms: C_34  and  C_36
REMARK                            x       y       z     vdW  Elec       q    Type
REMARK                         _______ _______ _______ _____ _____    ______ ____
ROOT
ATOM      1  O   UNL     1     112.408 126.517 137.870  0.00  0.00    +0.000 OA
ENDROOT
BRANCH   1   5
ATOM      2  O   UNL     1     111.241 128.649 136.265  0.00  0.00    +0.000 OA
ATOM      3  O   UNL     1     114.073 128.107 136.070  0.00  0.00    +0.000 OA
ATOM      4  O   UNL     1     113.460 129.155 135.291  0.00  0.00    +0.000 OA
ATOM      5  C   UNL     1     112.491 127.123 137.315  0.00  0.00    +0.000 A 
ATOM      6  C   UNL     1     111.806 127.583 137.072  0.00  0.00    +0.000 A 
ATOM      7  C   UNL     1     113.261 127.298 136.977  0.00  0.00    +0.000 A 
ATOM      8  C   UNL     1     111.901 128.211 136.494  0.00  0.00    +0.000 A 
ATOM      9  C   UNL     1     113.337 127.931 136.401  0.00  0.00    +0.000 A 
ATOM     10  C   UNL     1     112.641 128.380 136.170  0.00  0.00    +0.000 A 
ATOM     11  C   UNL     1     112.720 128.986 135.616  0.00  0.00    +0.000 A 
ATOM     12  C   UNL     1     111.320 129.256 135.711  0.00  0.00    +0.000 A 
ATOM     13  C   UNL     1     112.060 129.424 135.386  0.00  0.00    +0.000 A 
BRANCH  12  15
ATOM     14  O   UNL     1     108.679 131.008 134.793  0.00  0.00    +0.000 OA
ATOM     15  C   UNL     1     110.660 129.694 135.481  0.00  0.00    +0.000 A 
ATOM     16  C   UNL     1     110.458 130.380 135.892  0.00  0.00    +0.000 A 
ATOM     17  C   UNL     1     110.202 129.445 134.841  0.00  0.00    +0.000 A 
ATOM     18  C   UNL     1     109.797 130.818 135.662  0.00  0.00    +0.000 A 
ATOM     19  C   UNL     1     109.542 129.883 134.612  0.00  0.00    +0.000 A 
ATOM     20  C   UNL     1     109.339 130.570 135.023  0.00  0.00    +0.000 A 
BRANCH  18  21
ATOM     21  O   UNL     1     109.595 131.505 136.072  0.00  0.00    +0.000 OA
ATOM     22  C   UNL     1     109.634 131.520 136.896  0.00  0.00    +0.000 C 
ENDBRANCH  18  21
ENDBRANCH  12  15
ENDBRANCH   1   5
BRANCH   1  31
ATOM     23  O   UNL     1     112.852 127.277 138.996  0.00  0.00    +0.000 OA
ATOM     24  O   UNL     1     112.218 127.238 141.085  0.00  0.00    +0.000 OA
ATOM     25  O   UNL     1     111.237 126.079 140.439  0.00  0.00    +0.000 OA
ATOM     26  O   UNL     1     111.332 125.719 138.832  0.00  0.00    +0.000 OA
ATOM     27  C   UNL     1     112.805 127.457 139.800  0.00  0.00    +0.000 C 
ATOM     28  C   UNL     1     112.266 127.058 140.281  0.00  0.00    +0.000 C 
ATOM     29  C   UNL     1     111.775 126.478 139.958  0.00  0.00    +0.000 C 
ATOM     30  C   UNL     1     111.823 126.298 139.154  0.00  0.00    +0.000 C 
ATOM     31  C   UNL     1     112.361 126.697 138.673  0.00  0.00    +0.000 C 
BRANCH  27  32
ATOM     32  C   UNL     1     113.295 128.036 140.123  0.00  0.00    +0.000 C 
BRANCH  32  33
ATOM     33  O   UNL     1     113.333 128.784 139.778  0.00  0.00    +0.000 OA
BRANCH  33  39
ATOM     34  O   UNL     1     114.467 129.200 140.615  0.00  0.00    +0.000 OA
ATOM     35  O   UNL     1     114.450 131.173 139.799  0.00  0.00    +0.000 OA
ATOM     36  O   UNL     1     113.484 130.484 139.222  0.00  0.00    +0.000 OA
ATOM     37  C   UNL     1     114.579 130.464 140.202  0.00  0.00    +0.000 C 
ATOM     38  C   UNL     1     113.955 130.115 139.790  0.00  0.00    +0.000 C 
ATOM     39  C   UNL     1     113.886 129.335 140.045  0.00  0.00    +0.000 C 
ATOM     40  C   UNL     1     114.896 129.899 140.712  0.00  0.00    +0.000 C 
BRANCH  37  42
ATOM     41  O   UNL     1     114.898 131.621 140.977  0.00  0.00    +0.000 OA
ATOM     42  C   UNL     1     115.133 131.015 140.469  0.00  0.00    +0.000 C 
ENDBRANCH  37  42
ENDBRANCH  33  39
ENDBRANCH  32  33
ENDBRANCH  27  32
ENDBRANCH   1  31
TORSDOF 8
ENDMDL
MODEL 5
REMARK VINA RESULT:      -9.6      1.924      4.343
REMARK  Name = 44258204
REMARK  8 active torsions:
REMARK  status: ('A' for Active; 'I' for Inactive)
REMARK    1  A    between atoms: O_3  and  C_20
REMARK    2  A    between atoms: O_3  and  C_24
REMARK    3  A    between atoms: O_8  and  C_25
REMARK    4  A    between atoms: O_8  and  C_27
REMARK    5  A    between atoms: O_14  and  C_39
REMARK    6  A    between atoms: C_16  and  C_26
REMARK    7  A    between atoms: C_17  and  C_24
REMARK    8  A    between atoms: C_34  and  C_36
REMARK                            x       y       z     vdW  Elec       q    Type
REMARK                         _______ _______ _______ _____ _____    ______ ____
ROOT
ATOM      1  O   UNL     1     110.552 129.551 135.193  0.00  0.00    +0.000 OA
ENDROOT
BRANCH   1   5
ATOM      2  O   UNL     1     112.563 129.701 137.295  0.00  0.00    +0.000 OA
ATOM      3  O   UNL     1     113.354 128.963 134.615  0.00  0.00    +0.000 OA
ATOM      4  O   UNL     1     114.323 129.047 135.681  0.00  0.00    +0.000 OA
ATOM      5  C   UNL     1     111.336 129.480 135.440  0.00  0.00    +0.000 A 
ATOM      6  C   UNL     1     111.547 129.631 136.259  0.00  0.00    +0.000 A 
ATOM      7  C   UNL     1     111.947 129.253 134.879  0.00  0.00    +0.000 A 
ATOM      8  C   UNL     1     112.366 129.554 136.507  0.00  0.00    +0.000 A 
ATOM      9  C   UNL     1     112.761 129.180 135.146  0.00  0.00    +0.000 A 
ATOM     10  C   UNL     1     112.952 129.336 135.969  0.00  0.00    +0.000 A 
ATOM     11  C   UNL     1     113.735 129.265 136.219  0.00  0.00    +0.000 A 
ATOM     12  C   UNL     1     113.346 129.630 137.545  0.00  0.00    +0.000 A 
ATOM     13  C   UNL     1     113.932 129.412 137.007  0.00  0.00    +0.000 A 
BRANCH  12  15
ATOM     14  O   UNL     1     114.132 130.216 140.695  0.00  0.00    +0.000 OA
ATOM     15  C   UNL     1     113.543 129.776 138.333  0.00  0.00    +0.000 A 
ATOM     16  C   UNL     1     113.347 129.226 138.916  0.00  0.00    +0.000 A 
ATOM     17  C   UNL     1     113.935 130.473 138.537  0.00  0.00    +0.000 A 
ATOM     18  C   UNL     1     113.544 129.372 139.703  0.00  0.00    +0.000 A 
ATOM     19  C   UNL     1     114.131 130.619 139.324  0.00  0.00    +0.000 A 
ATOM     20  C   UNL     1     113.936 130.069 139.908  0.00  0.00    +0.000 A 
BRANCH  18  21
ATOM     21  O   UNL     1     113.348 128.823 140.286  0.00  0.00    +0.000 OA
ATOM     22  C   UNL     1     113.475 128.018 140.154  0.00  0.00    +0.000 C 
ENDBRANCH  18  21
ENDBRANCH  12  15
ENDBRANCH   1   5
BRANCH   1  31
ATOM     23  O   UNL     1     110.227 128.192 135.489  0.00  0.00    +0.000 OA
ATOM     24  O   UNL     1     108.334 127.266 136.057  0.00  0.00    +0.000 OA
ATOM     25  O   UNL     1     107.874 128.842 135.895  0.00  0.00    +0.000 OA
ATOM     26  O   UNL     1     108.983 129.985 135.464  0.00  0.00    +0.000 OA
ATOM     27  C   UNL     1     109.673 127.620 135.705  0.00  0.00    +0.000 C 
ATOM     28  C   UNL     1     108.889 127.837 135.841  0.00  0.00    +0.000 C 
ATOM     29  C   UNL     1     108.658 128.625 135.760  0.00  0.00    +0.000 C 
ATOM     30  C   UNL     1     109.214 129.197 135.544  0.00  0.00    +0.000 C 
ATOM     31  C   UNL     1     109.998 128.980 135.408  0.00  0.00    +0.000 C 
BRANCH  27  32
ATOM     32  C   UNL     1     109.903 126.832 135.786  0.00  0.00    +0.000 C 
BRANCH  32  33
ATOM     33  O   UNL     1     110.522 126.633 136.292  0.00  0.00    +0.000 OA
BRANCH  33  39
ATOM     34  O   UNL     1     110.672 125.289 135.713  0.00  0.00    +0.000 OA
ATOM     35  O   UNL     1     112.113 124.728 137.184  0.00  0.00    +0.000 OA
ATOM     36  O   UNL     1     111.742 125.970 137.430  0.00  0.00    +0.000 OA
ATOM     37  C   UNL     1     111.579 124.797 136.559  0.00  0.00    +0.000 C 
ATOM     38  C   UNL     1     111.409 125.571 136.789  0.00  0.00    +0.000 C 
ATOM     39  C   UNL     1     110.849 125.875 136.267  0.00  0.00    +0.000 C 
ATOM     40  C   UNL     1     111.123 124.623 135.894  0.00  0.00    +0.000 C 
BRANCH  37  42
ATOM     41  O   UNL     1     111.861 123.550 137.196  0.00  0.00    +0.000 OA
ATOM     42  C   UNL     1     111.905 124.040 136.534  0.00  0.00    +0.000 C 
ENDBRANCH  37  42
ENDBRANCH  33  39
ENDBRANCH  32  33
ENDBRANCH  27  32
ENDBRANCH   1  31
TORSDOF 8
ENDMDL
MODEL 6
REMARK VINA RESULT:      -9.6      1.719      4.998
REMARK  Name = 44258204
REMARK  8 active torsions:
REMARK  status: ('A' for Active; 'I' for Inactive)
REMARK    1  A    between atoms: O_3  and  C_20
REMARK    2  A    between atoms: O_3  and  C_24
REMARK    3  A    between atoms: O_8  and  C_25
REMARK    4  A    between atoms: O_8  and  C_27
REMARK    5  A    between atoms: O_14  and  C_39
REMARK    6  A    between atoms: C_16  and  C_26
REMARK    7  A    between atoms: C_17  and  C_24
REMARK    8  A    between atoms: C_34  and  C_36
REMARK                            x       y       z     vdW  Elec       q    Type
REMARK                         _______ _______ _______ _____ _____    ______ ____
ROOT
ATOM      1  O   UNL     1     110.895 127.509 135.508  0.00  0.00    +0.000 OA
ENDROOT
BRANCH   1   5
ATOM      2  O   UNL     1     110.132 130.092 136.619  0.00  0.00    +0.000 OA
ATOM      3  O   UNL     1     108.091 128.327 135.582  0.00  0.00    +0.000 OA
ATOM      4  O   UNL     1     107.751 129.614 136.140  0.00  0.00    +0.000 OA
ATOM      5  C   UNL     1     110.313 128.062 135.701  0.00  0.00    +0.000 A 
ATOM      6  C   UNL     1     110.530 128.808 136.069  0.00  0.00    +0.000 A 
ATOM      7  C   UNL     1     109.486 127.896 135.534  0.00  0.00    +0.000 A 
ATOM      8  C   UNL     1     109.918 129.378 136.266  0.00  0.00    +0.000 A 
ATOM      9  C   UNL     1     108.888 128.478 135.738  0.00  0.00    +0.000 A 
ATOM     10  C   UNL     1     109.124 129.218 136.106  0.00  0.00    +0.000 A 
ATOM     11  C   UNL     1     108.545 129.773 136.299  0.00  0.00    +0.000 A 
ATOM     12  C   UNL     1     109.553 130.646 136.813  0.00  0.00    +0.000 A 
ATOM     13  C   UNL     1     108.759 130.487 136.653  0.00  0.00    +0.000 A 
BRANCH  12  15
ATOM     14  O   UNL     1     110.409 133.502 138.227  0.00  0.00    +0.000 OA
ATOM     15  C   UNL     1     109.767 131.361 137.166  0.00  0.00    +0.000 A 
ATOM     16  C   UNL     1     109.821 131.413 137.988  0.00  0.00    +0.000 A 
ATOM     17  C   UNL     1     109.926 132.021 136.698  0.00  0.00    +0.000 A 
ATOM     18  C   UNL     1     110.035 132.128 138.341  0.00  0.00    +0.000 A 
ATOM     19  C   UNL     1     110.140 132.734 137.052  0.00  0.00    +0.000 A 
ATOM     20  C   UNL     1     110.195 132.788 137.873  0.00  0.00    +0.000 A 
BRANCH  18  21
ATOM     21  O   UNL     1     110.090 132.181 139.163  0.00  0.00    +0.000 OA
ATOM     22  C   UNL     1     110.176 131.497 139.616  0.00  0.00    +0.000 C 
ENDBRANCH  18  21
ENDBRANCH  12  15
ENDBRANCH   1   5
BRANCH   1  31
ATOM     23  O   UNL     1     111.076 126.858 136.767  0.00  0.00    +0.000 OA
ATOM     24  O   UNL     1     111.185 124.738 137.276  0.00  0.00    +0.000 OA
ATOM     25  O   UNL     1     110.969 124.655 135.642  0.00  0.00    +0.000 OA
ATOM     26  O   UNL     1     110.823 126.041 134.758  0.00  0.00    +0.000 OA
ATOM     27  C   UNL     1     111.149 126.165 137.210  0.00  0.00    +0.000 C 
ATOM     28  C   UNL     1     111.113 125.431 136.835  0.00  0.00    +0.000 C 
ATOM     29  C   UNL     1     111.004 125.389 136.017  0.00  0.00    +0.000 C 
ATOM     30  C   UNL     1     110.932 126.083 135.575  0.00  0.00    +0.000 C 
ATOM     31  C   UNL     1     110.967 126.817 135.950  0.00  0.00    +0.000 C 
BRANCH  27  32
ATOM     32  C   UNL     1     111.257 126.206 138.026  0.00  0.00    +0.000 C 
BRANCH  32  33
ATOM     33  O   UNL     1     111.902 126.615 138.336  0.00  0.00    +0.000 OA
BRANCH  33  39
ATOM     34  O   UNL     1     111.391 126.654 139.715  0.00  0.00    +0.000 OA
ATOM     35  O   UNL     1     113.353 126.906 140.520  0.00  0.00    +0.000 OA
ATOM     36  O   UNL     1     113.457 126.830 139.206  0.00  0.00    +0.000 OA
ATOM     37  C   UNL     1     112.548 126.814 140.361  0.00  0.00    +0.000 C 
ATOM     38  C   UNL     1     112.710 126.777 139.553  0.00  0.00    +0.000 C 
ATOM     39  C   UNL     1     111.996 126.678 139.154  0.00  0.00    +0.000 C 
ATOM     40  C   UNL     1     111.733 126.738 140.461  0.00  0.00    +0.000 C 
BRANCH  37  42
ATOM     41  O   UNL     1     112.885 127.592 141.511  0.00  0.00    +0.000 OA
ATOM     42  C   UNL     1     112.642 126.877 141.178  0.00  0.00    +0.000 C 
ENDBRANCH  37  42
ENDBRANCH  33  39
ENDBRANCH  32  33
ENDBRANCH  27  32
ENDBRANCH   1  31
TORSDOF 8
ENDMDL
MODEL 7
REMARK VINA RESULT:      -9.6      2.002      2.890
REMARK  Name = 44258204
REMARK  8 active torsions:
REMARK  status: ('A' for Active; 'I' for Inactive)
REMARK    1  A    between atoms: O_3  and  C_20
REMARK    2  A    between atoms: O_3  and  C_24
REMARK    3  A    between atoms: O_8  and  C_25
REMARK    4  A    between atoms: O_8  and  C_27
REMARK    5  A    between atoms: O_14  and  C_39
REMARK    6  A    between atoms: C_16  and  C_26
REMARK    7  A    between atoms: C_17  and  C_24
REMARK    8  A    between atoms: C_34  and  C_36
REMARK                            x       y       z     vdW  Elec       q    Type
REMARK                         _______ _______ _______ _____ _____    ______ ____
ROOT
ATOM      1  O   UNL     1     109.360 128.497 137.318  0.00  0.00    +0.000 OA
ENDROOT
BRANCH   1   5
ATOM      2  O   UNL     1     110.969 126.136 136.752  0.00  0.00    +0.000 OA
ATOM      3  O   UNL     1     108.753 126.800 135.019  0.00  0.00    +0.000 OA
ATOM      4  O   UNL     1     109.572 125.639 134.770  0.00  0.00    +0.000 OA
ATOM      5  C   UNL     1     109.522 127.837 136.851  0.00  0.00    +0.000 A 
ATOM      6  C   UNL     1     110.177 127.317 137.049  0.00  0.00    +0.000 A 
ATOM      7  C   UNL     1     109.037 127.664 136.162  0.00  0.00    +0.000 A 
ATOM      8  C   UNL     1     110.339 126.631 136.557  0.00  0.00    +0.000 A 
ATOM      9  C   UNL     1     109.213 126.974 135.682  0.00  0.00    +0.000 A 
ATOM     10  C   UNL     1     109.873 126.466 135.896  0.00  0.00    +0.000 A 
ATOM     11  C   UNL     1     110.038 125.805 135.431  0.00  0.00    +0.000 A 
ATOM     12  C   UNL     1     111.133 125.475 136.286  0.00  0.00    +0.000 A 
ATOM     13  C   UNL     1     110.668 125.309 135.626  0.00  0.00    +0.000 A 
BRANCH  12  15
ATOM     14  O   UNL     1     113.654 123.494 137.067  0.00  0.00    +0.000 OA
ATOM     15  C   UNL     1     111.763 124.979 136.482  0.00  0.00    +0.000 A 
ATOM     16  C   UNL     1     112.538 125.215 136.321  0.00  0.00    +0.000 A 
ATOM     17  C   UNL     1     111.619 124.249 136.838  0.00  0.00    +0.000 A 
ATOM     18  C   UNL     1     113.168 124.719 136.516  0.00  0.00    +0.000 A 
ATOM     19  C   UNL     1     112.250 123.754 137.032  0.00  0.00    +0.000 A 
ATOM     20  C   UNL     1     113.024 123.989 136.872  0.00  0.00    +0.000 A 
BRANCH  18  21
ATOM     21  O   UNL     1     113.943 124.954 136.355  0.00  0.00    +0.000 OA
ATOM     22  C   UNL     1     114.206 125.698 136.595  0.00  0.00    +0.000 C 
ENDBRANCH  18  21
ENDBRANCH  12  15
ENDBRANCH   1   5
BRANCH   1  31
ATOM     23  O   UNL     1     110.347 129.303 136.671  0.00  0.00    +0.000 OA
ATOM     24  O   UNL     1     110.489 131.467 136.426  0.00  0.00    +0.000 OA
ATOM     25  O   UNL     1     109.079 131.341 137.275  0.00  0.00    +0.000 OA
ATOM     26  O   UNL     1     108.515 129.856 137.721  0.00  0.00    +0.000 OA
ATOM     27  C   UNL     1     110.630 130.045 136.448  0.00  0.00    +0.000 C 
ATOM     28  C   UNL     1     110.207 130.724 136.649  0.00  0.00    +0.000 C 
ATOM     29  C   UNL     1     109.502 130.661 137.073  0.00  0.00    +0.000 C 
ATOM     30  C   UNL     1     109.219 129.918 137.297  0.00  0.00    +0.000 C 
ATOM     31  C   UNL     1     109.642 129.239 137.095  0.00  0.00    +0.000 C 
BRANCH  27  32
ATOM     32  C   UNL     1     111.334 130.108 136.024  0.00  0.00    +0.000 C 
BRANCH  32  33
ATOM     33  O   UNL     1     112.018 129.745 136.304  0.00  0.00    +0.000 OA
BRANCH  33  39
ATOM     34  O   UNL     1     112.619 129.488 134.987  0.00  0.00    +0.000 OA
ATOM     35  O   UNL     1     114.597 129.535 135.790  0.00  0.00    +0.000 OA
ATOM     36  O   UNL     1     113.749 129.747 136.780  0.00  0.00    +0.000 OA
ATOM     37  C   UNL     1     113.906 129.489 135.341  0.00  0.00    +0.000 C 
ATOM     38  C   UNL     1     113.455 129.628 136.018  0.00  0.00    +0.000 C 
ATOM     39  C   UNL     1     112.661 129.627 135.800  0.00  0.00    +0.000 C 
ATOM     40  C   UNL     1     113.389 129.403 134.704  0.00  0.00    +0.000 C 
BRANCH  37  42
ATOM     41  O   UNL     1     115.012 128.693 134.911  0.00  0.00    +0.000 OA
ATOM     42  C   UNL     1     114.548 129.372 134.836  0.00  0.00    +0.000 C 
ENDBRANCH  37  42
ENDBRANCH  33  39
ENDBRANCH  32  33
ENDBRANCH  27  32
ENDBRANCH   1  31
TORSDOF 8
ENDMDL
MODEL 8
REMARK VINA RESULT:      -9.6      1.788      5.112
REMARK  Name = 44258204
REMARK  8 active torsions:
REMARK  status: ('A' for Active; 'I' for Inactive)
REMARK    1  A    between atoms: O_3  and  C_20
REMARK    2  A    between atoms: O_3  and  C_24
REMARK    3  A    between atoms: O_8  and  C_25
REMARK    4  A    between atoms: O_8  and  C_27
REMARK    5  A    between atoms: O_14  and  C_39
REMARK    6  A    between atoms: C_16  and  C_26
REMARK    7  A    between atoms: C_17  and  C_24
REMARK    8  A    between atoms: C_34  and  C_36
REMARK                            x       y       z     vdW  Elec       q    Type
REMARK                         _______ _______ _______ _____ _____    ______ ____
ROOT
ATOM      1  O   UNL     1     112.940 125.523 137.731  0.00  0.00    +0.000 OA
ENDROOT
BRANCH   1   5
ATOM      2  O   UNL     1     113.439 127.976 139.220  0.00  0.00    +0.000 OA
ATOM      3  O   UNL     1     111.415 126.133 140.146  0.00  0.00    +0.000 OA
ATOM      4  O   UNL     1     111.689 127.358 140.858  0.00  0.00    +0.000 OA
ATOM      5  C   UNL     1     112.772 126.021 138.367  0.00  0.00    +0.000 A 
ATOM      6  C   UNL     1     113.204 126.758 138.465  0.00  0.00    +0.000 A 
ATOM      7  C   UNL     1     112.165 125.806 138.936  0.00  0.00    +0.000 A 
ATOM      8  C   UNL     1     113.022 127.270 139.131  0.00  0.00    +0.000 A 
ATOM      9  C   UNL     1     111.997 126.331 139.595  0.00  0.00    +0.000 A 
ATOM     10  C   UNL     1     112.439 127.064 139.676  0.00  0.00    +0.000 A 
ATOM     11  C   UNL     1     112.273 127.564 140.311  0.00  0.00    +0.000 A 
ATOM     12  C   UNL     1     113.273 128.476 139.855  0.00  0.00    +0.000 A 
ATOM     13  C   UNL     1     112.690 128.270 140.401  0.00  0.00    +0.000 A 
BRANCH  12  15
ATOM     14  O   UNL     1     114.942 131.301 140.211  0.00  0.00    +0.000 OA
ATOM     15  C   UNL     1     113.691 129.182 139.944  0.00  0.00    +0.000 A 
ATOM     16  C   UNL     1     113.686 129.743 139.338  0.00  0.00    +0.000 A 
ATOM     17  C   UNL     1     114.112 129.328 140.638  0.00  0.00    +0.000 A 
ATOM     18  C   UNL     1     114.103 130.449 139.428  0.00  0.00    +0.000 A 
ATOM     19  C   UNL     1     114.529 130.033 140.727  0.00  0.00    +0.000 A 
ATOM     20  C   UNL     1     114.525 130.595 140.122  0.00  0.00    +0.000 A 
BRANCH  18  21
ATOM     21  O   UNL     1     114.098 131.010 138.823  0.00  0.00    +0.000 OA
ATOM     22  C   UNL     1     113.740 130.836 138.101  0.00  0.00    +0.000 C 
ENDBRANCH  18  21
ENDBRANCH  12  15
ENDBRANCH   1   5
BRANCH   1  31
ATOM     23  O   UNL     1     111.916 126.010 136.862  0.00  0.00    +0.000 OA
ATOM     24  O   UNL     1     110.651 124.969 135.420  0.00  0.00    +0.000 OA
ATOM     25  O   UNL     1     111.555 123.718 136.002  0.00  0.00    +0.000 OA
ATOM     26  O   UNL     1     112.700 123.995 137.157  0.00  0.00    +0.000 OA
ATOM     27  C   UNL     1     111.343 125.872 136.284  0.00  0.00    +0.000 C 
ATOM     28  C   UNL     1     111.223 125.108 135.997  0.00  0.00    +0.000 C 
ATOM     29  C   UNL     1     111.676 124.482 136.288  0.00  0.00    +0.000 C 
ATOM     30  C   UNL     1     112.248 124.621 136.867  0.00  0.00    +0.000 C 
ATOM     31  C   UNL     1     112.368 125.385 137.154  0.00  0.00    +0.000 C 
BRANCH  27  32
ATOM     32  C   UNL     1     110.891 126.497 135.993  0.00  0.00    +0.000 C 
BRANCH  32  33
ATOM     33  O   UNL     1     110.461 126.972 136.512  0.00  0.00    +0.000 OA
BRANCH  33  39
ATOM     34  O   UNL     1     110.055 127.906 135.452  0.00  0.00    +0.000 OA
ATOM     35  O   UNL     1     108.771 128.979 136.777  0.00  0.00    +0.000 OA
ATOM     36  O   UNL     1     109.335 128.000 137.459  0.00  0.00    +0.000 OA
ATOM     37  C   UNL     1     109.218 128.670 136.156  0.00  0.00    +0.000 C 
ATOM     38  C   UNL     1     109.519 128.091 136.660  0.00  0.00    +0.000 C 
ATOM     39  C   UNL     1     110.036 127.618 136.225  0.00  0.00    +0.000 C 
ATOM     40  C   UNL     1     109.549 128.556 135.410  0.00  0.00    +0.000 C 
BRANCH  37  42
ATOM     41  O   UNL     1     107.968 129.307 135.884  0.00  0.00    +0.000 OA
ATOM     42  C   UNL     1     108.793 129.317 135.869  0.00  0.00    +0.000 C 
ENDBRANCH  37  42
ENDBRANCH  33  39
ENDBRANCH  32  33
ENDBRANCH  27  32
ENDBRANCH   1  31
TORSDOF 8
ENDMDL
MODEL 9
REMARK VINA RESULT:      -9.6      1.843      2.965
REMARK  Name = 44258204
REMARK  8 active torsions:
REMARK  status: ('A' for Active; 'I' for Inactive)
REMARK    1  A    between atoms: O_3  and  C_20
REMARK    2  A    between atoms: O_3  and  C_24
REMARK    3  A    between atoms: O_8  and  C_25
REMARK    4  A    between atoms: O_8  and  C_27
REMARK    5  A    between atoms: O_14  and  C_39
REMARK    6  A    between atoms: C_16  and  C_26
REMARK    7  A    between atoms: C_17  and  C_24
REMARK    8  A    between atoms: C_34  and  C_36
REMARK                            x       y       z     vdW  Elec       q    Type
REMARK                         _______ _______ _______ _____ _____    ______ ____
ROOT
ATOM      1  O   UNL     1     112.598 129.663 135.409  0.00  0.00    +0.000 OA
ENDROOT
BRANCH   1   5
ATOM      2  O   UNL     1     111.738 126.947 136.015  0.00  0.00    +0.000 OA
ATOM      3  O   UNL     1     109.947 128.731 134.615  0.00  0.00    +0.000 OA
ATOM      4  O   UNL     1     109.555 127.379 134.931  0.00  0.00    +0.000 OA
ATOM      5  C   UNL     1     112.026 129.070 135.378  0.00  0.00    +0.000 A 
ATOM      6  C   UNL     1     112.183 128.297 135.721  0.00  0.00    +0.000 A 
ATOM      7  C   UNL     1     111.267 129.220 135.002  0.00  0.00    +0.000 A 
ATOM      8  C   UNL     1     111.581 127.686 135.683  0.00  0.00    +0.000 A 
ATOM      9  C   UNL     1     110.677 128.596 134.974  0.00  0.00    +0.000 A 
ATOM     10  C   UNL     1     110.854 127.830 135.322  0.00  0.00    +0.000 A 
ATOM     11  C   UNL     1     110.283 127.235 135.292  0.00  0.00    +0.000 A 
ATOM     12  C   UNL     1     111.168 126.352 135.984  0.00  0.00    +0.000 A 
ATOM     13  C   UNL     1     110.440 126.496 135.623  0.00  0.00    +0.000 A 
BRANCH  12  15
ATOM     14  O   UNL     1     111.795 123.395 137.309  0.00  0.00    +0.000 OA
ATOM     15  C   UNL     1     111.324 125.612 136.316  0.00  0.00    +0.000 A 
ATOM     16  C   UNL     1     111.292 125.512 137.134  0.00  0.00    +0.000 A 
ATOM     17  C   UNL     1     111.514 124.974 135.828  0.00  0.00    +0.000 A 
ATOM     18  C   UNL     1     111.449 124.773 137.465  0.00  0.00    +0.000 A 
ATOM     19  C   UNL     1     111.671 124.235 136.160  0.00  0.00    +0.000 A 
ATOM     20  C   UNL     1     111.638 124.135 136.978  0.00  0.00    +0.000 A 
BRANCH  18  21
ATOM     21  O   UNL     1     111.416 124.672 138.283  0.00  0.00    +0.000 OA
ATOM     22  C   UNL     1     111.021 125.224 138.752  0.00  0.00    +0.000 C 
ENDBRANCH  18  21
ENDBRANCH  12  15
ENDBRANCH   1   5
BRANCH   1  31
ATOM     23  O   UNL     1     112.208 130.221 136.666  0.00  0.00    +0.000 OA
ATOM     24  O   UNL     1     113.404 131.027 138.305  0.00  0.00    +0.000 OA
ATOM     25  O   UNL     1     114.587 130.592 137.239  0.00  0.00    +0.000 OA
ATOM     26  O   UNL     1     114.184 129.911 135.792  0.00  0.00    +0.000 OA
ATOM     27  C   UNL     1     112.409 130.562 137.390  0.00  0.00    +0.000 C 
ATOM     28  C   UNL     1     113.202 130.686 137.581  0.00  0.00    +0.000 C 
ATOM     29  C   UNL     1     113.794 130.469 137.048  0.00  0.00    +0.000 C 
ATOM     30  C   UNL     1     113.592 130.127 136.324  0.00  0.00    +0.000 C 
ATOM     31  C   UNL     1     112.799 130.004 136.133  0.00  0.00    +0.000 C 
BRANCH  27  32
ATOM     32  C   UNL     1     111.818 130.779 137.922  0.00  0.00    +0.000 C 
BRANCH  32  33
ATOM     33  O   UNL     1     111.108 130.360 137.944  0.00  0.00    +0.000 OA
BRANCH  33  39
ATOM     34  O   UNL     1     110.544 131.215 138.998  0.00  0.00    +0.000 OA
ATOM     35  O   UNL     1     108.783 130.016 139.140  0.00  0.00    +0.000 OA
ATOM     36  O   UNL     1     109.563 129.488 138.215  0.00  0.00    +0.000 OA
ATOM     37  C   UNL     1     109.395 130.567 139.200  0.00  0.00    +0.000 C 
ATOM     38  C   UNL     1     109.812 130.168 138.610  0.00  0.00    +0.000 C 
ATOM     39  C   UNL     1     110.522 130.568 138.486  0.00  0.00    +0.000 C 
ATOM     40  C   UNL     1     109.847 131.213 139.439  0.00  0.00    +0.000 C 
BRANCH  37  42
ATOM     41  O   UNL     1     108.147 130.292 139.839  0.00  0.00    +0.000 OA
ATOM     42  C   UNL     1     108.808 130.775 139.742  0.00  0.00    +0.000 C 
ENDBRANCH  37  42
ENDBRANCH  33  39
ENDBRANCH  32  33
ENDBRANCH  27  32
ENDBRANCH   1  31
TORSDOF 8
ENDMDL
MODEL 10
REMARK VINA RESULT:      -9.6      1.855      3.203
REMARK  Name = 44258204
REMARK  8 active torsions:
REMARK  status: ('A' for Active; 'I' for Inactive)
REMARK    1  A    between atoms: O_3  and  C_20
REMARK    2  A    between atoms: O_3  and  C_24
REMARK    3  A    between atoms: O_8  and  C_25
REMARK    4  A    between atoms: O_8  and  C_27
REMARK    5  A    between atoms: O_14  and  C_39
REMARK    6  A    between atoms: C_16  and  C_26
REMARK    7  A    between atoms: C_17  and  C_24
REMARK    8  A    between atoms: C_34  and  C_36
REMARK                            x       y       z     vdW  Elec       q    Type
REMARK                         _______ _______ _______ _____ _____    ______ ____
ROOT
ATOM      1  O   UNL     1     110.374 130.865 136.710  0.00  0.00    +0.000 OA
ENDROOT
BRANCH   1   5
ATOM      2  O   UNL     1     110.277 127.991 136.242  0.00  0.00    +0.000 OA
ATOM      3  O   UNL     1     107.873 129.567 135.939  0.00  0.00    +0.000 OA
ATOM      4  O   UNL     1     107.863 128.142 135.715  0.00  0.00    +0.000 OA
ATOM      5  C   UNL     1     109.950 130.187 136.508  0.00  0.00    +0.000 A 
ATOM      6  C   UNL     1     110.344 129.423 136.479  0.00  0.00    +0.000 A 
ATOM      7  C   UNL     1     109.111 130.239 136.326  0.00  0.00    +0.000 A 
ATOM      8  C   UNL     1     109.894 128.722 136.268  0.00  0.00    +0.000 A 
ATOM      9  C   UNL     1     108.678 129.527 136.116  0.00  0.00    +0.000 A 
ATOM     10  C   UNL     1     109.089 128.772 136.093  0.00  0.00    +0.000 A 
ATOM     11  C   UNL     1     108.668 128.092 135.891  0.00  0.00    +0.000 A 
ATOM     12  C   UNL     1     109.855 127.312 136.040  0.00  0.00    +0.000 A 
ATOM     13  C   UNL     1     109.051 127.362 135.865  0.00  0.00    +0.000 A 
BRANCH  12  15
ATOM     14  O   UNL     1     111.387 124.391 135.936  0.00  0.00    +0.000 OA
ATOM     15  C   UNL     1     110.238 126.581 136.014  0.00  0.00    +0.000 A 
ATOM     16  C   UNL     1     110.540 126.249 136.707  0.00  0.00    +0.000 A 
ATOM     17  C   UNL     1     110.319 126.184 135.296  0.00  0.00    +0.000 A 
ATOM     18  C   UNL     1     110.923 125.519 136.681  0.00  0.00    +0.000 A 
ATOM     19  C   UNL     1     110.702 125.454 135.270  0.00  0.00    +0.000 A 
ATOM     20  C   UNL     1     111.004 125.121 135.962  0.00  0.00    +0.000 A 
BRANCH  18  21
ATOM     21  O   UNL     1     111.224 125.186 137.373  0.00  0.00    +0.000 OA
ATOM     22  C   UNL     1     110.898 125.387 138.103  0.00  0.00    +0.000 C 
ENDBRANCH  18  21
ENDBRANCH  12  15
ENDBRANCH   1   5
BRANCH   1  31
ATOM     23  O   UNL     1     110.340 130.671 138.126  0.00  0.00    +0.000 OA
ATOM     24  O   UNL     1     110.148 132.105 139.760  0.00  0.00    +0.000 OA
ATOM     25  O   UNL     1     110.103 133.113 138.454  0.00  0.00    +0.000 OA
ATOM     26  O   UNL     1     110.216 132.493 136.929  0.00  0.00    +0.000 OA
ATOM     27  C   UNL     1     110.283 130.981 138.889  0.00  0.00    +0.000 C 
ATOM     28  C   UNL     1     110.204 131.795 138.998  0.00  0.00    +0.000 C 
ATOM     29  C   UNL     1     110.182 132.299 138.345  0.00  0.00    +0.000 C 
ATOM     30  C   UNL     1     110.239 131.988 137.582  0.00  0.00    +0.000 C 
ATOM     31  C   UNL     1     110.318 131.175 137.472  0.00  0.00    +0.000 C 
BRANCH  27  32
ATOM     32  C   UNL     1     110.306 130.478 139.541  0.00  0.00    +0.000 C 
BRANCH  32  33
ATOM     33  O   UNL     1     109.881 129.771 139.532  0.00  0.00    +0.000 OA
BRANCH  33  39
ATOM     34  O   UNL     1     110.471 129.309 140.797  0.00  0.00    +0.000 OA
ATOM     35  O   UNL     1     109.422 127.452 140.701  0.00  0.00    +0.000 OA
ATOM     36  O   UNL     1     109.095 128.161 139.637  0.00  0.00    +0.000 OA
ATOM     37  C   UNL     1     109.887 128.112 140.875  0.00  0.00    +0.000 C 
ATOM     38  C   UNL     1     109.625 128.479 140.184  0.00  0.00    +0.000 C 
ATOM     39  C   UNL     1     109.986 129.218 140.136  0.00  0.00    +0.000 C 
ATOM     40  C   UNL     1     110.409 128.625 141.253  0.00  0.00    +0.000 C 
BRANCH  37  42
ATOM     41  O   UNL     1     110.044 126.756 141.296  0.00  0.00    +0.000 OA
ATOM     42  C   UNL     1     109.991 127.559 141.478  0.00  0.00    +0.000 C 
ENDBRANCH  37  42
ENDBRANCH  33  39
ENDBRANCH  32  33
ENDBRANCH  27  32
ENDBRANCH   1  31
TORSDOF 8
ENDMDL
