MODEL 1
REMARK VINA RESULT:     -11.0      0.000      0.000
REMARK  Name = 5465152
REMARK  9 active torsions:
REMARK  status: ('A' for Active; 'I' for Inactive)
REMARK    1  A    between atoms: O_1  and  C_20
REMARK    2  A    between atoms: O_1  and  C_25
REMARK    3  A    between atoms: O_4  and  C_29
REMARK    4  A    between atoms: O_4  and  C_30
REMARK    5  A    between atoms: O_6  and  C_27
REMARK    6  A    between atoms: O_6  and  C_37
REMARK    7  A    between atoms: C_23  and  C_29
REMARK    8  A    between atoms: C_24  and  C_32
REMARK    9  A    between atoms: C_38  and  C_41
REMARK                            x       y       z     vdW  Elec       q    Type
REMARK                         _______ _______ _______ _____ _____    ______ ____
ROOT
ATOM      1  O   UNL     1     112.422 128.117 138.163  0.00  0.00    +0.000 OA
ATOM      2  O   UNL     1     112.794 128.024 140.608  0.00  0.00    +0.000 OA
ATOM      3  O   UNL     1     112.732 126.628 139.729  0.00  0.00    +0.000 OA
ATOM      4  C   UNL     1     112.577 128.784 139.418  0.00  0.00    +0.000 C 
ATOM      5  C   UNL     1     112.670 128.055 139.793  0.00  0.00    +0.000 C 
ATOM      6  C   UNL     1     112.639 127.358 139.354  0.00  0.00    +0.000 C 
ATOM      7  C   UNL     1     112.515 127.389 138.539  0.00  0.00    +0.000 C 
ATOM      8  C   UNL     1     112.453 128.815 138.603  0.00  0.00    +0.000 C 
ENDROOT
BRANCH   4   9
ATOM      9  O   UNL     1     112.608 129.481 139.857  0.00  0.00    +0.000 OA
BRANCH   9  14
ATOM     10  O   UNL     1     114.078 129.474 139.910  0.00  0.00    +0.000 OA
ATOM     11  O   UNL     1     114.123 131.227 141.127  0.00  0.00    +0.000 OA
ATOM     12  O   UNL     1     112.860 130.937 140.876  0.00  0.00    +0.000 OA
ATOM     13  C   UNL     1     114.265 130.557 140.668  0.00  0.00    +0.000 C 
ATOM     14  C   UNL     1     113.337 129.785 140.096  0.00  0.00    +0.000 C 
ATOM     15  C   UNL     1     113.452 130.455 140.565  0.00  0.00    +0.000 C 
ATOM     16  C   UNL     1     114.651 129.950 140.263  0.00  0.00    +0.000 C 
BRANCH  13  18
ATOM     17  O   UNL     1     115.110 131.676 140.936  0.00  0.00    +0.000 OA
ATOM     18  C   UNL     1     114.993 130.861 140.908  0.00  0.00    +0.000 C 
ENDBRANCH  13  18
ENDBRANCH   9  14
ENDBRANCH   4   9
BRANCH   8  19
ATOM     19  O   UNL     1     112.360 129.543 138.227  0.00  0.00    +0.000 OA
BRANCH  19  24
ATOM     20  O   UNL     1     111.447 129.973 136.292  0.00  0.00    +0.000 OA
ATOM     21  O   UNL     1     110.774 129.226 138.554  0.00  0.00    +0.000 OA
ATOM     22  O   UNL     1     109.392 129.149 138.149  0.00  0.00    +0.000 OA
ATOM     23  O   UNL     1     108.676 129.840 135.404  0.00  0.00    +0.000 OA
ATOM     24  C   UNL     1     111.791 129.634 137.636  0.00  0.00    +0.000 A 
ATOM     25  C   UNL     1     112.016 129.882 136.882  0.00  0.00    +0.000 A 
ATOM     26  C   UNL     1     110.999 129.475 137.800  0.00  0.00    +0.000 A 
ATOM     27  C   UNL     1     110.430 129.565 137.209  0.00  0.00    +0.000 A 
ATOM     28  C   UNL     1     110.653 129.814 136.455  0.00  0.00    +0.000 A 
ATOM     29  C   UNL     1     109.607 129.397 137.392  0.00  0.00    +0.000 A 
ATOM     30  C   UNL     1     110.070 129.912 135.832  0.00  0.00    +0.000 A 
ATOM     31  C   UNL     1     109.009 129.489 136.781  0.00  0.00    +0.000 A 
ATOM     32  C   UNL     1     109.243 129.749 135.996  0.00  0.00    +0.000 A 
BRANCH  25  34
ATOM     33  O   UNL     1     115.187 130.517 136.227  0.00  0.00    +0.000 OA
ATOM     34  C   UNL     1     112.808 130.041 136.718  0.00  0.00    +0.000 A 
ATOM     35  C   UNL     1     113.139 130.763 136.941  0.00  0.00    +0.000 A 
ATOM     36  C   UNL     1     113.271 129.477 136.332  0.00  0.00    +0.000 A 
ATOM     37  C   UNL     1     113.932 130.922 136.777  0.00  0.00    +0.000 A 
ATOM     38  C   UNL     1     114.063 129.636 136.169  0.00  0.00    +0.000 A 
ATOM     39  C   UNL     1     114.394 130.358 136.391  0.00  0.00    +0.000 A 
ENDBRANCH  25  34
ENDBRANCH  19  24
ENDBRANCH   8  19
BRANCH   7  40
ATOM     40  C   UNL     1     112.484 126.691 138.099  0.00  0.00    +0.000 C 
BRANCH  40  41
ATOM     41  O   UNL     1     111.864 126.566 137.568  0.00  0.00    +0.000 OA
BRANCH  41  46
ATOM     42  O   UNL     1     112.419 125.295 137.223  0.00  0.00    +0.000 OA
ATOM     43  O   UNL     1     110.631 126.318 136.501  0.00  0.00    +0.000 OA
ATOM     44  O   UNL     1     110.569 124.923 135.622  0.00  0.00    +0.000 OA
ATOM     45  O   UNL     1     111.740 123.775 135.811  0.00  0.00    +0.000 OA
ATOM     46  C   UNL     1     111.833 125.868 137.129  0.00  0.00    +0.000 C 
ATOM     47  C   UNL     1     111.216 125.744 136.595  0.00  0.00    +0.000 C 
ATOM     48  C   UNL     1     111.185 125.047 136.156  0.00  0.00    +0.000 C 
ATOM     49  C   UNL     1     111.770 124.473 136.250  0.00  0.00    +0.000 C 
ATOM     50  C   UNL     1     112.387 124.597 136.784  0.00  0.00    +0.000 C 
ATOM     51  C   UNL     1     112.973 124.023 136.879  0.00  0.00    +0.000 C 
ENDBRANCH  41  46
ENDBRANCH  40  41
ENDBRANCH   7  40
TORSDOF 9
ENDMDL
MODEL 2
REMARK VINA RESULT:     -11.0      1.659      3.662
REMARK  Name = 5465152
REMARK  9 active torsions:
REMARK  status: ('A' for Active; 'I' for Inactive)
REMARK    1  A    between atoms: O_1  and  C_20
REMARK    2  A    between atoms: O_1  and  C_25
REMARK    3  A    between atoms: O_4  and  C_29
REMARK    4  A    between atoms: O_4  and  C_30
REMARK    5  A    between atoms: O_6  and  C_27
REMARK    6  A    between atoms: O_6  and  C_37
REMARK    7  A    between atoms: C_23  and  C_29
REMARK    8  A    between atoms: C_24  and  C_32
REMARK    9  A    between atoms: C_38  and  C_41
REMARK                            x       y       z     vdW  Elec       q    Type
REMARK                         _______ _______ _______ _____ _____    ______ ____
ROOT
ATOM      1  O   UNL     1     111.145 128.475 138.180  0.00  0.00    +0.000 OA
ATOM      2  O   UNL     1     108.940 129.569 138.433  0.00  0.00    +0.000 OA
ATOM      3  O   UNL     1     109.055 128.111 137.668  0.00  0.00    +0.000 OA
ATOM      4  C   UNL     1     110.352 129.569 138.647  0.00  0.00    +0.000 C 
ATOM      5  C   UNL     1     109.675 129.204 138.349  0.00  0.00    +0.000 C 
ATOM      6  C   UNL     1     109.732 128.476 137.967  0.00  0.00    +0.000 C 
ATOM      7  C   UNL     1     110.468 128.112 137.882  0.00  0.00    +0.000 C 
ATOM      8  C   UNL     1     111.087 129.205 138.563  0.00  0.00    +0.000 C 
ENDROOT
BRANCH   4   9
ATOM      9  O   UNL     1     110.295 130.297 139.029  0.00  0.00    +0.000 OA
BRANCH   9  14
ATOM     10  O   UNL     1     110.166 131.038 137.765  0.00  0.00    +0.000 OA
ATOM     11  O   UNL     1     110.095 132.915 138.778  0.00  0.00    +0.000 OA
ATOM     12  O   UNL     1     110.216 131.965 139.687  0.00  0.00    +0.000 OA
ATOM     13  C   UNL     1     110.108 132.279 138.255  0.00  0.00    +0.000 C 
ATOM     14  C   UNL     1     110.219 130.990 138.587  0.00  0.00    +0.000 C 
ATOM     15  C   UNL     1     110.183 131.757 138.890  0.00  0.00    +0.000 C 
ATOM     16  C   UNL     1     110.098 131.834 137.560  0.00  0.00    +0.000 C 
BRANCH  13  18
ATOM     17  O   UNL     1     110.388 133.667 138.074  0.00  0.00    +0.000 OA
ATOM     18  C   UNL     1     110.032 132.971 137.813  0.00  0.00    +0.000 C 
ENDBRANCH  13  18
ENDBRANCH   9  14
ENDBRANCH   4   9
BRANCH   8  19
ATOM     19  O   UNL     1     111.765 129.568 138.860  0.00  0.00    +0.000 OA
BRANCH  19  24
ATOM     20  O   UNL     1     113.714 128.678 139.276  0.00  0.00    +0.000 OA
ATOM     21  O   UNL     1     111.406 128.628 140.168  0.00  0.00    +0.000 OA
ATOM     22  O   UNL     1     111.793 127.694 141.197  0.00  0.00    +0.000 OA
ATOM     23  O   UNL     1     114.568 126.795 141.327  0.00  0.00    +0.000 OA
ATOM     24  C   UNL     1     112.355 129.115 139.217  0.00  0.00    +0.000 A 
ATOM     25  C   UNL     1     113.124 129.132 138.919  0.00  0.00    +0.000 A 
ATOM     26  C   UNL     1     112.175 128.645 139.870  0.00  0.00    +0.000 A 
ATOM     27  C   UNL     1     112.765 128.191 140.226  0.00  0.00    +0.000 A 
ATOM     28  C   UNL     1     113.534 128.207 139.930  0.00  0.00    +0.000 A 
ATOM     29  C   UNL     1     112.565 127.705 140.906  0.00  0.00    +0.000 A 
ATOM     30  C   UNL     1     114.157 127.739 140.292  0.00  0.00    +0.000 A 
ATOM     31  C   UNL     1     113.175 127.230 141.282  0.00  0.00    +0.000 A 
ATOM     32  C   UNL     1     113.976 127.248 140.972  0.00  0.00    +0.000 A 
BRANCH  25  34
ATOM     33  O   UNL     1     113.844 131.014 136.306  0.00  0.00    +0.000 OA
ATOM     34  C   UNL     1     113.304 129.602 138.266  0.00  0.00    +0.000 A 
ATOM     35  C   UNL     1     113.458 130.406 138.367  0.00  0.00    +0.000 A 
ATOM     36  C   UNL     1     113.330 129.268 137.512  0.00  0.00    +0.000 A 
ATOM     37  C   UNL     1     113.638 130.877 137.713  0.00  0.00    +0.000 A 
ATOM     38  C   UNL     1     113.510 129.738 136.859  0.00  0.00    +0.000 A 
ATOM     39  C   UNL     1     113.664 130.543 136.959  0.00  0.00    +0.000 A 
ENDBRANCH  25  34
ENDBRANCH  19  24
ENDBRANCH   8  19
BRANCH   7  40
ATOM     40  C   UNL     1     110.526 127.382 137.500  0.00  0.00    +0.000 C 
BRANCH  40  41
ATOM     41  O   UNL     1     110.892 126.747 137.878  0.00  0.00    +0.000 OA
BRANCH  41  46
ATOM     42  O   UNL     1     110.965 126.040 136.638  0.00  0.00    +0.000 OA
ATOM     43  O   UNL     1     111.378 125.390 138.680  0.00  0.00    +0.000 OA
ATOM     44  O   UNL     1     111.694 124.004 137.842  0.00  0.00    +0.000 OA
ATOM     45  O   UNL     1     111.524 123.976 136.201  0.00  0.00    +0.000 OA
ATOM     46  C   UNL     1     111.050 126.054 137.458  0.00  0.00    +0.000 C 
ATOM     47  C   UNL     1     111.293 125.375 137.860  0.00  0.00    +0.000 C 
ATOM     48  C   UNL     1     111.451 124.683 137.441  0.00  0.00    +0.000 C 
ATOM     49  C   UNL     1     111.366 124.668 136.621  0.00  0.00    +0.000 C 
ATOM     50  C   UNL     1     111.123 125.347 136.219  0.00  0.00    +0.000 C 
ATOM     51  C   UNL     1     111.039 125.333 135.398  0.00  0.00    +0.000 C 
ENDBRANCH  41  46
ENDBRANCH  40  41
ENDBRANCH   7  40
TORSDOF 9
ENDMDL
MODEL 3
REMARK VINA RESULT:     -10.6      1.440      4.924
REMARK  Name = 5465152
REMARK  9 active torsions:
REMARK  status: ('A' for Active; 'I' for Inactive)
REMARK    1  A    between atoms: O_1  and  C_20
REMARK    2  A    between atoms: O_1  and  C_25
REMARK    3  A    between atoms: O_4  and  C_29
REMARK    4  A    between atoms: O_4  and  C_30
REMARK    5  A    between atoms: O_6  and  C_27
REMARK    6  A    between atoms: O_6  and  C_37
REMARK    7  A    between atoms: C_23  and  C_29
REMARK    8  A    between atoms: C_24  and  C_32
REMARK    9  A    between atoms: C_38  and  C_41
REMARK                            x       y       z     vdW  Elec       q    Type
REMARK                         _______ _______ _______ _____ _____    ______ ____
ROOT
ATOM      1  O   UNL     1     111.175 128.228 138.181  0.00  0.00    +0.000 OA
ATOM      2  O   UNL     1     109.010 129.340 138.631  0.00  0.00    +0.000 OA
ATOM      3  O   UNL     1     110.155 129.254 139.816  0.00  0.00    +0.000 OA
ATOM      4  C   UNL     1     109.880 128.642 137.738  0.00  0.00    +0.000 C 
ATOM      5  C   UNL     1     109.731 128.969 138.481  0.00  0.00    +0.000 C 
ATOM      6  C   UNL     1     110.303 128.926 139.073  0.00  0.00    +0.000 C 
ATOM      7  C   UNL     1     111.025 128.556 138.923  0.00  0.00    +0.000 C 
ATOM      8  C   UNL     1     110.601 128.271 137.588  0.00  0.00    +0.000 C 
ENDROOT
BRANCH   4   9
ATOM      9  O   UNL     1     109.307 128.684 137.146  0.00  0.00    +0.000 OA
BRANCH   9  14
ATOM     10  O   UNL     1     109.579 130.104 136.879  0.00  0.00    +0.000 OA
ATOM     11  O   UNL     1     108.081 130.189 135.360  0.00  0.00    +0.000 OA
ATOM     12  O   UNL     1     108.102 128.961 135.845  0.00  0.00    +0.000 OA
ATOM     13  C   UNL     1     108.683 130.310 135.911  0.00  0.00    +0.000 C 
ATOM     14  C   UNL     1     109.178 129.396 136.749  0.00  0.00    +0.000 C 
ATOM     15  C   UNL     1     108.623 129.523 136.150  0.00  0.00    +0.000 C 
ATOM     16  C   UNL     1     109.273 130.670 136.361  0.00  0.00    +0.000 C 
BRANCH  13  18
ATOM     17  O   UNL     1     108.469 131.026 134.693  0.00  0.00    +0.000 OA
ATOM     18  C   UNL     1     108.553 131.022 135.513  0.00  0.00    +0.000 C 
ENDBRANCH  13  18
ENDBRANCH   9  14
ENDBRANCH   4   9
BRANCH   8  19
ATOM     19  O   UNL     1     110.751 127.944 136.846  0.00  0.00    +0.000 OA
BRANCH  19  24
ATOM     20  O   UNL     1     112.311 126.543 136.238  0.00  0.00    +0.000 OA
ATOM     21  O   UNL     1     110.297 126.592 137.677  0.00  0.00    +0.000 OA
ATOM     22  O   UNL     1     110.492 125.212 138.048  0.00  0.00    +0.000 OA
ATOM     23  O   UNL     1     112.769 123.755 136.943  0.00  0.00    +0.000 OA
ATOM     24  C   UNL     1     111.195 127.251 136.782  0.00  0.00    +0.000 A 
ATOM     25  C   UNL     1     111.866 127.235 136.302  0.00  0.00    +0.000 A 
ATOM     26  C   UNL     1     110.968 126.576 137.197  0.00  0.00    +0.000 A 
ATOM     27  C   UNL     1     111.412 125.884 137.133  0.00  0.00    +0.000 A 
ATOM     28  C   UNL     1     112.083 125.867 136.654  0.00  0.00    +0.000 A 
ATOM     29  C   UNL     1     111.165 125.187 137.571  0.00  0.00    +0.000 A 
ATOM     30  C   UNL     1     112.554 125.152 136.579  0.00  0.00    +0.000 A 
ATOM     31  C   UNL     1     111.624 124.462 137.508  0.00  0.00    +0.000 A 
ATOM     32  C   UNL     1     112.323 124.446 137.009  0.00  0.00    +0.000 A 
BRANCH  25  34
ATOM     33  O   UNL     1     112.776 129.938 134.641  0.00  0.00    +0.000 OA
ATOM     34  C   UNL     1     112.093 127.910 135.887  0.00  0.00    +0.000 A 
ATOM     35  C   UNL     1     112.685 128.400 136.189  0.00  0.00    +0.000 A 
ATOM     36  C   UNL     1     111.730 128.097 135.171  0.00  0.00    +0.000 A 
ATOM     37  C   UNL     1     112.913 129.077 135.773  0.00  0.00    +0.000 A 
ATOM     38  C   UNL     1     111.957 128.772 134.755  0.00  0.00    +0.000 A 
ATOM     39  C   UNL     1     112.548 129.262 135.057  0.00  0.00    +0.000 A 
ENDBRANCH  25  34
ENDBRANCH  19  24
ENDBRANCH   8  19
BRANCH   7  40
ATOM     40  C   UNL     1     111.599 128.513 139.515  0.00  0.00    +0.000 C 
BRANCH  40  41
ATOM     41  O   UNL     1     112.342 128.850 139.394  0.00  0.00    +0.000 OA
BRANCH  41  46
ATOM     42  O   UNL     1     113.075 127.747 139.932  0.00  0.00    +0.000 OA
ATOM     43  O   UNL     1     113.498 129.889 139.949  0.00  0.00    +0.000 OA
ATOM     44  O   UNL     1     114.809 129.305 140.763  0.00  0.00    +0.000 OA
ATOM     45  O   UNL     1     114.964 127.683 141.023  0.00  0.00    +0.000 OA
ATOM     46  C   UNL     1     112.998 128.558 139.802  0.00  0.00    +0.000 C 
ATOM     47  C   UNL     1     113.576 129.078 140.079  0.00  0.00    +0.000 C 
ATOM     48  C   UNL     1     114.231 128.786 140.486  0.00  0.00    +0.000 C 
ATOM     49  C   UNL     1     114.308 127.976 140.616  0.00  0.00    +0.000 C 
ATOM     50  C   UNL     1     113.730 127.456 140.339  0.00  0.00    +0.000 C 
ATOM     51  C   UNL     1     113.808 126.645 140.469  0.00  0.00    +0.000 C 
ENDBRANCH  41  46
ENDBRANCH  40  41
ENDBRANCH   7  40
TORSDOF 9
ENDMDL
MODEL 4
REMARK VINA RESULT:     -10.5      1.862      5.527
REMARK  Name = 5465152
REMARK  9 active torsions:
REMARK  status: ('A' for Active; 'I' for Inactive)
REMARK    1  A    between atoms: O_1  and  C_20
REMARK    2  A    between atoms: O_1  and  C_25
REMARK    3  A    between atoms: O_4  and  C_29
REMARK    4  A    between atoms: O_4  and  C_30
REMARK    5  A    between atoms: O_6  and  C_27
REMARK    6  A    between atoms: O_6  and  C_37
REMARK    7  A    between atoms: C_23  and  C_29
REMARK    8  A    between atoms: C_24  and  C_32
REMARK    9  A    between atoms: C_38  and  C_41
REMARK                            x       y       z     vdW  Elec       q    Type
REMARK                         _______ _______ _______ _____ _____    ______ ____
ROOT
ATOM      1  O   UNL     1     111.308 128.008 136.117  0.00  0.00    +0.000 OA
ATOM      2  O   UNL     1     110.883 125.898 134.894  0.00  0.00    +0.000 OA
ATOM      3  O   UNL     1     109.846 127.171 134.729  0.00  0.00    +0.000 OA
ATOM      4  C   UNL     1     111.685 126.668 135.792  0.00  0.00    +0.000 C 
ATOM      5  C   UNL     1     111.025 126.602 135.302  0.00  0.00    +0.000 C 
ATOM      6  C   UNL     1     110.507 127.237 135.219  0.00  0.00    +0.000 C 
ATOM      7  C   UNL     1     110.648 127.941 135.627  0.00  0.00    +0.000 C 
ATOM      8  C   UNL     1     111.827 127.371 136.200  0.00  0.00    +0.000 C 
ENDROOT
BRANCH   4   9
ATOM      9  O   UNL     1     112.203 126.032 135.875  0.00  0.00    +0.000 OA
BRANCH   9  14
ATOM     10  O   UNL     1     111.293 125.307 136.773  0.00  0.00    +0.000 OA
ATOM     11  O   UNL     1     112.665 123.687 136.990  0.00  0.00    +0.000 OA
ATOM     12  O   UNL     1     113.211 124.580 136.186  0.00  0.00    +0.000 OA
ATOM     13  C   UNL     1     112.042 124.227 137.004  0.00  0.00    +0.000 C 
ATOM     14  C   UNL     1     111.997 125.392 136.354  0.00  0.00    +0.000 C 
ATOM     15  C   UNL     1     112.461 124.724 136.496  0.00  0.00    +0.000 C 
ATOM     16  C   UNL     1     111.320 124.587 137.175  0.00  0.00    +0.000 C 
BRANCH  13  18
ATOM     17  O   UNL     1     111.961 122.817 137.217  0.00  0.00    +0.000 OA
ATOM     18  C   UNL     1     111.837 123.587 137.483  0.00  0.00    +0.000 C 
ENDBRANCH  13  18
ENDBRANCH   9  14
ENDBRANCH   4   9
BRANCH   8  19
ATOM     19  O   UNL     1     112.487 127.438 136.690  0.00  0.00    +0.000 OA
BRANCH  19  24
ATOM     20  O   UNL     1     113.451 129.228 137.482  0.00  0.00    +0.000 OA
ATOM     21  O   UNL     1     113.075 128.113 135.305  0.00  0.00    +0.000 OA
ATOM     22  O   UNL     1     113.791 129.157 134.613  0.00  0.00    +0.000 OA
ATOM     23  O   UNL     1     114.909 131.371 136.154  0.00  0.00    +0.000 OA
ATOM     24  C   UNL     1     112.906 128.147 136.723  0.00  0.00    +0.000 A 
ATOM     25  C   UNL     1     113.032 128.519 137.449  0.00  0.00    +0.000 A 
ATOM     26  C   UNL     1     113.200 128.485 136.031  0.00  0.00    +0.000 A 
ATOM     27  C   UNL     1     113.620 129.194 136.063  0.00  0.00    +0.000 A 
ATOM     28  C   UNL     1     113.746 129.566 136.789  0.00  0.00    +0.000 A 
ATOM     29  C   UNL     1     113.921 129.536 135.335  0.00  0.00    +0.000 A 
ATOM     30  C   UNL     1     114.181 130.305 136.836  0.00  0.00    +0.000 A 
ATOM     31  C   UNL     1     114.360 130.275 135.362  0.00  0.00    +0.000 A 
ATOM     32  C   UNL     1     114.490 130.662 136.118  0.00  0.00    +0.000 A 
BRANCH  25  34
ATOM     33  O   UNL     1     111.855 127.169 140.221  0.00  0.00    +0.000 OA
ATOM     34  C   UNL     1     112.738 128.182 138.142  0.00  0.00    +0.000 A 
ATOM     35  C   UNL     1     112.031 128.456 138.466  0.00  0.00    +0.000 A 
ATOM     36  C   UNL     1     113.150 127.569 138.511  0.00  0.00    +0.000 A 
ATOM     37  C   UNL     1     111.736 128.119 139.160  0.00  0.00    +0.000 A 
ATOM     38  C   UNL     1     112.856 127.232 139.203  0.00  0.00    +0.000 A 
ATOM     39  C   UNL     1     112.149 127.507 139.528  0.00  0.00    +0.000 A 
ENDBRANCH  25  34
ENDBRANCH  19  24
ENDBRANCH   8  19
BRANCH   7  40
ATOM     40  C   UNL     1     110.130 128.578 135.544  0.00  0.00    +0.000 C 
BRANCH  40  41
ATOM     41  O   UNL     1     109.865 128.982 136.212  0.00  0.00    +0.000 OA
BRANCH  41  46
ATOM     42  O   UNL     1     109.482 130.104 135.414  0.00  0.00    +0.000 OA
ATOM     43  O   UNL     1     108.974 129.573 137.469  0.00  0.00    +0.000 OA
ATOM     44  O   UNL     1     108.145 130.990 137.299  0.00  0.00    +0.000 OA
ATOM     45  O   UNL     1     108.208 131.816 135.872  0.00  0.00    +0.000 OA
ATOM     46  C   UNL     1     109.450 129.691 136.128  0.00  0.00    +0.000 C 
ATOM     47  C   UNL     1     109.005 129.987 136.756  0.00  0.00    +0.000 C 
ATOM     48  C   UNL     1     108.591 130.694 136.671  0.00  0.00    +0.000 C 
ATOM     49  C   UNL     1     108.622 131.107 135.958  0.00  0.00    +0.000 C 
ATOM     50  C   UNL     1     109.068 130.812 135.330  0.00  0.00    +0.000 C 
ATOM     51  C   UNL     1     109.099 131.225 134.615  0.00  0.00    +0.000 C 
ENDBRANCH  41  46
ENDBRANCH  40  41
ENDBRANCH   7  40
TORSDOF 9
ENDMDL
MODEL 5
REMARK VINA RESULT:     -10.4      1.482      3.256
REMARK  Name = 5465152
REMARK  9 active torsions:
REMARK  status: ('A' for Active; 'I' for Inactive)
REMARK    1  A    between atoms: O_1  and  C_20
REMARK    2  A    between atoms: O_1  and  C_25
REMARK    3  A    between atoms: O_4  and  C_29
REMARK    4  A    between atoms: O_4  and  C_30
REMARK    5  A    between atoms: O_6  and  C_27
REMARK    6  A    between atoms: O_6  and  C_37
REMARK    7  A    between atoms: C_23  and  C_29
REMARK    8  A    between atoms: C_24  and  C_32
REMARK    9  A    between atoms: C_38  and  C_41
REMARK                            x       y       z     vdW  Elec       q    Type
REMARK                         _______ _______ _______ _____ _____    ______ ____
ROOT
ATOM      1  O   UNL     1     111.154 128.310 137.753  0.00  0.00    +0.000 OA
ATOM      2  O   UNL     1     109.023 129.443 138.301  0.00  0.00    +0.000 OA
ATOM      3  O   UNL     1     109.012 127.893 137.735  0.00  0.00    +0.000 OA
ATOM      4  C   UNL     1     110.450 129.463 138.219  0.00  0.00    +0.000 C 
ATOM      5  C   UNL     1     109.734 129.065 138.118  0.00  0.00    +0.000 C 
ATOM      6  C   UNL     1     109.728 128.291 137.836  0.00  0.00    +0.000 C 
ATOM      7  C   UNL     1     110.438 127.913 137.653  0.00  0.00    +0.000 C 
ATOM      8  C   UNL     1     111.160 129.086 138.036  0.00  0.00    +0.000 C 
ENDROOT
BRANCH   4   9
ATOM      9  O   UNL     1     110.456 130.238 138.502  0.00  0.00    +0.000 OA
BRANCH   9  14
ATOM     10  O   UNL     1     110.220 129.817 139.890  0.00  0.00    +0.000 OA
ATOM     11  O   UNL     1     110.429 131.814 140.616  0.00  0.00    +0.000 OA
ATOM     12  O   UNL     1     110.595 131.836 139.307  0.00  0.00    +0.000 OA
ATOM     13  C   UNL     1     110.323 131.006 140.490  0.00  0.00    +0.000 C 
ATOM     14  C   UNL     1     110.377 130.382 139.310  0.00  0.00    +0.000 C 
ATOM     15  C   UNL     1     110.441 131.117 139.680  0.00  0.00    +0.000 C 
ATOM     16  C   UNL     1     110.187 130.203 140.620  0.00  0.00    +0.000 C 
BRANCH  13  18
ATOM     17  O   UNL     1     110.815 131.593 141.695  0.00  0.00    +0.000 OA
ATOM     18  C   UNL     1     110.244 131.150 141.298  0.00  0.00    +0.000 C 
ENDBRANCH  13  18
ENDBRANCH   9  14
ENDBRANCH   4   9
BRANCH   8  19
ATOM     19  O   UNL     1     111.876 129.482 138.136  0.00  0.00    +0.000 OA
BRANCH  19  24
ATOM     20  O   UNL     1     113.850 129.000 137.339  0.00  0.00    +0.000 OA
ATOM     21  O   UNL     1     111.629 129.726 136.523  0.00  0.00    +0.000 OA
ATOM     22  O   UNL     1     112.101 129.737 135.160  0.00  0.00    +0.000 OA
ATOM     23  O   UNL     1     114.873 128.999 134.612  0.00  0.00    +0.000 OA
ATOM     24  C   UNL     1     112.493 129.362 137.601  0.00  0.00    +0.000 A 
ATOM     25  C   UNL     1     113.233 129.120 137.874  0.00  0.00    +0.000 A 
ATOM     26  C   UNL     1     112.369 129.484 136.796  0.00  0.00    +0.000 A 
ATOM     27  C   UNL     1     112.986 129.364 136.261  0.00  0.00    +0.000 A 
ATOM     28  C   UNL     1     113.726 129.122 136.532  0.00  0.00    +0.000 A 
ATOM     29  C   UNL     1     112.844 129.495 135.423  0.00  0.00    +0.000 A 
ATOM     30  C   UNL     1     114.376 128.994 135.985  0.00  0.00    +0.000 A 
ATOM     31  C   UNL     1     113.483 129.372 134.861  0.00  0.00    +0.000 A 
ATOM     32  C   UNL     1     114.254 129.120 135.145  0.00  0.00    +0.000 A 
BRANCH  25  34
ATOM     33  O   UNL     1     113.729 128.631 141.100  0.00  0.00    +0.000 OA
ATOM     34  C   UNL     1     113.357 128.998 138.680  0.00  0.00    +0.000 A 
ATOM     35  C   UNL     1     113.277 128.242 138.999  0.00  0.00    +0.000 A 
ATOM     36  C   UNL     1     113.561 129.632 139.167  0.00  0.00    +0.000 A 
ATOM     37  C   UNL     1     113.401 128.119 139.807  0.00  0.00    +0.000 A 
ATOM     38  C   UNL     1     113.685 129.510 139.973  0.00  0.00    +0.000 A 
ATOM     39  C   UNL     1     113.605 128.754 140.293  0.00  0.00    +0.000 A 
ENDBRANCH  25  34
ENDBRANCH  19  24
ENDBRANCH   8  19
BRANCH   7  40
ATOM     40  C   UNL     1     110.432 127.138 137.370  0.00  0.00    +0.000 C 
BRANCH  40  41
ATOM     41  O   UNL     1     110.836 126.547 137.779  0.00  0.00    +0.000 OA
BRANCH  41  46
ATOM     42  O   UNL     1     110.977 125.791 136.575  0.00  0.00    +0.000 OA
ATOM     43  O   UNL     1     111.374 125.255 138.653  0.00  0.00    +0.000 OA
ATOM     44  O   UNL     1     111.785 123.853 137.885  0.00  0.00    +0.000 OA
ATOM     45  O   UNL     1     111.657 123.744 136.243  0.00  0.00    +0.000 OA
ATOM     46  C   UNL     1     111.042 125.845 137.395  0.00  0.00    +0.000 C 
ATOM     47  C   UNL     1     111.311 125.199 137.832  0.00  0.00    +0.000 C 
ATOM     48  C   UNL     1     111.516 124.499 137.448  0.00  0.00    +0.000 C 
ATOM     49  C   UNL     1     111.452 124.444 136.628  0.00  0.00    +0.000 C 
ATOM     50  C   UNL     1     111.182 125.090 136.191  0.00  0.00    +0.000 C 
ATOM     51  C   UNL     1     111.118 125.036 135.370  0.00  0.00    +0.000 C 
ENDBRANCH  41  46
ENDBRANCH  40  41
ENDBRANCH   7  40
TORSDOF 9
ENDMDL
MODEL 6
REMARK VINA RESULT:     -10.4      1.237      4.867
REMARK  Name = 5465152
REMARK  9 active torsions:
REMARK  status: ('A' for Active; 'I' for Inactive)
REMARK    1  A    between atoms: O_1  and  C_20
REMARK    2  A    between atoms: O_1  and  C_25
REMARK    3  A    between atoms: O_4  and  C_29
REMARK    4  A    between atoms: O_4  and  C_30
REMARK    5  A    between atoms: O_6  and  C_27
REMARK    6  A    between atoms: O_6  and  C_37
REMARK    7  A    between atoms: C_23  and  C_29
REMARK    8  A    between atoms: C_24  and  C_32
REMARK    9  A    between atoms: C_38  and  C_41
REMARK                            x       y       z     vdW  Elec       q    Type
REMARK                         _______ _______ _______ _____ _____    ______ ____
ROOT
ATOM      1  O   UNL     1     112.448 128.421 139.052  0.00  0.00    +0.000 OA
ATOM      2  O   UNL     1     111.843 126.071 139.534  0.00  0.00    +0.000 OA
ATOM      3  O   UNL     1     112.899 126.869 140.519  0.00  0.00    +0.000 OA
ATOM      4  C   UNL     1     111.718 127.238 138.720  0.00  0.00    +0.000 C 
ATOM      5  C   UNL     1     112.045 126.854 139.373  0.00  0.00    +0.000 C 
ATOM      6  C   UNL     1     112.572 127.253 139.866  0.00  0.00    +0.000 C 
ATOM      7  C   UNL     1     112.774 128.037 139.705  0.00  0.00    +0.000 C 
ATOM      8  C   UNL     1     111.920 128.022 138.559  0.00  0.00    +0.000 C 
ENDROOT
BRANCH   4   9
ATOM      9  O   UNL     1     111.190 126.839 138.228  0.00  0.00    +0.000 OA
BRANCH   9  14
ATOM     10  O   UNL     1     112.262 126.088 137.559  0.00  0.00    +0.000 OA
ATOM     11  O   UNL     1     110.872 125.061 136.307  0.00  0.00    +0.000 OA
ATOM     12  O   UNL     1     110.191 125.876 137.090  0.00  0.00    +0.000 OA
ATOM     13  C   UNL     1     111.519 125.371 136.712  0.00  0.00    +0.000 C 
ATOM     14  C   UNL     1     111.472 126.290 137.680  0.00  0.00    +0.000 C 
ATOM     15  C   UNL     1     111.012 125.848 137.157  0.00  0.00    +0.000 C 
ATOM     16  C   UNL     1     112.291 125.519 136.961  0.00  0.00    +0.000 C 
BRANCH  13  18
ATOM     17  O   UNL     1     111.499 124.055 136.158  0.00  0.00    +0.000 OA
ATOM     18  C   UNL     1     111.800 124.822 136.165  0.00  0.00    +0.000 C 
ENDBRANCH  13  18
ENDBRANCH   9  14
ENDBRANCH   4   9
BRANCH   8  19
ATOM     19  O   UNL     1     111.594 128.406 137.906  0.00  0.00    +0.000 OA
BRANCH  19  24
ATOM     20  O   UNL     1     111.555 130.549 137.495  0.00  0.00    +0.000 OA
ATOM     21  O   UNL     1     110.486 128.916 139.017  0.00  0.00    +0.000 OA
ATOM     22  O   UNL     1     109.714 129.962 139.644  0.00  0.00    +0.000 OA
ATOM     23  O   UNL     1     110.030 132.711 138.713  0.00  0.00    +0.000 OA
ATOM     24  C   UNL     1     111.396 129.206 137.955  0.00  0.00    +0.000 A 
ATOM     25  C   UNL     1     111.753 129.750 137.447  0.00  0.00    +0.000 A 
ATOM     26  C   UNL     1     110.842 129.460 138.510  0.00  0.00    +0.000 A 
ATOM     27  C   UNL     1     110.644 130.260 138.558  0.00  0.00    +0.000 A 
ATOM     28  C   UNL     1     111.000 130.805 138.051  0.00  0.00    +0.000 A 
ATOM     29  C   UNL     1     110.066 130.513 139.141  0.00  0.00    +0.000 A 
ATOM     30  C   UNL     1     110.802 131.640 138.091  0.00  0.00    +0.000 A 
ATOM     31  C   UNL     1     109.855 131.345 139.196  0.00  0.00    +0.000 A 
ATOM     32  C   UNL     1     110.226 131.911 138.667  0.00  0.00    +0.000 A 
BRANCH  25  34
ATOM     33  O   UNL     1     113.969 128.730 135.224  0.00  0.00    +0.000 OA
ATOM     34  C   UNL     1     112.306 129.495 136.892  0.00  0.00    +0.000 A 
ATOM     35  C   UNL     1     112.054 129.166 136.179  0.00  0.00    +0.000 A 
ATOM     36  C   UNL     1     113.113 129.570 137.049  0.00  0.00    +0.000 A 
ATOM     37  C   UNL     1     112.609 128.910 135.623  0.00  0.00    +0.000 A 
ATOM     38  C   UNL     1     113.667 129.315 136.494  0.00  0.00    +0.000 A 
ATOM     39  C   UNL     1     113.415 128.985 135.781  0.00  0.00    +0.000 A 
ENDBRANCH  25  34
ENDBRANCH  19  24
ENDBRANCH   8  19
BRANCH   7  40
ATOM     40  C   UNL     1     113.303 128.436 140.197  0.00  0.00    +0.000 C 
BRANCH  40  41
ATOM     41  O   UNL     1     113.032 129.047 140.681  0.00  0.00    +0.000 OA
BRANCH  41  46
ATOM     42  O   UNL     1     114.286 129.717 140.532  0.00  0.00    +0.000 OA
ATOM     43  O   UNL     1     112.511 130.247 141.686  0.00  0.00    +0.000 OA
ATOM     44  O   UNL     1     113.503 131.517 142.040  0.00  0.00    +0.000 OA
ATOM     45  O   UNL     1     115.017 131.587 141.388  0.00  0.00    +0.000 OA
ATOM     46  C   UNL     1     113.529 129.683 140.858  0.00  0.00    +0.000 C 
ATOM     47  C   UNL     1     113.268 130.283 141.361  0.00  0.00    +0.000 C 
ATOM     48  C   UNL     1     113.764 130.917 141.537  0.00  0.00    +0.000 C 
ATOM     49  C   UNL     1     114.520 130.953 141.212  0.00  0.00    +0.000 C 
ATOM     50  C   UNL     1     114.781 130.353 140.709  0.00  0.00    +0.000 C 
ATOM     51  C   UNL     1     115.539 130.388 140.383  0.00  0.00    +0.000 C 
ENDBRANCH  41  46
ENDBRANCH  40  41
ENDBRANCH   7  40
TORSDOF 9
ENDMDL
MODEL 7
REMARK VINA RESULT:     -10.4      2.033      5.261
REMARK  Name = 5465152
REMARK  9 active torsions:
REMARK  status: ('A' for Active; 'I' for Inactive)
REMARK    1  A    between atoms: O_1  and  C_20
REMARK    2  A    between atoms: O_1  and  C_25
REMARK    3  A    between atoms: O_4  and  C_29
REMARK    4  A    between atoms: O_4  and  C_30
REMARK    5  A    between atoms: O_6  and  C_27
REMARK    6  A    between atoms: O_6  and  C_37
REMARK    7  A    between atoms: C_23  and  C_29
REMARK    8  A    between atoms: C_24  and  C_32
REMARK    9  A    between atoms: C_38  and  C_41
REMARK                            x       y       z     vdW  Elec       q    Type
REMARK                         _______ _______ _______ _____ _____    ______ ____
ROOT
ATOM      1  O   UNL     1     111.587 127.748 138.020  0.00  0.00    +0.000 OA
ATOM      2  O   UNL     1     109.114 127.669 138.045  0.00  0.00    +0.000 OA
ATOM      3  O   UNL     1     109.895 128.744 137.067  0.00  0.00    +0.000 OA
ATOM      4  C   UNL     1     110.372 127.184 138.518  0.00  0.00    +0.000 C 
ATOM      5  C   UNL     1     109.938 127.696 138.037  0.00  0.00    +0.000 C 
ATOM      6  C   UNL     1     110.328 128.233 137.548  0.00  0.00    +0.000 C 
ATOM      7  C   UNL     1     111.153 128.259 137.539  0.00  0.00    +0.000 C 
ATOM      8  C   UNL     1     111.196 127.210 138.509  0.00  0.00    +0.000 C 
ENDROOT
BRANCH   4   9
ATOM      9  O   UNL     1     109.982 126.647 139.006  0.00  0.00    +0.000 OA
BRANCH   9  14
ATOM     10  O   UNL     1     109.620 127.681 139.987  0.00  0.00    +0.000 OA
ATOM     11  O   UNL     1     108.737 126.245 141.296  0.00  0.00    +0.000 OA
ATOM     12  O   UNL     1     109.195 125.604 140.237  0.00  0.00    +0.000 OA
ATOM     13  C   UNL     1     109.035 126.905 140.903  0.00  0.00    +0.000 C 
ATOM     14  C   UNL     1     109.649 126.902 139.717  0.00  0.00    +0.000 C 
ATOM     15  C   UNL     1     109.287 126.422 140.283  0.00  0.00    +0.000 C 
ATOM     16  C   UNL     1     109.241 127.683 140.720  0.00  0.00    +0.000 C 
BRANCH  13  18
ATOM     17  O   UNL     1     108.417 126.609 142.156  0.00  0.00    +0.000 OA
ATOM     18  C   UNL     1     108.703 127.160 141.614  0.00  0.00    +0.000 C 
ENDBRANCH  13  18
ENDBRANCH   9  14
ENDBRANCH   4   9
BRANCH   8  19
ATOM     19  O   UNL     1     111.631 126.699 138.989  0.00  0.00    +0.000 OA
BRANCH  19  24
ATOM     20  O   UNL     1     113.747 126.182 138.865  0.00  0.00    +0.000 OA
ATOM     21  O   UNL     1     111.653 125.812 137.599  0.00  0.00    +0.000 OA
ATOM     22  O   UNL     1     112.356 125.035 136.606  0.00  0.00    +0.000 OA
ATOM     23  O   UNL     1     115.232 124.626 136.901  0.00  0.00    +0.000 OA
ATOM     24  C   UNL     1     112.340 126.379 138.716  0.00  0.00    +0.000 A 
ATOM     25  C   UNL     1     113.038 126.502 139.138  0.00  0.00    +0.000 A 
ATOM     26  C   UNL     1     112.351 125.935 138.021  0.00  0.00    +0.000 A 
ATOM     27  C   UNL     1     113.060 125.614 137.748  0.00  0.00    +0.000 A 
ATOM     28  C   UNL     1     113.758 125.737 138.169  0.00  0.00    +0.000 A 
ATOM     29  C   UNL     1     113.058 125.154 137.022  0.00  0.00    +0.000 A 
ATOM     30  C   UNL     1     114.503 125.408 137.895  0.00  0.00    +0.000 A 
ATOM     31  C   UNL     1     113.794 124.817 136.732  0.00  0.00    +0.000 A 
ATOM     32  C   UNL     1     114.521 124.946 137.172  0.00  0.00    +0.000 A 
BRANCH  25  34
ATOM     33  O   UNL     1     112.994 128.277 141.920  0.00  0.00    +0.000 OA
ATOM     34  C   UNL     1     113.027 126.946 139.833  0.00  0.00    +0.000 A 
ATOM     35  C   UNL     1     112.787 126.597 140.541  0.00  0.00    +0.000 A 
ATOM     36  C   UNL     1     113.256 127.739 139.821  0.00  0.00    +0.000 A 
ATOM     37  C   UNL     1     112.776 127.041 141.237  0.00  0.00    +0.000 A 
ATOM     38  C   UNL     1     113.245 128.182 140.516  0.00  0.00    +0.000 A 
ATOM     39  C   UNL     1     113.005 127.833 141.224  0.00  0.00    +0.000 A 
ENDBRANCH  25  34
ENDBRANCH  19  24
ENDBRANCH   8  19
BRANCH   7  40
ATOM     40  C   UNL     1     111.544 128.797 137.050  0.00  0.00    +0.000 C 
BRANCH  40  41
ATOM     41  O   UNL     1     112.066 129.346 137.376  0.00  0.00    +0.000 OA
BRANCH  41  46
ATOM     42  O   UNL     1     113.118 129.105 136.440  0.00  0.00    +0.000 OA
ATOM     43  O   UNL     1     112.514 130.931 137.472  0.00  0.00    +0.000 OA
ATOM     44  O   UNL     1     113.790 131.483 136.583  0.00  0.00    +0.000 OA
ATOM     45  O   UNL     1     114.618 130.449 135.599  0.00  0.00    +0.000 OA
ATOM     46  C   UNL     1     112.704 129.622 136.932  0.00  0.00    +0.000 C 
ATOM     47  C   UNL     1     112.928 130.415 136.979  0.00  0.00    +0.000 C 
ATOM     48  C   UNL     1     113.566 130.690 136.535  0.00  0.00    +0.000 C 
ATOM     49  C   UNL     1     113.980 130.174 136.044  0.00  0.00    +0.000 C 
ATOM     50  C   UNL     1     113.756 129.381 135.996  0.00  0.00    +0.000 C 
ATOM     51  C   UNL     1     114.170 128.864 135.504  0.00  0.00    +0.000 C 
ENDBRANCH  41  46
ENDBRANCH  40  41
ENDBRANCH   7  40
TORSDOF 9
ENDMDL
MODEL 8
REMARK VINA RESULT:     -10.4      1.563      5.726
REMARK  Name = 5465152
REMARK  9 active torsions:
REMARK  status: ('A' for Active; 'I' for Inactive)
REMARK    1  A    between atoms: O_1  and  C_20
REMARK    2  A    between atoms: O_1  and  C_25
REMARK    3  A    between atoms: O_4  and  C_29
REMARK    4  A    between atoms: O_4  and  C_30
REMARK    5  A    between atoms: O_6  and  C_27
REMARK    6  A    between atoms: O_6  and  C_37
REMARK    7  A    between atoms: C_23  and  C_29
REMARK    8  A    between atoms: C_24  and  C_32
REMARK    9  A    between atoms: C_38  and  C_41
REMARK                            x       y       z     vdW  Elec       q    Type
REMARK                         _______ _______ _______ _____ _____    ______ ____
ROOT
ATOM      1  O   UNL     1     111.396 128.666 137.194  0.00  0.00    +0.000 OA
ATOM      2  O   UNL     1     111.398 127.413 135.060  0.00  0.00    +0.000 OA
ATOM      3  O   UNL     1     110.422 128.731 135.242  0.00  0.00    +0.000 OA
ATOM      4  C   UNL     1     111.885 127.588 136.392  0.00  0.00    +0.000 C 
ATOM      5  C   UNL     1     111.397 127.830 135.771  0.00  0.00    +0.000 C 
ATOM      6  C   UNL     1     110.910 128.489 135.862  0.00  0.00    +0.000 C 
ATOM      7  C   UNL     1     110.909 128.906 136.573  0.00  0.00    +0.000 C 
ATOM      8  C   UNL     1     111.884 128.006 137.103  0.00  0.00    +0.000 C 
ENDROOT
BRANCH   4   9
ATOM      9  O   UNL     1     112.372 126.930 136.301  0.00  0.00    +0.000 OA
BRANCH   9  14
ATOM     10  O   UNL     1     111.253 125.984 136.419  0.00  0.00    +0.000 OA
ATOM     11  O   UNL     1     112.566 124.301 136.383  0.00  0.00    +0.000 OA
ATOM     12  O   UNL     1     113.300 125.394 136.288  0.00  0.00    +0.000 OA
ATOM     13  C   UNL     1     111.943 124.841 136.410  0.00  0.00    +0.000 C 
ATOM     14  C   UNL     1     112.054 126.171 136.353  0.00  0.00    +0.000 C 
ATOM     15  C   UNL     1     112.481 125.464 136.347  0.00  0.00    +0.000 C 
ATOM     16  C   UNL     1     111.185 125.162 136.454  0.00  0.00    +0.000 C 
BRANCH  13  18
ATOM     17  O   UNL     1     112.005 123.505 136.910  0.00  0.00    +0.000 OA
ATOM     18  C   UNL     1     111.625 124.082 136.461  0.00  0.00    +0.000 C 
ENDBRANCH  13  18
ENDBRANCH   9  14
ENDBRANCH   4   9
BRANCH   8  19
ATOM     19  O   UNL     1     112.371 127.766 137.724  0.00  0.00    +0.000 OA
BRANCH  19  24
ATOM     20  O   UNL     1     112.942 128.844 139.534  0.00  0.00    +0.000 OA
ATOM     21  O   UNL     1     113.291 128.978 137.087  0.00  0.00    +0.000 OA
ATOM     22  O   UNL     1     114.107 130.158 137.239  0.00  0.00    +0.000 OA
ATOM     23  O   UNL     1     114.577 131.223 139.917  0.00  0.00    +0.000 OA
ATOM     24  C   UNL     1     112.715 128.327 138.221  0.00  0.00    +0.000 A 
ATOM     25  C   UNL     1     112.598 128.282 139.037  0.00  0.00    +0.000 A 
ATOM     26  C   UNL     1     113.174 128.933 137.903  0.00  0.00    +0.000 A 
ATOM     27  C   UNL     1     113.518 129.494 138.399  0.00  0.00    +0.000 A 
ATOM     28  C   UNL     1     113.402 129.450 139.215  0.00  0.00    +0.000 A 
ATOM     29  C   UNL     1     113.995 130.121 138.055  0.00  0.00    +0.000 A 
ATOM     30  C   UNL     1     113.755 130.029 139.743  0.00  0.00    +0.000 A 
ATOM     31  C   UNL     1     114.356 130.710 138.568  0.00  0.00    +0.000 A 
ATOM     32  C   UNL     1     114.235 130.662 139.417  0.00  0.00    +0.000 A 
BRANCH  25  34
ATOM     33  O   UNL     1     110.758 125.857 140.312  0.00  0.00    +0.000 OA
ATOM     34  C   UNL     1     112.138 127.676 139.355  0.00  0.00    +0.000 A 
ATOM     35  C   UNL     1     112.474 126.937 139.500  0.00  0.00    +0.000 A 
ATOM     36  C   UNL     1     111.343 127.809 139.530  0.00  0.00    +0.000 A 
ATOM     37  C   UNL     1     112.014 126.330 139.819  0.00  0.00    +0.000 A 
ATOM     38  C   UNL     1     110.883 127.204 139.848  0.00  0.00    +0.000 A 
ATOM     39  C   UNL     1     111.219 126.464 139.993  0.00  0.00    +0.000 A 
ENDBRANCH  25  34
ENDBRANCH  19  24
ENDBRANCH   8  19
BRANCH   7  40
ATOM     40  C   UNL     1     110.421 129.566 136.665  0.00  0.00    +0.000 C 
BRANCH  40  41
ATOM     41  O   UNL     1     110.056 129.712 137.390  0.00  0.00    +0.000 OA
BRANCH  41  46
ATOM     42  O   UNL     1     110.335 131.113 137.406  0.00  0.00    +0.000 OA
ATOM     43  O   UNL     1     108.633 129.986 138.178  0.00  0.00    +0.000 OA
ATOM     44  O   UNL     1     108.200 131.525 138.588  0.00  0.00    +0.000 OA
ATOM     45  O   UNL     1     109.191 132.789 138.211  0.00  0.00    +0.000 OA
ATOM     46  C   UNL     1     109.840 130.481 137.596  0.00  0.00    +0.000 C 
ATOM     47  C   UNL     1     109.128 130.619 137.990  0.00  0.00    +0.000 C 
ATOM     48  C   UNL     1     108.912 131.387 138.194  0.00  0.00    +0.000 C 
ATOM     49  C   UNL     1     109.407 132.019 138.006  0.00  0.00    +0.000 C 
ATOM     50  C   UNL     1     110.119 131.882 137.612  0.00  0.00    +0.000 C 
ATOM     51  C   UNL     1     110.615 132.514 137.422  0.00  0.00    +0.000 C 
ENDBRANCH  41  46
ENDBRANCH  40  41
ENDBRANCH   7  40
TORSDOF 9
ENDMDL
MODEL 9
REMARK VINA RESULT:     -10.4      1.827      5.354
REMARK  Name = 5465152
REMARK  9 active torsions:
REMARK  status: ('A' for Active; 'I' for Inactive)
REMARK    1  A    between atoms: O_1  and  C_20
REMARK    2  A    between atoms: O_1  and  C_25
REMARK    3  A    between atoms: O_4  and  C_29
REMARK    4  A    between atoms: O_4  and  C_30
REMARK    5  A    between atoms: O_6  and  C_27
REMARK    6  A    between atoms: O_6  and  C_37
REMARK    7  A    between atoms: C_23  and  C_29
REMARK    8  A    between atoms: C_24  and  C_32
REMARK    9  A    between atoms: C_38  and  C_41
REMARK                            x       y       z     vdW  Elec       q    Type
REMARK                         _______ _______ _______ _____ _____    ______ ____
ROOT
ATOM      1  O   UNL     1     111.398 128.024 139.372  0.00  0.00    +0.000 OA
ATOM      2  O   UNL     1     111.068 125.584 139.617  0.00  0.00    +0.000 OA
ATOM      3  O   UNL     1     110.068 126.634 140.405  0.00  0.00    +0.000 OA
ATOM      4  C   UNL     1     111.788 126.685 139.060  0.00  0.00    +0.000 C 
ATOM      5  C   UNL     1     111.178 126.397 139.536  0.00  0.00    +0.000 C 
ATOM      6  C   UNL     1     110.678 126.922 139.929  0.00  0.00    +0.000 C 
ATOM      7  C   UNL     1     110.788 127.736 139.847  0.00  0.00    +0.000 C 
ATOM      8  C   UNL     1     111.898 127.498 138.978  0.00  0.00    +0.000 C 
ENDROOT
BRANCH   4   9
ATOM      9  O   UNL     1     112.287 126.160 138.667  0.00  0.00    +0.000 OA
BRANCH   9  14
ATOM     10  O   UNL     1     111.274 125.837 137.651  0.00  0.00    +0.000 OA
ATOM     11  O   UNL     1     112.596 124.498 136.642  0.00  0.00    +0.000 OA
ATOM     12  O   UNL     1     113.238 125.000 137.680  0.00  0.00    +0.000 OA
ATOM     13  C   UNL     1     111.981 124.974 136.917  0.00  0.00    +0.000 C 
ATOM     14  C   UNL     1     112.022 125.766 137.992  0.00  0.00    +0.000 C 
ATOM     15  C   UNL     1     112.460 125.233 137.538  0.00  0.00    +0.000 C 
ATOM     16  C   UNL     1     111.249 125.347 136.987  0.00  0.00    +0.000 C 
BRANCH  13  18
ATOM     17  O   UNL     1     111.731 123.757 136.213  0.00  0.00    +0.000 OA
ATOM     18  C   UNL     1     111.716 124.581 136.242  0.00  0.00    +0.000 C 
ENDBRANCH  13  18
ENDBRANCH   9  14
ENDBRANCH   4   9
BRANCH   8  19
ATOM     19  O   UNL     1     112.507 127.787 138.503  0.00  0.00    +0.000 OA
BRANCH  19  24
ATOM     20  O   UNL     1     113.368 129.791 138.425  0.00  0.00    +0.000 OA
ATOM     21  O   UNL     1     113.232 127.872 139.983  0.00  0.00    +0.000 OA
ATOM     22  O   UNL     1     114.009 128.582 140.970  0.00  0.00    +0.000 OA
ATOM     23  O   UNL     1     114.939 131.284 140.370  0.00  0.00    +0.000 OA
ATOM     24  C   UNL     1     112.915 128.469 138.724  0.00  0.00    +0.000 A 
ATOM     25  C   UNL     1     112.960 129.109 138.204  0.00  0.00    +0.000 A 
ATOM     26  C   UNL     1     113.277 128.512 139.463  0.00  0.00    +0.000 A 
ATOM     27  C   UNL     1     113.685 129.194 139.684  0.00  0.00    +0.000 A 
ATOM     28  C   UNL     1     113.731 129.834 139.165  0.00  0.00    +0.000 A 
ATOM     29  C   UNL     1     114.059 129.226 140.457  0.00  0.00    +0.000 A 
ATOM     30  C   UNL     1     114.153 130.550 139.383  0.00  0.00    +0.000 A 
ATOM     31  C   UNL     1     114.485 129.934 140.693  0.00  0.00    +0.000 A 
ATOM     32  C   UNL     1     114.532 130.600 140.152  0.00  0.00    +0.000 A 
BRANCH  25  34
ATOM     33  O   UNL     1     111.510 128.938 135.245  0.00  0.00    +0.000 OA
ATOM     34  C   UNL     1     112.598 129.066 137.465  0.00  0.00    +0.000 A 
ATOM     35  C   UNL     1     112.980 128.688 136.839  0.00  0.00    +0.000 A 
ATOM     36  C   UNL     1     111.852 129.402 137.350  0.00  0.00    +0.000 A 
ATOM     37  C   UNL     1     112.617 128.645 136.099  0.00  0.00    +0.000 A 
ATOM     38  C   UNL     1     111.490 129.359 136.611  0.00  0.00    +0.000 A 
ATOM     39  C   UNL     1     111.873 128.981 135.985  0.00  0.00    +0.000 A 
ENDBRANCH  25  34
ENDBRANCH  19  24
ENDBRANCH   8  19
BRANCH   7  40
ATOM     40  C   UNL     1     110.289 128.262 140.241  0.00  0.00    +0.000 C 
BRANCH  40  41
ATOM     41  O   UNL     1     109.969 128.906 139.838  0.00  0.00    +0.000 OA
BRANCH  41  46
ATOM     42  O   UNL     1     109.791 129.667 141.035  0.00  0.00    +0.000 OA
ATOM     43  O   UNL     1     108.754 129.758 139.116  0.00  0.00    +0.000 OA
ATOM     44  O   UNL     1     107.969 130.944 139.952  0.00  0.00    +0.000 OA
ATOM     45  O   UNL     1     108.398 131.280 141.509  0.00  0.00    +0.000 OA
ATOM     46  C   UNL     1     109.576 129.500 140.256  0.00  0.00    +0.000 C 
ATOM     47  C   UNL     1     108.969 129.926 139.895  0.00  0.00    +0.000 C 
ATOM     48  C   UNL     1     108.576 130.519 140.313  0.00  0.00    +0.000 C 
ATOM     49  C   UNL     1     108.791 130.686 141.091  0.00  0.00    +0.000 C 
ATOM     50  C   UNL     1     109.398 130.261 141.452  0.00  0.00    +0.000 C 
ATOM     51  C   UNL     1     109.614 130.428 142.231  0.00  0.00    +0.000 C 
ENDBRANCH  41  46
ENDBRANCH  40  41
ENDBRANCH   7  40
TORSDOF 9
ENDMDL
MODEL 10
REMARK VINA RESULT:     -10.3      2.287      4.179
REMARK  Name = 5465152
REMARK  9 active torsions:
REMARK  status: ('A' for Active; 'I' for Inactive)
REMARK    1  A    between atoms: O_1  and  C_20
REMARK    2  A    between atoms: O_1  and  C_25
REMARK    3  A    between atoms: O_4  and  C_29
REMARK    4  A    between atoms: O_4  and  C_30
REMARK    5  A    between atoms: O_6  and  C_27
REMARK    6  A    between atoms: O_6  and  C_37
REMARK    7  A    between atoms: C_23  and  C_29
REMARK    8  A    between atoms: C_24  and  C_32
REMARK    9  A    between atoms: C_38  and  C_41
REMARK                            x       y       z     vdW  Elec       q    Type
REMARK                         _______ _______ _______ _____ _____    ______ ____
ROOT
ATOM      1  O   UNL     1     109.930 129.206 138.230  0.00  0.00    +0.000 OA
ATOM      2  O   UNL     1     108.440 131.156 138.546  0.00  0.00    +0.000 OA
ATOM      3  O   UNL     1     108.603 130.040 139.749  0.00  0.00    +0.000 OA
ATOM      4  C   UNL     1     109.351 130.415 137.733  0.00  0.00    +0.000 C 
ATOM      5  C   UNL     1     108.936 130.506 138.440  0.00  0.00    +0.000 C 
ATOM      6  C   UNL     1     109.018 129.948 139.042  0.00  0.00    +0.000 C 
ATOM      7  C   UNL     1     109.514 129.298 138.937  0.00  0.00    +0.000 C 
ATOM      8  C   UNL     1     109.848 129.764 137.628  0.00  0.00    +0.000 C 
ENDROOT
BRANCH   4   9
ATOM      9  O   UNL     1     109.270 130.972 137.131  0.00  0.00    +0.000 OA
BRANCH   9  14
ATOM     10  O   UNL     1     110.142 131.945 137.806  0.00  0.00    +0.000 OA
ATOM     11  O   UNL     1     110.048 133.295 136.156  0.00  0.00    +0.000 OA
ATOM     12  O   UNL     1     109.319 132.236 135.858  0.00  0.00    +0.000 OA
ATOM     13  C   UNL     1     110.179 132.885 136.859  0.00  0.00    +0.000 C 
ATOM     14  C   UNL     1     109.681 131.686 137.173  0.00  0.00    +0.000 C 
ATOM     15  C   UNL     1     109.704 132.267 136.587  0.00  0.00    +0.000 C 
ATOM     16  C   UNL     1     110.450 132.686 137.612  0.00  0.00    +0.000 C 
BRANCH  13  18
ATOM     17  O   UNL     1     110.813 133.986 136.207  0.00  0.00    +0.000 OA
ATOM     18  C   UNL     1     110.590 133.599 136.900  0.00  0.00    +0.000 C 
ENDBRANCH  13  18
ENDBRANCH   9  14
ENDBRANCH   4   9
BRANCH   8  19
ATOM     19  O   UNL     1     110.263 129.672 136.921  0.00  0.00    +0.000 OA
BRANCH  19  24
ATOM     20  O   UNL     1     111.178 127.866 136.106  0.00  0.00    +0.000 OA
ATOM     21  O   UNL     1     108.923 128.791 136.535  0.00  0.00    +0.000 OA
ATOM     22  O   UNL     1     108.302 127.601 136.005  0.00  0.00    +0.000 OA
ATOM     23  O   UNL     1     109.996 125.434 135.024  0.00  0.00    +0.000 OA
ATOM     24  C   UNL     1     110.345 128.923 136.585  0.00  0.00    +0.000 A 
ATOM     25  C   UNL     1     111.097 128.615 136.442  0.00  0.00    +0.000 A 
ATOM     26  C   UNL     1     109.675 128.483 136.392  0.00  0.00    +0.000 A 
ATOM     27  C   UNL     1     109.756 127.734 136.056  0.00  0.00    +0.000 A 
ATOM     28  C   UNL     1     110.507 127.425 135.913  0.00  0.00    +0.000 A 
ATOM     29  C   UNL     1     109.050 127.285 135.859  0.00  0.00    +0.000 A 
ATOM     30  C   UNL     1     110.605 126.646 135.563  0.00  0.00    +0.000 A 
ATOM     31  C   UNL     1     109.128 126.504 135.508  0.00  0.00    +0.000 A 
ATOM     32  C   UNL     1     109.911 126.183 135.360  0.00  0.00    +0.000 A 
BRANCH  25  34
ATOM     33  O   UNL     1     113.778 130.376 137.215  0.00  0.00    +0.000 OA
ATOM     34  C   UNL     1     111.767 129.055 136.636  0.00  0.00    +0.000 A 
ATOM     35  C   UNL     1     112.037 129.641 136.122  0.00  0.00    +0.000 A 
ATOM     36  C   UNL     1     112.167 128.909 137.342  0.00  0.00    +0.000 A 
ATOM     37  C   UNL     1     112.708 130.082 136.315  0.00  0.00    +0.000 A 
ATOM     38  C   UNL     1     112.837 129.349 137.535  0.00  0.00    +0.000 A 
ATOM     39  C   UNL     1     113.107 129.935 137.022  0.00  0.00    +0.000 A 
ENDBRANCH  25  34
ENDBRANCH  19  24
ENDBRANCH   8  19
BRANCH   7  40
ATOM     40  C   UNL     1     109.596 128.739 139.539  0.00  0.00    +0.000 C 
BRANCH  40  41
ATOM     41  O   UNL     1     109.513 127.936 139.370  0.00  0.00    +0.000 OA
BRANCH  41  46
ATOM     42  O   UNL     1     110.285 127.578 140.518  0.00  0.00    +0.000 OA
ATOM     43  O   UNL     1     108.924 126.398 139.286  0.00  0.00    +0.000 OA
ATOM     44  O   UNL     1     109.401 125.269 140.391  0.00  0.00    +0.000 OA
ATOM     45  O   UNL     1     110.467 125.680 141.582  0.00  0.00    +0.000 OA
ATOM     46  C   UNL     1     109.752 127.372 139.923  0.00  0.00    +0.000 C 
ATOM     47  C   UNL     1     109.457 126.602 139.881  0.00  0.00    +0.000 C 
ATOM     48  C   UNL     1     109.696 126.039 140.434  0.00  0.00    +0.000 C 
ATOM     49  C   UNL     1     110.229 126.244 141.028  0.00  0.00    +0.000 C 
ATOM     50  C   UNL     1     110.523 127.013 141.070  0.00  0.00    +0.000 C 
ATOM     51  C   UNL     1     111.057 127.219 141.666  0.00  0.00    +0.000 C 
ENDBRANCH  41  46
ENDBRANCH  40  41
ENDBRANCH   7  40
TORSDOF 9
ENDMDL
