MODEL 1
REMARK VINA RESULT:      -8.7      0.000      0.000
REMARK  Name = 5379400
REMARK  4 active torsions:
REMARK  status: ('A' for Active; 'I' for Inactive)
REMARK    1  A    between atoms: O_4  and  C_13
REMARK    2  A    between atoms: O_5  and  C_15
REMARK    3  A    between atoms: O_6  and  C_21
REMARK    4  A    between atoms: C_10  and  C_12
REMARK                            x       y       z     vdW  Elec       q    Type
REMARK                         _______ _______ _______ _____ _____    ______ ____
ROOT
ATOM      1  O   UNL     1     105.093 124.259 147.310  0.00  0.00    +0.000 OA
ATOM      2  O   UNL     1     107.491 125.582 146.389  0.00  0.00    +0.000 OA
ATOM      3  O   UNL     1     106.400 125.305 145.487  0.00  0.00    +0.000 OA
ATOM      4  C   UNL     1     106.279 124.913 146.856  0.00  0.00    +0.000 A 
ATOM      5  C   UNL     1     104.777 124.302 146.549  0.00  0.00    +0.000 A 
ATOM      6  C   UNL     1     105.844 124.564 147.463  0.00  0.00    +0.000 A 
ATOM      7  C   UNL     1     105.213 124.651 145.941  0.00  0.00    +0.000 A 
ATOM      8  C   UNL     1     105.964 124.957 146.094  0.00  0.00    +0.000 A 
ATOM      9  C   UNL     1     106.162 124.513 148.260  0.00  0.00    +0.000 A 
ATOM     10  C   UNL     1     107.063 125.235 147.002  0.00  0.00    +0.000 A 
ATOM     11  C   UNL     1     106.943 124.829 148.426  0.00  0.00    +0.000 A 
ATOM     12  C   UNL     1     107.397 125.193 147.792  0.00  0.00    +0.000 A 
ENDROOT
BRANCH   5  15
ATOM     13  O   UNL     1     101.853 124.457 146.499  0.00  0.00    +0.000 OA
ATOM     14  O   UNL     1     101.724 123.236 145.996  0.00  0.00    +0.000 OA
ATOM     15  C   UNL     1     104.027 123.997 146.396  0.00  0.00    +0.000 A 
ATOM     16  C   UNL     1     103.356 124.450 146.554  0.00  0.00    +0.000 A 
ATOM     17  C   UNL     1     102.606 124.145 146.401  0.00  0.00    +0.000 A 
ATOM     18  C   UNL     1     102.525 123.386 146.088  0.00  0.00    +0.000 A 
ATOM     19  C   UNL     1     103.947 123.238 146.083  0.00  0.00    +0.000 A 
ATOM     20  C   UNL     1     103.195 122.932 145.929  0.00  0.00    +0.000 A 
ATOM     21  C   UNL     1     101.310 123.896 146.249  0.00  0.00    +0.000 C 
ENDBRANCH   5  15
BRANCH   7  22
ATOM     22  O   UNL     1     104.898 124.695 145.180  0.00  0.00    +0.000 OA
ATOM     23  C   UNL     1     105.400 124.763 144.529  0.00  0.00    +0.000 C 
ENDBRANCH   7  22
BRANCH   9  24
ATOM     24  O   UNL     1     105.719 124.162 148.862  0.00  0.00    +0.000 OA
ATOM     25  C   UNL     1     105.410 124.627 149.469  0.00  0.00    +0.000 C 
ENDBRANCH   9  24
BRANCH  11  26
ATOM     26  O   UNL     1     107.256 124.784 149.188  0.00  0.00    +0.000 OA
ATOM     27  C   UNL     1     108.051 124.590 149.297  0.00  0.00    +0.000 C 
ENDBRANCH  11  26
TORSDOF 4
ENDMDL
MODEL 2
REMARK VINA RESULT:      -8.4      1.136      4.625
REMARK  Name = 5379400
REMARK  4 active torsions:
REMARK  status: ('A' for Active; 'I' for Inactive)
REMARK    1  A    between atoms: O_4  and  C_13
REMARK    2  A    between atoms: O_5  and  C_15
REMARK    3  A    between atoms: O_6  and  C_21
REMARK    4  A    between atoms: C_10  and  C_12
REMARK                            x       y       z     vdW  Elec       q    Type
REMARK                         _______ _______ _______ _____ _____    ______ ____
ROOT
ATOM      1  O   UNL     1     104.571 124.200 146.988  0.00  0.00    +0.000 OA
ATOM      2  O   UNL     1     101.853 125.056 147.463  0.00  0.00    +0.000 OA
ATOM      3  O   UNL     1     102.963 125.713 148.108  0.00  0.00    +0.000 OA
ATOM      4  C   UNL     1     103.226 124.623 147.222  0.00  0.00    +0.000 A 
ATOM      5  C   UNL     1     104.844 124.786 147.501  0.00  0.00    +0.000 A 
ATOM      6  C   UNL     1     103.762 124.118 146.849  0.00  0.00    +0.000 A 
ATOM      7  C   UNL     1     104.309 125.291 147.874  0.00  0.00    +0.000 A 
ATOM      8  C   UNL     1     103.499 125.209 147.735  0.00  0.00    +0.000 A 
ATOM      9  C   UNL     1     103.490 123.504 146.313  0.00  0.00    +0.000 A 
ATOM     10  C   UNL     1     102.380 124.548 147.086  0.00  0.00    +0.000 A 
ATOM     11  C   UNL     1     102.649 123.414 146.164  0.00  0.00    +0.000 A 
ATOM     12  C   UNL     1     102.090 123.940 146.553  0.00  0.00    +0.000 A 
ENDROOT
BRANCH   5  15
ATOM     13  O   UNL     1     107.304 124.261 149.001  0.00  0.00    +0.000 OA
ATOM     14  O   UNL     1     108.044 125.009 148.193  0.00  0.00    +0.000 OA
ATOM     15  C   UNL     1     105.653 124.868 147.640  0.00  0.00    +0.000 A 
ATOM     16  C   UNL     1     106.003 124.485 148.282  0.00  0.00    +0.000 A 
ATOM     17  C   UNL     1     106.811 124.567 148.421  0.00  0.00    +0.000 A 
ATOM     18  C   UNL     1     107.271 125.032 147.919  0.00  0.00    +0.000 A 
ATOM     19  C   UNL     1     106.113 125.333 147.138  0.00  0.00    +0.000 A 
ATOM     20  C   UNL     1     106.922 125.416 147.277  0.00  0.00    +0.000 A 
ATOM     21  C   UNL     1     108.064 124.534 148.860  0.00  0.00    +0.000 C 
ENDBRANCH   5  15
BRANCH   7  22
ATOM     22  O   UNL     1     104.581 125.877 148.386  0.00  0.00    +0.000 OA
ATOM     23  C   UNL     1     104.049 126.286 148.866  0.00  0.00    +0.000 C 
ENDBRANCH   7  22
BRANCH   9  24
ATOM     24  O   UNL     1     104.033 123.004 145.945  0.00  0.00    +0.000 OA
ATOM     25  C   UNL     1     104.132 123.036 145.126  0.00  0.00    +0.000 C 
ENDBRANCH   9  24
BRANCH  11  26
ATOM     26  O   UNL     1     102.378 122.827 145.651  0.00  0.00    +0.000 OA
ATOM     27  C   UNL     1     101.569 122.739 145.515  0.00  0.00    +0.000 C 
ENDBRANCH  11  26
TORSDOF 4
ENDMDL
MODEL 3
REMARK VINA RESULT:      -8.2      1.081      4.313
REMARK  Name = 5379400
REMARK  4 active torsions:
REMARK  status: ('A' for Active; 'I' for Inactive)
REMARK    1  A    between atoms: O_4  and  C_13
REMARK    2  A    between atoms: O_5  and  C_15
REMARK    3  A    between atoms: O_6  and  C_21
REMARK    4  A    between atoms: C_10  and  C_12
REMARK                            x       y       z     vdW  Elec       q    Type
REMARK                         _______ _______ _______ _____ _____    ______ ____
ROOT
ATOM      1  O   UNL     1     103.996 124.206 147.673  0.00  0.00    +0.000 OA
ATOM      2  O   UNL     1     103.034 123.457 145.054  0.00  0.00    +0.000 OA
ATOM      3  O   UNL     1     104.377 123.948 145.241  0.00  0.00    +0.000 OA
ATOM      4  C   UNL     1     103.519 123.836 146.378  0.00  0.00    +0.000 A 
ATOM      5  C   UNL     1     104.728 124.405 147.347  0.00  0.00    +0.000 A 
ATOM      6  C   UNL     1     103.392 123.922 147.189  0.00  0.00    +0.000 A 
ATOM      7  C   UNL     1     104.855 124.319 146.536  0.00  0.00    +0.000 A 
ATOM      8  C   UNL     1     104.250 124.034 146.052  0.00  0.00    +0.000 A 
ATOM      9  C   UNL     1     102.635 123.718 147.541  0.00  0.00    +0.000 A 
ATOM     10  C   UNL     1     102.898 123.540 145.862  0.00  0.00    +0.000 A 
ATOM     11  C   UNL     1     102.002 123.421 147.041  0.00  0.00    +0.000 A 
ATOM     12  C   UNL     1     102.134 123.331 146.196  0.00  0.00    +0.000 A 
ENDROOT
BRANCH   5  15
ATOM     13  O   UNL     1     107.053 124.070 149.095  0.00  0.00    +0.000 OA
ATOM     14  O   UNL     1     107.181 125.375 149.298  0.00  0.00    +0.000 OA
ATOM     15  C   UNL     1     105.331 124.690 147.831  0.00  0.00    +0.000 A 
ATOM     16  C   UNL     1     105.857 124.164 148.189  0.00  0.00    +0.000 A 
ATOM     17  C   UNL     1     106.460 124.449 148.673  0.00  0.00    +0.000 A 
ATOM     18  C   UNL     1     106.540 125.260 148.799  0.00  0.00    +0.000 A 
ATOM     19  C   UNL     1     105.411 125.502 147.957  0.00  0.00    +0.000 A 
ATOM     20  C   UNL     1     106.015 125.787 148.441  0.00  0.00    +0.000 A 
ATOM     21  C   UNL     1     107.497 124.642 149.480  0.00  0.00    +0.000 C 
ENDBRANCH   5  15
BRANCH   7  22
ATOM     22  O   UNL     1     105.585 124.518 146.210  0.00  0.00    +0.000 OA
ATOM     23  C   UNL     1     105.641 124.713 145.410  0.00  0.00    +0.000 C 
ENDBRANCH   7  22
BRANCH   9  24
ATOM     24  O   UNL     1     102.517 123.807 148.352  0.00  0.00    +0.000 OA
ATOM     25  C   UNL     1     102.022 124.404 148.633  0.00  0.00    +0.000 C 
ENDBRANCH   9  24
BRANCH  11  26
ATOM     26  O   UNL     1     101.272 123.223 147.370  0.00  0.00    +0.000 OA
ATOM     27  C   UNL     1     100.746 122.745 146.950  0.00  0.00    +0.000 C 
ENDBRANCH  11  26
TORSDOF 4
ENDMDL
MODEL 4
REMARK VINA RESULT:      -8.1      1.433      2.092
REMARK  Name = 5379400
REMARK  4 active torsions:
REMARK  status: ('A' for Active; 'I' for Inactive)
REMARK    1  A    between atoms: O_4  and  C_13
REMARK    2  A    between atoms: O_5  and  C_15
REMARK    3  A    between atoms: O_6  and  C_21
REMARK    4  A    between atoms: C_10  and  C_12
REMARK                            x       y       z     vdW  Elec       q    Type
REMARK                         _______ _______ _______ _____ _____    ______ ____
ROOT
ATOM      1  O   UNL     1     104.035 124.820 147.265  0.00  0.00    +0.000 OA
ATOM      2  O   UNL     1     106.077 124.434 145.258  0.00  0.00    +0.000 OA
ATOM      3  O   UNL     1     104.852 123.673 145.229  0.00  0.00    +0.000 OA
ATOM      4  C   UNL     1     105.045 124.630 146.273  0.00  0.00    +0.000 A 
ATOM      5  C   UNL     1     103.568 124.245 146.900  0.00  0.00    +0.000 A 
ATOM      6  C   UNL     1     104.773 125.012 146.951  0.00  0.00    +0.000 A 
ATOM      7  C   UNL     1     103.841 123.863 146.222  0.00  0.00    +0.000 A 
ATOM      8  C   UNL     1     104.580 124.055 145.908  0.00  0.00    +0.000 A 
ATOM      9  C   UNL     1     105.249 125.613 147.340  0.00  0.00    +0.000 A 
ATOM     10  C   UNL     1     105.813 124.821 145.936  0.00  0.00    +0.000 A 
ATOM     11  C   UNL     1     106.019 125.817 147.018  0.00  0.00    +0.000 A 
ATOM     12  C   UNL     1     106.303 125.419 146.311  0.00  0.00    +0.000 A 
ENDROOT
BRANCH   5  15
ATOM     13  O   UNL     1     101.798 122.739 148.682  0.00  0.00    +0.000 OA
ATOM     14  O   UNL     1     100.710 123.364 148.249  0.00  0.00    +0.000 OA
ATOM     15  C   UNL     1     102.830 124.053 147.214  0.00  0.00    +0.000 A 
ATOM     16  C   UNL     1     102.767 123.472 147.796  0.00  0.00    +0.000 A 
ATOM     17  C   UNL     1     102.030 123.280 148.110  0.00  0.00    +0.000 A 
ATOM     18  C   UNL     1     101.353 123.668 147.841  0.00  0.00    +0.000 A 
ATOM     19  C   UNL     1     102.154 124.441 146.944  0.00  0.00    +0.000 A 
ATOM     20  C   UNL     1     101.415 124.249 147.258  0.00  0.00    +0.000 A 
ATOM     21  C   UNL     1     100.984 122.792 148.767  0.00  0.00    +0.000 C 
ENDBRANCH   5  15
BRANCH   7  22
ATOM     22  O   UNL     1     103.375 123.288 145.857  0.00  0.00    +0.000 OA
ATOM     23  C   UNL     1     103.695 122.812 145.264  0.00  0.00    +0.000 C 
ENDBRANCH   7  22
BRANCH   9  24
ATOM     24  O   UNL     1     104.969 125.990 148.018  0.00  0.00    +0.000 OA
ATOM     25  C   UNL     1     105.367 125.898 148.735  0.00  0.00    +0.000 C 
ENDBRANCH   9  24
BRANCH  11  26
ATOM     26  O   UNL     1     106.483 126.392 147.385  0.00  0.00    +0.000 OA
ATOM     27  C   UNL     1     107.074 126.779 146.959  0.00  0.00    +0.000 C 
ENDBRANCH  11  26
TORSDOF 4
ENDMDL
MODEL 5
REMARK VINA RESULT:      -8.0      6.907      8.225
REMARK  Name = 5379400
REMARK  4 active torsions:
REMARK  status: ('A' for Active; 'I' for Inactive)
REMARK    1  A    between atoms: O_4  and  C_13
REMARK    2  A    between atoms: O_5  and  C_15
REMARK    3  A    between atoms: O_6  and  C_21
REMARK    4  A    between atoms: C_10  and  C_12
REMARK                            x       y       z     vdW  Elec       q    Type
REMARK                         _______ _______ _______ _____ _____    ______ ____
ROOT
ATOM      1  O   UNL     1     103.323 130.214 142.387  0.00  0.00    +0.000 OA
ATOM      2  O   UNL     1     104.311 127.891 140.983  0.00  0.00    +0.000 OA
ATOM      3  O   UNL     1     103.364 128.786 140.366  0.00  0.00    +0.000 OA
ATOM      4  C   UNL     1     103.812 129.065 141.694  0.00  0.00    +0.000 A 
ATOM      5  C   UNL     1     102.860 130.412 141.733  0.00  0.00    +0.000 A 
ATOM      6  C   UNL     1     103.799 129.541 142.367  0.00  0.00    +0.000 A 
ATOM      7  C   UNL     1     102.874 129.936 141.059  0.00  0.00    +0.000 A 
ATOM      8  C   UNL     1     103.350 129.262 141.039  0.00  0.00    +0.000 A 
ATOM      9  C   UNL     1     104.276 129.346 143.055  0.00  0.00    +0.000 A 
ATOM     10  C   UNL     1     104.304 128.360 141.660  0.00  0.00    +0.000 A 
ATOM     11  C   UNL     1     104.774 128.646 143.040  0.00  0.00    +0.000 A 
ATOM     12  C   UNL     1     104.788 128.149 142.338  0.00  0.00    +0.000 A 
ENDROOT
BRANCH   5  15
ATOM     13  O   UNL     1     102.364 133.273 141.354  0.00  0.00    +0.000 OA
ATOM     14  O   UNL     1     101.102 133.182 141.752  0.00  0.00    +0.000 OA
ATOM     15  C   UNL     1     102.385 131.085 141.752  0.00  0.00    +0.000 A 
ATOM     16  C   UNL     1     102.693 131.816 141.524  0.00  0.00    +0.000 A 
ATOM     17  C   UNL     1     102.217 132.489 141.543  0.00  0.00    +0.000 A 
ATOM     18  C   UNL     1     101.432 132.432 141.791  0.00  0.00    +0.000 A 
ATOM     19  C   UNL     1     101.600 131.028 142.000  0.00  0.00    +0.000 A 
ATOM     20  C   UNL     1     101.123 131.702 142.019  0.00  0.00    +0.000 A 
ATOM     21  C   UNL     1     101.676 133.700 141.483  0.00  0.00    +0.000 C 
ENDBRANCH   5  15
BRANCH   7  22
ATOM     22  O   UNL     1     102.412 130.133 140.405  0.00  0.00    +0.000 OA
ATOM     23  C   UNL     1     102.243 129.563 139.832  0.00  0.00    +0.000 C 
ENDBRANCH   7  22
BRANCH   9  24
ATOM     24  O   UNL     1     104.256 129.828 143.724  0.00  0.00    +0.000 OA
ATOM     25  C   UNL     1     104.916 130.280 143.925  0.00  0.00    +0.000 C 
ENDBRANCH   9  24
BRANCH  11  26
ATOM     26  O   UNL     1     105.235 128.451 143.696  0.00  0.00    +0.000 OA
ATOM     27  C   UNL     1     105.522 127.682 143.784  0.00  0.00    +0.000 C 
ENDBRANCH  11  26
TORSDOF 4
ENDMDL
MODEL 6
REMARK VINA RESULT:      -8.0     12.442     13.728
REMARK  Name = 5379400
REMARK  4 active torsions:
REMARK  status: ('A' for Active; 'I' for Inactive)
REMARK    1  A    between atoms: O_4  and  C_13
REMARK    2  A    between atoms: O_5  and  C_15
REMARK    3  A    between atoms: O_6  and  C_21
REMARK    4  A    between atoms: C_10  and  C_12
REMARK                            x       y       z     vdW  Elec       q    Type
REMARK                         _______ _______ _______ _____ _____    ______ ____
ROOT
ATOM      1  O   UNL     1     112.863 126.741 136.526  0.00  0.00    +0.000 OA
ATOM      2  O   UNL     1     110.527 125.374 135.516  0.00  0.00    +0.000 OA
ATOM      3  O   UNL     1     110.699 126.794 135.327  0.00  0.00    +0.000 OA
ATOM      4  C   UNL     1     111.709 126.064 136.027  0.00  0.00    +0.000 A 
ATOM      5  C   UNL     1     112.576 127.454 136.226  0.00  0.00    +0.000 A 
ATOM      6  C   UNL     1     112.430 126.046 136.426  0.00  0.00    +0.000 A 
ATOM      7  C   UNL     1     111.854 127.472 135.826  0.00  0.00    +0.000 A 
ATOM      8  C   UNL     1     111.420 126.776 135.727  0.00  0.00    +0.000 A 
ATOM      9  C   UNL     1     112.741 125.310 136.743  0.00  0.00    +0.000 A 
ATOM     10  C   UNL     1     111.247 125.347 135.916  0.00  0.00    +0.000 A 
ATOM     11  C   UNL     1     112.294 124.584 136.643  0.00  0.00    +0.000 A 
ATOM     12  C   UNL     1     111.542 124.602 136.226  0.00  0.00    +0.000 A 
ENDROOT
BRANCH   5  15
ATOM     13  O   UNL     1     113.388 129.835 137.725  0.00  0.00    +0.000 OA
ATOM     14  O   UNL     1     114.224 130.237 136.776  0.00  0.00    +0.000 OA
ATOM     15  C   UNL     1     113.009 128.148 136.325  0.00  0.00    +0.000 A 
ATOM     16  C   UNL     1     112.923 128.594 137.015  0.00  0.00    +0.000 A 
ATOM     17  C   UNL     1     113.356 129.288 137.114  0.00  0.00    +0.000 A 
ATOM     18  C   UNL     1     113.876 129.538 136.524  0.00  0.00    +0.000 A 
ATOM     19  C   UNL     1     113.528 128.398 135.735  0.00  0.00    +0.000 A 
ATOM     20  C   UNL     1     113.962 129.094 135.834  0.00  0.00    +0.000 A 
ATOM     21  C   UNL     1     113.923 130.420 137.515  0.00  0.00    +0.000 C 
ENDBRANCH   5  15
BRANCH   7  22
ATOM     22  O   UNL     1     111.566 128.184 135.526  0.00  0.00    +0.000 OA
ATOM     23  C   UNL     1     110.766 128.259 135.338  0.00  0.00    +0.000 C 
ENDBRANCH   7  22
BRANCH   9  24
ATOM     24  O   UNL     1     113.463 125.302 137.141  0.00  0.00    +0.000 OA
ATOM     25  C   UNL     1     114.120 124.942 136.795  0.00  0.00    +0.000 C 
ENDBRANCH   9  24
BRANCH  11  26
ATOM     26  O   UNL     1     112.584 123.872 136.944  0.00  0.00    +0.000 OA
ATOM     27  C   UNL     1     112.070 123.242 137.081  0.00  0.00    +0.000 C 
ENDBRANCH  11  26
TORSDOF 4
ENDMDL
MODEL 7
REMARK VINA RESULT:      -7.9     12.361     12.912
REMARK  Name = 5379400
REMARK  4 active torsions:
REMARK  status: ('A' for Active; 'I' for Inactive)
REMARK    1  A    between atoms: O_4  and  C_13
REMARK    2  A    between atoms: O_5  and  C_15
REMARK    3  A    between atoms: O_6  and  C_21
REMARK    4  A    between atoms: C_10  and  C_12
REMARK                            x       y       z     vdW  Elec       q    Type
REMARK                         _______ _______ _______ _____ _____    ______ ____
ROOT
ATOM      1  O   UNL     1     111.527 127.138 136.173  0.00  0.00    +0.000 OA
ATOM      2  O   UNL     1     111.861 124.270 136.101  0.00  0.00    +0.000 OA
ATOM      3  O   UNL     1     110.691 124.897 135.537  0.00  0.00    +0.000 OA
ATOM      4  C   UNL     1     111.693 125.720 136.138  0.00  0.00    +0.000 A 
ATOM      5  C   UNL     1     110.803 127.064 135.784  0.00  0.00    +0.000 A 
ATOM      6  C   UNL     1     111.971 126.467 136.350  0.00  0.00    +0.000 A 
ATOM      7  C   UNL     1     110.524 126.317 135.572  0.00  0.00    +0.000 A 
ATOM      8  C   UNL     1     110.970 125.644 135.749  0.00  0.00    +0.000 A 
ATOM      9  C   UNL     1     112.724 126.558 136.756  0.00  0.00    +0.000 A 
ATOM     10  C   UNL     1     112.147 125.012 136.317  0.00  0.00    +0.000 A 
ATOM     11  C   UNL     1     113.191 125.863 136.943  0.00  0.00    +0.000 A 
ATOM     12  C   UNL     1     112.901 125.084 136.722  0.00  0.00    +0.000 A 
ENDROOT
BRANCH   5  15
ATOM     13  O   UNL     1     108.731 129.052 136.359  0.00  0.00    +0.000 OA
ATOM     14  O   UNL     1     108.949 129.713 135.228  0.00  0.00    +0.000 OA
ATOM     15  C   UNL     1     110.358 127.735 135.607  0.00  0.00    +0.000 A 
ATOM     16  C   UNL     1     109.778 127.996 136.132  0.00  0.00    +0.000 A 
ATOM     17  C   UNL     1     109.333 128.667 135.955  0.00  0.00    +0.000 A 
ATOM     18  C   UNL     1     109.468 129.078 135.252  0.00  0.00    +0.000 A 
ATOM     19  C   UNL     1     110.493 128.145 134.904  0.00  0.00    +0.000 A 
ATOM     20  C   UNL     1     110.048 128.818 134.726  0.00  0.00    +0.000 A 
ATOM     21  C   UNL     1     108.495 129.697 135.910  0.00  0.00    +0.000 C 
ENDBRANCH   5  15
BRANCH   7  22
ATOM     22  O   UNL     1     109.801 126.241 135.182  0.00  0.00    +0.000 OA
ATOM     23  C   UNL     1     109.678 125.617 134.657  0.00  0.00    +0.000 C 
ENDBRANCH   7  22
BRANCH   9  24
ATOM     24  O   UNL     1     112.994 127.310 136.964  0.00  0.00    +0.000 OA
ATOM     25  C   UNL     1     113.013 127.535 137.757  0.00  0.00    +0.000 C 
ENDBRANCH   9  24
BRANCH  11  26
ATOM     26  O   UNL     1     113.915 125.941 137.332  0.00  0.00    +0.000 OA
ATOM     27  C   UNL     1     114.432 125.299 137.375  0.00  0.00    +0.000 C 
ENDBRANCH  11  26
TORSDOF 4
ENDMDL
MODEL 8
REMARK VINA RESULT:      -7.9      8.670     10.933
REMARK  Name = 5379400
REMARK  4 active torsions:
REMARK  status: ('A' for Active; 'I' for Inactive)
REMARK    1  A    between atoms: O_4  and  C_13
REMARK    2  A    between atoms: O_5  and  C_15
REMARK    3  A    between atoms: O_6  and  C_21
REMARK    4  A    between atoms: C_10  and  C_12
REMARK                            x       y       z     vdW  Elec       q    Type
REMARK                         _______ _______ _______ _____ _____    ______ ____
ROOT
ATOM      1  O   UNL     1     111.434 131.869 145.370  0.00  0.00    +0.000 OA
ATOM      2  O   UNL     1     111.980 132.581 142.624  0.00  0.00    +0.000 OA
ATOM      3  O   UNL     1     111.796 133.595 143.633  0.00  0.00    +0.000 OA
ATOM      4  C   UNL     1     111.704 132.220 144.012  0.00  0.00    +0.000 A 
ATOM      5  C   UNL     1     111.405 132.669 145.571  0.00  0.00    +0.000 A 
ATOM      6  C   UNL     1     111.583 131.645 144.591  0.00  0.00    +0.000 A 
ATOM      7  C   UNL     1     111.526 133.244 144.992  0.00  0.00    +0.000 A 
ATOM      8  C   UNL     1     111.675 133.020 144.212  0.00  0.00    +0.000 A 
ATOM      9  C   UNL     1     111.611 130.808 144.394  0.00  0.00    +0.000 A 
ATOM     10  C   UNL     1     111.861 131.999 143.195  0.00  0.00    +0.000 A 
ATOM     11  C   UNL     1     111.766 130.569 143.584  0.00  0.00    +0.000 A 
ATOM     12  C   UNL     1     111.892 131.168 142.980  0.00  0.00    +0.000 A 
ENDROOT
BRANCH   5  15
ATOM     13  O   UNL     1     112.197 133.155 148.348  0.00  0.00    +0.000 OA
ATOM     14  O   UNL     1     110.976 133.531 148.708  0.00  0.00    +0.000 OA
ATOM     15  C   UNL     1     111.255 132.893 146.350  0.00  0.00    +0.000 A 
ATOM     16  C   UNL     1     111.864 132.884 146.907  0.00  0.00    +0.000 A 
ATOM     17  C   UNL     1     111.715 133.109 147.686  0.00  0.00    +0.000 A 
ATOM     18  C   UNL     1     110.956 133.342 147.910  0.00  0.00    +0.000 A 
ATOM     19  C   UNL     1     110.496 133.127 146.574  0.00  0.00    +0.000 A 
ATOM     20  C   UNL     1     110.346 133.352 147.354  0.00  0.00    +0.000 A 
ATOM     21  C   UNL     1     111.741 133.416 148.978  0.00  0.00    +0.000 C 
ENDBRANCH   5  15
BRANCH   7  22
ATOM     22  O   UNL     1     111.497 134.044 145.193  0.00  0.00    +0.000 OA
ATOM     23  C   UNL     1     111.758 134.613 144.656  0.00  0.00    +0.000 C 
ENDBRANCH   7  22
BRANCH   9  24
ATOM     24  O   UNL     1     111.488 130.240 144.979  0.00  0.00    +0.000 OA
ATOM     25  C   UNL     1     110.792 129.798 144.985  0.00  0.00    +0.000 C 
ENDBRANCH   9  24
BRANCH  11  26
ATOM     26  O   UNL     1     111.794 129.768 143.386  0.00  0.00    +0.000 OA
ATOM     27  C   UNL     1     112.110 129.534 142.660  0.00  0.00    +0.000 C 
ENDBRANCH  11  26
TORSDOF 4
ENDMDL
MODEL 9
REMARK VINA RESULT:      -7.8      2.050      4.469
REMARK  Name = 5379400
REMARK  4 active torsions:
REMARK  status: ('A' for Active; 'I' for Inactive)
REMARK    1  A    between atoms: O_4  and  C_13
REMARK    2  A    between atoms: O_5  and  C_15
REMARK    3  A    between atoms: O_6  and  C_21
REMARK    4  A    between atoms: C_10  and  C_12
REMARK                            x       y       z     vdW  Elec       q    Type
REMARK                         _______ _______ _______ _____ _____    ______ ____
ROOT
ATOM      1  O   UNL     1     106.316 125.244 145.926  0.00  0.00    +0.000 OA
ATOM      2  O   UNL     1     106.391 127.409 144.015  0.00  0.00    +0.000 OA
ATOM      3  O   UNL     1     106.734 127.626 145.399  0.00  0.00    +0.000 OA
ATOM      4  C   UNL     1     106.353 126.314 144.981  0.00  0.00    +0.000 A 
ATOM      5  C   UNL     1     106.558 125.761 146.522  0.00  0.00    +0.000 A 
ATOM      6  C   UNL     1     106.213 125.520 145.156  0.00  0.00    +0.000 A 
ATOM      7  C   UNL     1     106.697 126.555 146.346  0.00  0.00    +0.000 A 
ATOM      8  C   UNL     1     106.595 126.832 145.575  0.00  0.00    +0.000 A 
ATOM      9  C   UNL     1     105.961 124.971 144.545  0.00  0.00    +0.000 A 
ATOM     10  C   UNL     1     106.249 126.614 144.181  0.00  0.00    +0.000 A 
ATOM     11  C   UNL     1     105.852 125.252 143.741  0.00  0.00    +0.000 A 
ATOM     12  C   UNL     1     105.998 126.080 143.558  0.00  0.00    +0.000 A 
ENDROOT
BRANCH   5  15
ATOM     13  O   UNL     1     108.140 124.586 148.687  0.00  0.00    +0.000 OA
ATOM     14  O   UNL     1     107.130 124.626 149.546  0.00  0.00    +0.000 OA
ATOM     15  C   UNL     1     106.660 125.486 147.292  0.00  0.00    +0.000 A 
ATOM     16  C   UNL     1     107.391 125.184 147.529  0.00  0.00    +0.000 A 
ATOM     17  C   UNL     1     107.494 124.909 148.299  0.00  0.00    +0.000 A 
ATOM     18  C   UNL     1     106.866 124.934 148.833  0.00  0.00    +0.000 A 
ATOM     19  C   UNL     1     106.032 125.511 147.826  0.00  0.00    +0.000 A 
ATOM     20  C   UNL     1     106.135 125.234 148.597  0.00  0.00    +0.000 A 
ATOM     21  C   UNL     1     107.915 124.412 149.456  0.00  0.00    +0.000 C 
ENDBRANCH   5  15
BRANCH   7  22
ATOM     22  O   UNL     1     106.939 127.074 146.941  0.00  0.00    +0.000 OA
ATOM     23  C   UNL     1     106.889 127.889 146.824  0.00  0.00    +0.000 C 
ENDBRANCH   7  22
BRANCH   9  24
ATOM     24  O   UNL     1     105.824 124.178 144.730  0.00  0.00    +0.000 OA
ATOM     25  C   UNL     1     105.053 123.886 144.743  0.00  0.00    +0.000 C 
ENDBRANCH   9  24
BRANCH  11  26
ATOM     26  O   UNL     1     105.610 124.732 143.148  0.00  0.00    +0.000 OA
ATOM     27  C   UNL     1     105.807 124.884 142.361  0.00  0.00    +0.000 C 
ENDBRANCH  11  26
TORSDOF 4
ENDMDL
MODEL 10
REMARK VINA RESULT:      -7.8     13.250     13.708
REMARK  Name = 5379400
REMARK  4 active torsions:
REMARK  status: ('A' for Active; 'I' for Inactive)
REMARK    1  A    between atoms: O_4  and  C_13
REMARK    2  A    between atoms: O_5  and  C_15
REMARK    3  A    between atoms: O_6  and  C_21
REMARK    4  A    between atoms: C_10  and  C_12
REMARK                            x       y       z     vdW  Elec       q    Type
REMARK                         _______ _______ _______ _____ _____    ______ ____
ROOT
ATOM      1  O   UNL     1     110.284 130.713 136.028  0.00  0.00    +0.000 OA
ATOM      2  O   UNL     1     112.392 131.324 137.906  0.00  0.00    +0.000 OA
ATOM      3  O   UNL     1     111.277 132.220 137.721  0.00  0.00    +0.000 OA
ATOM      4  C   UNL     1     111.327 131.014 136.956  0.00  0.00    +0.000 A 
ATOM      5  C   UNL     1     109.902 131.417 136.228  0.00  0.00    +0.000 A 
ATOM      6  C   UNL     1     110.996 130.512 136.391  0.00  0.00    +0.000 A 
ATOM      7  C   UNL     1     110.233 131.919 136.792  0.00  0.00    +0.000 A 
ATOM      8  C   UNL     1     110.946 131.718 137.157  0.00  0.00    +0.000 A 
ATOM      9  C   UNL     1     111.384 129.776 136.174  0.00  0.00    +0.000 A 
ATOM     10  C   UNL     1     112.069 130.816 137.343  0.00  0.00    +0.000 A 
ATOM     11  C   UNL     1     112.126 129.561 136.550  0.00  0.00    +0.000 A 
ATOM     12  C   UNL     1     112.471 130.085 137.138  0.00  0.00    +0.000 A 
ENDROOT
BRANCH   5  15
ATOM     13  O   UNL     1     106.982 131.392 136.006  0.00  0.00    +0.000 OA
ATOM     14  O   UNL     1     106.986 132.131 134.903  0.00  0.00    +0.000 OA
ATOM     15  C   UNL     1     109.190 131.618 135.864  0.00  0.00    +0.000 A 
ATOM     16  C   UNL     1     108.475 131.361 136.185  0.00  0.00    +0.000 A 
ATOM     17  C   UNL     1     107.763 131.562 135.821  0.00  0.00    +0.000 A 
ATOM     18  C   UNL     1     107.766 132.021 135.135  0.00  0.00    +0.000 A 
ATOM     19  C   UNL     1     109.193 132.077 135.178  0.00  0.00    +0.000 A 
ATOM     20  C   UNL     1     108.480 132.279 134.814  0.00  0.00    +0.000 A 
ATOM     21  C   UNL     1     106.504 131.743 135.440  0.00  0.00    +0.000 C 
ENDBRANCH   5  15
BRANCH   7  22
ATOM     22  O   UNL     1     109.852 132.623 136.993  0.00  0.00    +0.000 OA
ATOM     23  C   UNL     1     110.030 133.001 137.704  0.00  0.00    +0.000 C 
ENDBRANCH   7  22
BRANCH   9  24
ATOM     24  O   UNL     1     111.045 129.280 135.609  0.00  0.00    +0.000 OA
ATOM     25  C   UNL     1     111.403 129.194 134.870  0.00  0.00    +0.000 C 
ENDBRANCH   9  24
BRANCH  11  26
ATOM     26  O   UNL     1     112.505 128.857 136.348  0.00  0.00    +0.000 OA
ATOM     27  C   UNL     1     113.095 128.551 136.836  0.00  0.00    +0.000 C 
ENDBRANCH  11  26
TORSDOF 4
ENDMDL
