MODEL 1
REMARK VINA RESULT:      -7.8      0.000      0.000
REMARK  Name = 44260081
REMARK  5 active torsions:
REMARK  status: ('A' for Active; 'I' for Inactive)
REMARK    1  A    between atoms: O_2  and  C_13
REMARK    2  A    between atoms: O_3  and  C_16
REMARK    3  A    between atoms: O_4  and  C_17
REMARK    4  A    between atoms: O_5  and  C_18
REMARK    5  A    between atoms: C_12  and  C_19
REMARK                            x       y       z     vdW  Elec       q    Type
REMARK                         _______ _______ _______ _____ _____    ______ ____
ROOT
ATOM      1  O   UNL     1     104.533 124.825 147.129  0.00  0.00    +0.000 OA
ATOM      2  O   UNL     1     102.965 123.175 145.341  0.00  0.00    +0.000 OA
ATOM      3  O   UNL     1     104.273 123.615 144.920  0.00  0.00    +0.000 OA
ATOM      4  C   UNL     1     103.737 123.990 146.226  0.00  0.00    +0.000 A 
ATOM      5  C   UNL     1     103.819 124.383 146.946  0.00  0.00    +0.000 A 
ATOM      6  C   UNL     1     105.171 124.858 146.553  0.00  0.00    +0.000 A 
ATOM      7  C   UNL     1     103.211 124.355 147.503  0.00  0.00    +0.000 A 
ATOM      8  C   UNL     1     103.047 123.568 146.062  0.00  0.00    +0.000 A 
ATOM      9  C   UNL     1     104.363 124.011 145.638  0.00  0.00    +0.000 A 
ATOM     10  C   UNL     1     105.085 124.448 145.803  0.00  0.00    +0.000 A 
ATOM     11  C   UNL     1     102.521 123.934 147.339  0.00  0.00    +0.000 A 
ATOM     12  C   UNL     1     102.439 123.541 146.619  0.00  0.00    +0.000 A 
ENDROOT
BRANCH   6  15
ATOM     13  O   UNL     1     106.318 124.205 147.544  0.00  0.00    +0.000 OA
ATOM     14  O   UNL     1     107.928 126.543 147.220  0.00  0.00    +0.000 OA
ATOM     15  C   UNL     1     105.860 125.279 146.720  0.00  0.00    +0.000 A 
ATOM     16  C   UNL     1     106.433 124.953 147.215  0.00  0.00    +0.000 A 
ATOM     17  C   UNL     1     105.976 126.027 146.391  0.00  0.00    +0.000 A 
ATOM     18  C   UNL     1     107.122 125.374 147.382  0.00  0.00    +0.000 A 
ATOM     19  C   UNL     1     106.665 126.448 146.558  0.00  0.00    +0.000 A 
ATOM     20  C   UNL     1     107.239 126.122 147.053  0.00  0.00    +0.000 A 
ENDBRANCH   6  15
BRANCH   7  21
ATOM     21  O   UNL     1     103.293 124.748 148.223  0.00  0.00    +0.000 OA
ATOM     22  C   UNL     1     102.927 125.479 148.339  0.00  0.00    +0.000 C 
ENDBRANCH   7  21
BRANCH  10  23
ATOM     23  O   UNL     1     105.692 124.474 145.244  0.00  0.00    +0.000 OA
ATOM     24  C   UNL     1     105.518 124.392 144.441  0.00  0.00    +0.000 C 
ENDBRANCH  10  23
BRANCH  11  25
ATOM     25  O   UNL     1     101.912 123.906 147.896  0.00  0.00    +0.000 OA
ATOM     26  C   UNL     1     101.880 123.290 148.442  0.00  0.00    +0.000 C 
ENDBRANCH  11  25
BRANCH  12  27
ATOM     27  O   UNL     1     101.748 123.120 146.454  0.00  0.00    +0.000 OA
ATOM     28  C   UNL     1     101.196 123.426 145.924  0.00  0.00    +0.000 C 
ENDBRANCH  12  27
TORSDOF 5
ENDMDL
MODEL 2
REMARK VINA RESULT:      -7.7      1.129      4.141
REMARK  Name = 44260081
REMARK  5 active torsions:
REMARK  status: ('A' for Active; 'I' for Inactive)
REMARK    1  A    between atoms: O_2  and  C_13
REMARK    2  A    between atoms: O_3  and  C_16
REMARK    3  A    between atoms: O_4  and  C_17
REMARK    4  A    between atoms: O_5  and  C_18
REMARK    5  A    between atoms: C_12  and  C_19
REMARK                            x       y       z     vdW  Elec       q    Type
REMARK                         _______ _______ _______ _____ _____    ______ ____
ROOT
ATOM      1  O   UNL     1     104.841 124.264 147.125  0.00  0.00    +0.000 OA
ATOM      2  O   UNL     1     107.217 125.396 145.920  0.00  0.00    +0.000 OA
ATOM      3  O   UNL     1     106.124 124.994 145.068  0.00  0.00    +0.000 OA
ATOM      4  C   UNL     1     106.045 124.837 146.517  0.00  0.00    +0.000 A 
ATOM      5  C   UNL     1     105.629 124.600 147.189  0.00  0.00    +0.000 A 
ATOM      6  C   UNL     1     104.481 124.173 146.349  0.00  0.00    +0.000 A 
ATOM      7  C   UNL     1     105.970 124.684 147.936  0.00  0.00    +0.000 A 
ATOM      8  C   UNL     1     106.801 125.159 146.592  0.00  0.00    +0.000 A 
ATOM      9  C   UNL     1     105.702 124.754 145.734  0.00  0.00    +0.000 A 
ATOM     10  C   UNL     1     104.914 124.420 145.650  0.00  0.00    +0.000 A 
ATOM     11  C   UNL     1     106.725 125.006 148.011  0.00  0.00    +0.000 A 
ATOM     12  C   UNL     1     107.141 125.243 147.339  0.00  0.00    +0.000 A 
ENDROOT
BRANCH   6  15
ATOM     13  O   UNL     1     103.155 125.106 146.656  0.00  0.00    +0.000 OA
ATOM     14  O   UNL     1     101.456 122.887 146.062  0.00  0.00    +0.000 OA
ATOM     15  C   UNL     1     103.725 123.851 146.277  0.00  0.00    +0.000 A 
ATOM     16  C   UNL     1     103.062 124.318 146.431  0.00  0.00    +0.000 A 
ATOM     17  C   UNL     1     103.632 123.063 146.052  0.00  0.00    +0.000 A 
ATOM     18  C   UNL     1     102.306 123.996 146.359  0.00  0.00    +0.000 A 
ATOM     19  C   UNL     1     102.875 122.742 145.980  0.00  0.00    +0.000 A 
ATOM     20  C   UNL     1     102.212 123.208 146.133  0.00  0.00    +0.000 A 
ENDBRANCH   6  15
BRANCH   7  21
ATOM     21  O   UNL     1     105.554 124.447 148.608  0.00  0.00    +0.000 OA
ATOM     22  C   UNL     1     105.230 125.012 149.114  0.00  0.00    +0.000 C 
ENDBRANCH   7  21
BRANCH  10  23
ATOM     23  O   UNL     1     104.577 124.337 144.901  0.00  0.00    +0.000 OA
ATOM     24  C   UNL     1     105.059 124.273 144.235  0.00  0.00    +0.000 C 
ENDBRANCH  10  23
BRANCH  11  25
ATOM     25  O   UNL     1     107.066 125.090 148.758  0.00  0.00    +0.000 OA
ATOM     26  C   UNL     1     107.558 124.500 149.056  0.00  0.00    +0.000 C 
ENDBRANCH  11  25
BRANCH  12  27
ATOM     27  O   UNL     1     107.898 125.565 147.414  0.00  0.00    +0.000 OA
ATOM     28  C   UNL     1     108.021 126.366 147.262  0.00  0.00    +0.000 C 
ENDBRANCH  12  27
TORSDOF 5
ENDMDL
MODEL 3
REMARK VINA RESULT:      -7.6      0.955      4.564
REMARK  Name = 44260081
REMARK  5 active torsions:
REMARK  status: ('A' for Active; 'I' for Inactive)
REMARK    1  A    between atoms: O_2  and  C_13
REMARK    2  A    between atoms: O_3  and  C_16
REMARK    3  A    between atoms: O_4  and  C_17
REMARK    4  A    between atoms: O_5  and  C_18
REMARK    5  A    between atoms: C_12  and  C_19
REMARK                            x       y       z     vdW  Elec       q    Type
REMARK                         _______ _______ _______ _____ _____    ______ ____
ROOT
ATOM      1  O   UNL     1     104.175 124.558 146.046  0.00  0.00    +0.000 OA
ATOM      2  O   UNL     1     106.120 125.337 148.043  0.00  0.00    +0.000 OA
ATOM      3  O   UNL     1     104.877 124.743 148.472  0.00  0.00    +0.000 OA
ATOM      4  C   UNL     1     105.161 124.953 147.055  0.00  0.00    +0.000 A 
ATOM      5  C   UNL     1     104.935 124.894 146.264  0.00  0.00    +0.000 A 
ATOM      6  C   UNL     1     103.642 124.280 146.661  0.00  0.00    +0.000 A 
ATOM      7  C   UNL     1     105.442 125.160 145.670  0.00  0.00    +0.000 A 
ATOM      8  C   UNL     1     105.894 125.278 147.252  0.00  0.00    +0.000 A 
ATOM      9  C   UNL     1     104.643 124.680 147.683  0.00  0.00    +0.000 A 
ATOM     10  C   UNL     1     103.878 124.341 147.485  0.00  0.00    +0.000 A 
ATOM     11  C   UNL     1     106.174 125.485 145.866  0.00  0.00    +0.000 A 
ATOM     12  C   UNL     1     106.400 125.544 146.657  0.00  0.00    +0.000 A 
ENDROOT
BRANCH   6  15
ATOM     13  O   UNL     1     103.555 122.740 146.074  0.00  0.00    +0.000 OA
ATOM     14  O   UNL     1     100.716 122.982 145.863  0.00  0.00    +0.000 OA
ATOM     15  C   UNL     1     102.911 123.956 146.462  0.00  0.00    +0.000 A 
ATOM     16  C   UNL     1     102.867 123.186 146.168  0.00  0.00    +0.000 A 
ATOM     17  C   UNL     1     102.223 124.401 146.556  0.00  0.00    +0.000 A 
ATOM     18  C   UNL     1     102.136 122.862 145.969  0.00  0.00    +0.000 A 
ATOM     19  C   UNL     1     101.491 124.076 146.356  0.00  0.00    +0.000 A 
ATOM     20  C   UNL     1     101.447 123.306 146.062  0.00  0.00    +0.000 A 
ENDBRANCH   6  15
BRANCH   7  21
ATOM     21  O   UNL     1     105.216 125.101 144.878  0.00  0.00    +0.000 OA
ATOM     22  C   UNL     1     105.591 124.561 144.381  0.00  0.00    +0.000 C 
ENDBRANCH   7  21
BRANCH  10  23
ATOM     23  O   UNL     1     103.374 124.076 148.083  0.00  0.00    +0.000 OA
ATOM     24  C   UNL     1     103.442 124.381 148.846  0.00  0.00    +0.000 C 
ENDBRANCH  10  23
BRANCH  11  25
ATOM     25  O   UNL     1     106.681 125.751 145.272  0.00  0.00    +0.000 OA
ATOM     26  C   UNL     1     106.636 126.531 145.009  0.00  0.00    +0.000 C 
ENDBRANCH  11  25
BRANCH  12  27
ATOM     27  O   UNL     1     107.133 125.868 146.854  0.00  0.00    +0.000 OA
ATOM     28  C   UNL     1     107.695 125.409 147.247  0.00  0.00    +0.000 C 
ENDBRANCH  12  27
TORSDOF 5
ENDMDL
MODEL 4
REMARK VINA RESULT:      -7.5      1.089      2.449
REMARK  Name = 44260081
REMARK  5 active torsions:
REMARK  status: ('A' for Active; 'I' for Inactive)
REMARK    1  A    between atoms: O_2  and  C_13
REMARK    2  A    between atoms: O_3  and  C_16
REMARK    3  A    between atoms: O_4  and  C_17
REMARK    4  A    between atoms: O_5  and  C_18
REMARK    5  A    between atoms: C_12  and  C_19
REMARK                            x       y       z     vdW  Elec       q    Type
REMARK                         _______ _______ _______ _____ _____    ______ ____
ROOT
ATOM      1  O   UNL     1     104.091 124.347 146.829  0.00  0.00    +0.000 OA
ATOM      2  O   UNL     1     101.772 124.167 148.553  0.00  0.00    +0.000 OA
ATOM      3  O   UNL     1     102.948 124.853 149.031  0.00  0.00    +0.000 OA
ATOM      4  C   UNL     1     102.916 124.254 147.699  0.00  0.00    +0.000 A 
ATOM      5  C   UNL     1     103.286 124.088 146.981  0.00  0.00    +0.000 A 
ATOM      6  C   UNL     1     104.517 124.785 147.433  0.00  0.00    +0.000 A 
ATOM      7  C   UNL     1     102.882 123.668 146.397  0.00  0.00    +0.000 A 
ATOM      8  C   UNL     1     102.142 124.000 147.834  0.00  0.00    +0.000 A 
ATOM      9  C   UNL     1     103.326 124.691 148.315  0.00  0.00    +0.000 A 
ATOM     10  C   UNL     1     104.132 124.958 148.182  0.00  0.00    +0.000 A 
ATOM     11  C   UNL     1     102.109 123.414 146.531  0.00  0.00    +0.000 A 
ATOM     12  C   UNL     1     101.739 123.580 147.250  0.00  0.00    +0.000 A 
ENDROOT
BRANCH   6  15
ATOM     13  O   UNL     1     104.797 126.108 146.489  0.00  0.00    +0.000 OA
ATOM     14  O   UNL     1     107.609 125.796 146.885  0.00  0.00    +0.000 OA
ATOM     15  C   UNL     1     105.290 125.037 147.296  0.00  0.00    +0.000 A 
ATOM     16  C   UNL     1     105.430 125.699 146.824  0.00  0.00    +0.000 A 
ATOM     17  C   UNL     1     105.923 124.628 147.632  0.00  0.00    +0.000 A 
ATOM     18  C   UNL     1     106.203 125.952 146.687  0.00  0.00    +0.000 A 
ATOM     19  C   UNL     1     106.697 124.882 147.494  0.00  0.00    +0.000 A 
ATOM     20  C   UNL     1     106.837 125.543 147.022  0.00  0.00    +0.000 A 
ENDBRANCH   6  15
BRANCH   7  21
ATOM     21  O   UNL     1     103.251 123.501 145.679  0.00  0.00    +0.000 OA
ATOM     22  C   UNL     1     103.525 122.739 145.522  0.00  0.00    +0.000 C 
ENDBRANCH   7  21
BRANCH  10  23
ATOM     23  O   UNL     1     104.533 125.378 148.768  0.00  0.00    +0.000 OA
ATOM     24  C   UNL     1     104.202 125.455 149.520  0.00  0.00    +0.000 C 
ENDBRANCH  10  23
BRANCH  11  25
ATOM     25  O   UNL     1     101.704 122.994 145.947  0.00  0.00    +0.000 OA
ATOM     26  C   UNL     1     101.152 123.377 145.471  0.00  0.00    +0.000 C 
ENDBRANCH  11  25
BRANCH  12  27
ATOM     27  O   UNL     1     100.965 123.326 147.384  0.00  0.00    +0.000 OA
ATOM     28  C   UNL     1     100.816 122.739 147.944  0.00  0.00    +0.000 C 
ENDBRANCH  12  27
TORSDOF 5
ENDMDL
MODEL 5
REMARK VINA RESULT:      -7.5     12.717     13.649
REMARK  Name = 44260081
REMARK  5 active torsions:
REMARK  status: ('A' for Active; 'I' for Inactive)
REMARK    1  A    between atoms: O_2  and  C_13
REMARK    2  A    between atoms: O_3  and  C_16
REMARK    3  A    between atoms: O_4  and  C_17
REMARK    4  A    between atoms: O_5  and  C_18
REMARK    5  A    between atoms: C_12  and  C_19
REMARK                            x       y       z     vdW  Elec       q    Type
REMARK                         _______ _______ _______ _____ _____    ______ ____
ROOT
ATOM      1  O   UNL     1     112.924 127.304 136.502  0.00  0.00    +0.000 OA
ATOM      2  O   UNL     1     110.211 127.689 135.569  0.00  0.00    +0.000 OA
ATOM      3  O   UNL     1     110.661 126.353 135.880  0.00  0.00    +0.000 OA
ATOM      4  C   UNL     1     111.551 127.501 136.030  0.00  0.00    +0.000 A 
ATOM      5  C   UNL     1     112.287 127.813 136.232  0.00  0.00    +0.000 A 
ATOM      6  C   UNL     1     112.791 126.456 136.563  0.00  0.00    +0.000 A 
ATOM      7  C   UNL     1     112.420 128.626 136.175  0.00  0.00    +0.000 A 
ATOM      8  C   UNL     1     110.947 128.001 135.771  0.00  0.00    +0.000 A 
ATOM      9  C   UNL     1     111.400 126.657 136.084  0.00  0.00    +0.000 A 
ATOM     10  C   UNL     1     112.025 126.131 136.353  0.00  0.00    +0.000 A 
ATOM     11  C   UNL     1     111.817 129.126 135.917  0.00  0.00    +0.000 A 
ATOM     12  C   UNL     1     111.081 128.813 135.715  0.00  0.00    +0.000 A 
ENDROOT
BRANCH   6  15
ATOM     13  O   UNL     1     113.119 126.325 138.174  0.00  0.00    +0.000 OA
ATOM     14  O   UNL     1     115.212 124.467 137.598  0.00  0.00    +0.000 OA
ATOM     15  C   UNL     1     113.397 125.959 136.821  0.00  0.00    +0.000 A 
ATOM     16  C   UNL     1     113.561 125.893 137.627  0.00  0.00    +0.000 A 
ATOM     17  C   UNL     1     113.838 125.527 136.274  0.00  0.00    +0.000 A 
ATOM     18  C   UNL     1     114.165 125.396 137.886  0.00  0.00    +0.000 A 
ATOM     19  C   UNL     1     114.443 125.029 136.533  0.00  0.00    +0.000 A 
ATOM     20  C   UNL     1     114.607 124.964 137.339  0.00  0.00    +0.000 A 
ENDBRANCH   6  15
BRANCH   7  21
ATOM     21  O   UNL     1     113.156 128.938 136.377  0.00  0.00    +0.000 OA
ATOM     22  C   UNL     1     113.701 129.127 135.787  0.00  0.00    +0.000 C 
ENDBRANCH   7  21
BRANCH  10  23
ATOM     23  O   UNL     1     111.888 125.319 136.408  0.00  0.00    +0.000 OA
ATOM     24  C   UNL     1     111.229 124.985 136.041  0.00  0.00    +0.000 C 
ENDBRANCH  10  23
BRANCH  11  25
ATOM     25  O   UNL     1     111.949 129.938 135.860  0.00  0.00    +0.000 OA
ATOM     26  C   UNL     1     111.767 130.431 136.495  0.00  0.00    +0.000 C 
ENDBRANCH  11  25
BRANCH  12  27
ATOM     27  O   UNL     1     110.477 129.313 135.457  0.00  0.00    +0.000 OA
ATOM     28  C   UNL     1     110.248 129.308 134.664  0.00  0.00    +0.000 C 
ENDBRANCH  12  27
TORSDOF 5
ENDMDL
MODEL 6
REMARK VINA RESULT:      -7.4      9.774     12.057
REMARK  Name = 44260081
REMARK  5 active torsions:
REMARK  status: ('A' for Active; 'I' for Inactive)
REMARK    1  A    between atoms: O_2  and  C_13
REMARK    2  A    between atoms: O_3  and  C_16
REMARK    3  A    between atoms: O_4  and  C_17
REMARK    4  A    between atoms: O_5  and  C_18
REMARK    5  A    between atoms: C_12  and  C_19
REMARK                            x       y       z     vdW  Elec       q    Type
REMARK                         _______ _______ _______ _____ _____    ______ ____
ROOT
ATOM      1  O   UNL     1     113.360 126.387 138.660  0.00  0.00    +0.000 OA
ATOM      2  O   UNL     1     110.669 126.067 139.675  0.00  0.00    +0.000 OA
ATOM      3  O   UNL     1     111.062 125.338 138.493  0.00  0.00    +0.000 OA
ATOM      4  C   UNL     1     111.999 126.226 139.176  0.00  0.00    +0.000 A 
ATOM      5  C   UNL     1     112.747 126.570 139.233  0.00  0.00    +0.000 A 
ATOM      6  C   UNL     1     113.193 125.839 138.019  0.00  0.00    +0.000 A 
ATOM      7  C   UNL     1     112.913 127.096 139.846  0.00  0.00    +0.000 A 
ATOM      8  C   UNL     1     111.417 126.410 139.732  0.00  0.00    +0.000 A 
ATOM      9  C   UNL     1     111.813 125.677 138.542  0.00  0.00    +0.000 A 
ATOM     10  C   UNL     1     112.414 125.482 137.960  0.00  0.00    +0.000 A 
ATOM     11  C   UNL     1     112.332 127.279 140.402  0.00  0.00    +0.000 A 
ATOM     12  C   UNL     1     111.584 126.936 140.345  0.00  0.00    +0.000 A 
ENDROOT
BRANCH   6  15
ATOM     13  O   UNL     1     113.483 126.867 136.761  0.00  0.00    +0.000 OA
ATOM     14  O   UNL     1     115.525 125.115 135.800  0.00  0.00    +0.000 OA
ATOM     15  C   UNL     1     113.776 125.658 137.464  0.00  0.00    +0.000 A 
ATOM     16  C   UNL     1     113.921 126.172 136.835  0.00  0.00    +0.000 A 
ATOM     17  C   UNL     1     114.214 124.962 137.538  0.00  0.00    +0.000 A 
ATOM     18  C   UNL     1     114.504 125.991 136.281  0.00  0.00    +0.000 A 
ATOM     19  C   UNL     1     114.797 124.782 136.983  0.00  0.00    +0.000 A 
ATOM     20  C   UNL     1     114.942 125.296 136.354  0.00  0.00    +0.000 A 
ENDBRANCH   6  15
BRANCH   7  21
ATOM     21  O   UNL     1     113.661 127.439 139.903  0.00  0.00    +0.000 OA
ATOM     22  C   UNL     1     114.203 127.159 140.458  0.00  0.00    +0.000 C 
ENDBRANCH   7  21
BRANCH  10  23
ATOM     23  O   UNL     1     112.243 124.955 137.348  0.00  0.00    +0.000 OA
ATOM     24  C   UNL     1     111.603 124.439 137.413  0.00  0.00    +0.000 C 
ENDBRANCH  10  23
BRANCH  11  25
ATOM     25  O   UNL     1     112.499 127.806 141.015  0.00  0.00    +0.000 OA
ATOM     26  C   UNL     1     112.331 128.608 140.928  0.00  0.00    +0.000 C 
ENDBRANCH  11  25
BRANCH  12  27
ATOM     27  O   UNL     1     111.002 127.119 140.901  0.00  0.00    +0.000 OA
ATOM     28  C   UNL     1     110.743 126.543 141.431  0.00  0.00    +0.000 C 
ENDBRANCH  12  27
TORSDOF 5
ENDMDL
MODEL 7
REMARK VINA RESULT:      -7.3      8.920     10.959
REMARK  Name = 44260081
REMARK  5 active torsions:
REMARK  status: ('A' for Active; 'I' for Inactive)
REMARK    1  A    between atoms: O_2  and  C_13
REMARK    2  A    between atoms: O_3  and  C_16
REMARK    3  A    between atoms: O_4  and  C_17
REMARK    4  A    between atoms: O_5  and  C_18
REMARK    5  A    between atoms: C_12  and  C_19
REMARK                            x       y       z     vdW  Elec       q    Type
REMARK                         _______ _______ _______ _____ _____    ______ ____
ROOT
ATOM      1  O   UNL     1     111.700 131.603 145.320  0.00  0.00    +0.000 OA
ATOM      2  O   UNL     1     111.693 132.409 142.540  0.00  0.00    +0.000 OA
ATOM      3  O   UNL     1     111.890 133.412 143.559  0.00  0.00    +0.000 OA
ATOM      4  C   UNL     1     111.696 132.009 143.913  0.00  0.00    +0.000 A 
ATOM      5  C   UNL     1     111.634 131.417 144.484  0.00  0.00    +0.000 A 
ATOM      6  C   UNL     1     111.833 132.416 145.565  0.00  0.00    +0.000 A 
ATOM      7  C   UNL     1     111.507 130.634 144.255  0.00  0.00    +0.000 A 
ATOM      8  C   UNL     1     111.631 131.818 143.112  0.00  0.00    +0.000 A 
ATOM      9  C   UNL     1     111.829 132.827 144.137  0.00  0.00    +0.000 A 
ATOM     10  C   UNL     1     111.898 133.032 144.970  0.00  0.00    +0.000 A 
ATOM     11  C   UNL     1     111.441 130.444 143.456  0.00  0.00    +0.000 A 
ATOM     12  C   UNL     1     111.503 131.035 142.884  0.00  0.00    +0.000 A 
ENDROOT
BRANCH   6  15
ATOM     13  O   UNL     1     113.232 132.092 146.377  0.00  0.00    +0.000 OA
ATOM     14  O   UNL     1     112.094 133.167 148.767  0.00  0.00    +0.000 OA
ATOM     15  C   UNL     1     111.898 132.604 146.365  0.00  0.00    +0.000 A 
ATOM     16  C   UNL     1     112.598 132.442 146.772  0.00  0.00    +0.000 A 
ATOM     17  C   UNL     1     111.263 132.954 146.760  0.00  0.00    +0.000 A 
ATOM     18  C   UNL     1     112.663 132.630 147.571  0.00  0.00    +0.000 A 
ATOM     19  C   UNL     1     111.329 133.142 147.561  0.00  0.00    +0.000 A 
ATOM     20  C   UNL     1     112.029 132.980 147.967  0.00  0.00    +0.000 A 
ENDBRANCH   6  15
BRANCH   7  21
ATOM     21  O   UNL     1     111.444 130.043 144.827  0.00  0.00    +0.000 OA
ATOM     22  C   UNL     1     110.703 129.754 145.043  0.00  0.00    +0.000 C 
ENDBRANCH   7  21
BRANCH  10  23
ATOM     23  O   UNL     1     112.025 133.816 145.195  0.00  0.00    +0.000 OA
ATOM     24  C   UNL     1     111.862 134.429 144.667  0.00  0.00    +0.000 C 
ENDBRANCH  10  23
BRANCH  11  25
ATOM     25  O   UNL     1     111.314 129.661 143.227  0.00  0.00    +0.000 OA
ATOM     26  C   UNL     1     111.953 129.179 143.031  0.00  0.00    +0.000 C 
ENDBRANCH  11  25
BRANCH  12  27
ATOM     27  O   UNL     1     111.438 130.845 142.083  0.00  0.00    +0.000 OA
ATOM     28  C   UNL     1     110.748 131.031 141.671  0.00  0.00    +0.000 C 
ENDBRANCH  12  27
TORSDOF 5
ENDMDL
MODEL 8
REMARK VINA RESULT:      -7.3     12.375     14.227
REMARK  Name = 44260081
REMARK  5 active torsions:
REMARK  status: ('A' for Active; 'I' for Inactive)
REMARK    1  A    between atoms: O_2  and  C_13
REMARK    2  A    between atoms: O_3  and  C_16
REMARK    3  A    between atoms: O_4  and  C_17
REMARK    4  A    between atoms: O_5  and  C_18
REMARK    5  A    between atoms: C_12  and  C_19
REMARK                            x       y       z     vdW  Elec       q    Type
REMARK                         _______ _______ _______ _____ _____    ______ ____
ROOT
ATOM      1  O   UNL     1     113.545 127.852 136.164  0.00  0.00    +0.000 OA
ATOM      2  O   UNL     1     110.848 126.866 135.797  0.00  0.00    +0.000 OA
ATOM      3  O   UNL     1     111.182 128.186 135.318  0.00  0.00    +0.000 OA
ATOM      4  C   UNL     1     112.181 127.351 135.979  0.00  0.00    +0.000 A 
ATOM      5  C   UNL     1     112.950 127.239 136.256  0.00  0.00    +0.000 A 
ATOM      6  C   UNL     1     113.336 128.591 135.778  0.00  0.00    +0.000 A 
ATOM      7  C   UNL     1     113.156 126.531 136.627  0.00  0.00    +0.000 A 
ATOM      8  C   UNL     1     111.617 126.754 136.074  0.00  0.00    +0.000 A 
ATOM      9  C   UNL     1     111.953 128.082 135.591  0.00  0.00    +0.000 A 
ATOM     10  C   UNL     1     112.535 128.707 135.490  0.00  0.00    +0.000 A 
ATOM     11  C   UNL     1     112.594 125.936 136.721  0.00  0.00    +0.000 A 
ATOM     12  C   UNL     1     111.824 126.047 136.445  0.00  0.00    +0.000 A 
ENDROOT
BRANCH   6  15
ATOM     13  O   UNL     1     113.689 129.598 137.036  0.00  0.00    +0.000 OA
ATOM     14  O   UNL     1     115.594 130.968 135.407  0.00  0.00    +0.000 OA
ATOM     15  C   UNL     1     113.901 129.185 135.685  0.00  0.00    +0.000 A 
ATOM     16  C   UNL     1     114.077 129.689 136.314  0.00  0.00    +0.000 A 
ATOM     17  C   UNL     1     114.289 129.276 134.963  0.00  0.00    +0.000 A 
ATOM     18  C   UNL     1     114.641 130.283 136.222  0.00  0.00    +0.000 A 
ATOM     19  C   UNL     1     114.854 129.871 134.870  0.00  0.00    +0.000 A 
ATOM     20  C   UNL     1     115.030 130.374 135.499  0.00  0.00    +0.000 A 
ENDBRANCH   6  15
BRANCH   7  21
ATOM     21  O   UNL     1     113.925 126.420 136.904  0.00  0.00    +0.000 OA
ATOM     22  C   UNL     1     114.452 125.948 136.479  0.00  0.00    +0.000 C 
ENDBRANCH   7  21
BRANCH  10  23
ATOM     23  O   UNL     1     112.325 129.414 135.118  0.00  0.00    +0.000 OA
ATOM     24  C   UNL     1     111.574 129.499 134.788  0.00  0.00    +0.000 C 
ENDBRANCH  10  23
BRANCH  11  25
ATOM     25  O   UNL     1     112.800 125.228 137.092  0.00  0.00    +0.000 OA
ATOM     26  C   UNL     1     112.687 125.139 137.904  0.00  0.00    +0.000 C 
ENDBRANCH  11  25
BRANCH  12  27
ATOM     27  O   UNL     1     111.261 125.451 136.539  0.00  0.00    +0.000 OA
ATOM     28  C   UNL     1     111.014 125.011 135.887  0.00  0.00    +0.000 C 
ENDBRANCH  12  27
TORSDOF 5
ENDMDL
MODEL 9
REMARK VINA RESULT:      -7.3     11.937     13.075
REMARK  Name = 44260081
REMARK  5 active torsions:
REMARK  status: ('A' for Active; 'I' for Inactive)
REMARK    1  A    between atoms: O_2  and  C_13
REMARK    2  A    between atoms: O_3  and  C_16
REMARK    3  A    between atoms: O_4  and  C_17
REMARK    4  A    between atoms: O_5  and  C_18
REMARK    5  A    between atoms: C_12  and  C_19
REMARK                            x       y       z     vdW  Elec       q    Type
REMARK                         _______ _______ _______ _____ _____    ______ ____
ROOT
ATOM      1  O   UNL     1     111.223 127.340 136.509  0.00  0.00    +0.000 OA
ATOM      2  O   UNL     1     111.929 124.556 136.153  0.00  0.00    +0.000 OA
ATOM      3  O   UNL     1     110.763 125.073 135.479  0.00  0.00    +0.000 OA
ATOM      4  C   UNL     1     111.582 125.931 136.330  0.00  0.00    +0.000 A 
ATOM      5  C   UNL     1     111.735 126.669 136.667  0.00  0.00    +0.000 A 
ATOM      6  C   UNL     1     110.542 127.242 135.993  0.00  0.00    +0.000 A 
ATOM      7  C   UNL     1     112.386 126.768 137.163  0.00  0.00    +0.000 A 
ATOM      8  C   UNL     1     112.082 125.293 136.490  0.00  0.00    +0.000 A 
ATOM      9  C   UNL     1     110.908 125.814 135.812  0.00  0.00    +0.000 A 
ATOM     10  C   UNL     1     110.384 126.474 135.642  0.00  0.00    +0.000 A 
ATOM     11  C   UNL     1     112.885 126.132 137.323  0.00  0.00    +0.000 A 
ATOM     12  C   UNL     1     112.733 125.394 136.986  0.00  0.00    +0.000 A 
ENDROOT
BRANCH   6  15
ATOM     13  O   UNL     1     109.369 127.661 137.075  0.00  0.00    +0.000 OA
ATOM     14  O   UNL     1     108.552 129.798 135.363  0.00  0.00    +0.000 OA
ATOM     15  C   UNL     1     110.045 127.881 135.835  0.00  0.00    +0.000 A 
ATOM     16  C   UNL     1     109.458 128.091 136.376  0.00  0.00    +0.000 A 
ATOM     17  C   UNL     1     110.134 128.310 135.136  0.00  0.00    +0.000 A 
ATOM     18  C   UNL     1     108.961 128.729 136.219  0.00  0.00    +0.000 A 
ATOM     19  C   UNL     1     109.636 128.950 134.979  0.00  0.00    +0.000 A 
ATOM     20  C   UNL     1     109.049 129.159 135.520  0.00  0.00    +0.000 A 
ENDBRANCH   6  15
BRANCH   7  21
ATOM     21  O   UNL     1     112.539 127.506 137.500  0.00  0.00    +0.000 OA
ATOM     22  C   UNL     1     113.104 128.004 137.165  0.00  0.00    +0.000 C 
ENDBRANCH   7  21
BRANCH  10  23
ATOM     23  O   UNL     1     109.733 126.370 135.145  0.00  0.00    +0.000 OA
ATOM     24  C   UNL     1     109.716 125.740 134.613  0.00  0.00    +0.000 C 
ENDBRANCH  10  23
BRANCH  11  25
ATOM     25  O   UNL     1     113.537 126.231 137.819  0.00  0.00    +0.000 OA
ATOM     26  C   UNL     1     113.459 126.114 138.632  0.00  0.00    +0.000 C 
ENDBRANCH  11  25
BRANCH  12  27
ATOM     27  O   UNL     1     113.232 124.756 137.146  0.00  0.00    +0.000 OA
ATOM     28  C   UNL     1     113.794 124.524 136.589  0.00  0.00    +0.000 C 
ENDBRANCH  12  27
TORSDOF 5
ENDMDL
MODEL 10
REMARK VINA RESULT:      -7.2      9.887     12.326
REMARK  Name = 44260081
REMARK  5 active torsions:
REMARK  status: ('A' for Active; 'I' for Inactive)
REMARK    1  A    between atoms: O_2  and  C_13
REMARK    2  A    between atoms: O_3  and  C_16
REMARK    3  A    between atoms: O_4  and  C_17
REMARK    4  A    between atoms: O_5  and  C_18
REMARK    5  A    between atoms: C_12  and  C_19
REMARK                            x       y       z     vdW  Elec       q    Type
REMARK                         _______ _______ _______ _____ _____    ______ ____
ROOT
ATOM      1  O   UNL     1     111.807 126.381 138.050  0.00  0.00    +0.000 OA
ATOM      2  O   UNL     1     114.367 126.263 139.396  0.00  0.00    +0.000 OA
ATOM      3  O   UNL     1     114.269 125.790 138.036  0.00  0.00    +0.000 OA
ATOM      4  C   UNL     1     113.101 126.322 138.734  0.00  0.00    +0.000 A 
ATOM      5  C   UNL     1     112.299 126.516 138.741  0.00  0.00    +0.000 A 
ATOM      6  C   UNL     1     112.154 126.040 137.342  0.00  0.00    +0.000 A 
ATOM      7  C   UNL     1     111.961 126.844 139.419  0.00  0.00    +0.000 A 
ATOM      8  C   UNL     1     113.565 126.457 139.404  0.00  0.00    +0.000 A 
ATOM      9  C   UNL     1     113.466 125.981 138.035  0.00  0.00    +0.000 A 
ATOM     10  C   UNL     1     112.989 125.839 137.334  0.00  0.00    +0.000 A 
ATOM     11  C   UNL     1     112.423 126.978 140.088  0.00  0.00    +0.000 A 
ATOM     12  C   UNL     1     113.225 126.784 140.080  0.00  0.00    +0.000 A 
ENDROOT
BRANCH   6  15
ATOM     13  O   UNL     1     111.230 124.677 137.238  0.00  0.00    +0.000 OA
ATOM     14  O   UNL     1     110.293 125.507 134.670  0.00  0.00    +0.000 OA
ATOM     15  C   UNL     1     111.689 125.907 136.674  0.00  0.00    +0.000 A 
ATOM     16  C   UNL     1     111.227 125.226 136.622  0.00  0.00    +0.000 A 
ATOM     17  C   UNL     1     111.686 126.455 136.057  0.00  0.00    +0.000 A 
ATOM     18  C   UNL     1     110.762 125.092 135.955  0.00  0.00    +0.000 A 
ATOM     19  C   UNL     1     111.220 126.322 135.389  0.00  0.00    +0.000 A 
ATOM     20  C   UNL     1     110.758 125.640 135.337  0.00  0.00    +0.000 A 
ENDBRANCH   6  15
BRANCH   7  21
ATOM     21  O   UNL     1     111.159 127.037 139.426  0.00  0.00    +0.000 OA
ATOM     22  C   UNL     1     110.922 127.821 139.329  0.00  0.00    +0.000 C 
ENDBRANCH   7  21
BRANCH  10  23
ATOM     23  O   UNL     1     113.332 125.511 136.658  0.00  0.00    +0.000 OA
ATOM     24  C   UNL     1     114.153 125.458 136.595  0.00  0.00    +0.000 C 
ENDBRANCH  10  23
BRANCH  11  25
ATOM     25  O   UNL     1     112.085 127.305 140.765  0.00  0.00    +0.000 OA
ATOM     26  C   UNL     1     111.769 126.815 141.348  0.00  0.00    +0.000 C 
ENDBRANCH  11  25
BRANCH  12  27
ATOM     27  O   UNL     1     113.689 126.918 140.750  0.00  0.00    +0.000 OA
ATOM     28  C   UNL     1     114.242 127.530 140.753  0.00  0.00    +0.000 C 
ENDBRANCH  12  27
TORSDOF 5
ENDMDL
