MODEL 1
REMARK VINA RESULT:     -10.3      0.000      0.000
REMARK  Name = 
REMARK  7 active torsions:
REMARK  status: ('A' for Active; 'I' for Inactive)
REMARK    1  A    between atoms: O_2  and  C_22
REMARK    2  A    between atoms: O_2  and  C_26
REMARK    3  A    between atoms: O_6  and  C_25
REMARK    4  A    between atoms: O_6  and  C_29
REMARK    5  A    between atoms: O_15  and  C_41
REMARK    6  A    between atoms: C_17  and  C_26
REMARK    7  A    between atoms: C_30  and  C_33
REMARK                            x       y       z     vdW  Elec       q    Type
REMARK                         _______ _______ _______ _____ _____    ______ ____
ROOT
ATOM      1  O   UNL     1     112.623 128.359 135.905  0.00  0.00    +0.000 OA
ENDROOT
BRANCH   1   6
ATOM      2  O   UNL     1     111.148 126.219 136.331  0.00  0.00    +0.000 OA
ATOM      3  O   UNL     1     114.029 127.004 136.301  0.00  0.00    +0.000 OA
ATOM      4  O   UNL     1     114.511 125.383 136.710  0.00  0.00    +0.000 OA
ATOM      5  O   UNL     1     112.031 122.919 137.159  0.00  0.00    +0.000 OA
ATOM      6  C   UNL     1     112.365 127.420 136.113  0.00  0.00    +0.000 A 
ATOM      7  C   UNL     1     111.404 127.158 136.123  0.00  0.00    +0.000 A 
ATOM      8  C   UNL     1     113.068 126.742 136.311  0.00  0.00    +0.000 A 
ATOM      9  C   UNL     1     112.810 125.804 136.519  0.00  0.00    +0.000 A 
ATOM     10  C   UNL     1     111.849 125.542 136.529  0.00  0.00    +0.000 A 
ATOM     11  C   UNL     1     113.554 125.110 136.723  0.00  0.00    +0.000 A 
ATOM     12  C   UNL     1     111.566 124.568 136.744  0.00  0.00    +0.000 A 
ATOM     13  C   UNL     1     113.293 124.130 136.941  0.00  0.00    +0.000 A 
ATOM     14  C   UNL     1     112.292 123.857 136.951  0.00  0.00    +0.000 A 
BRANCH   7  16
ATOM     15  O   UNL     1     108.595 129.868 135.333  0.00  0.00    +0.000 OA
ATOM     16  C   UNL     1     110.703 127.835 135.925  0.00  0.00    +0.000 A 
ATOM     17  C   UNL     1     110.189 128.252 136.670  0.00  0.00    +0.000 A 
ATOM     18  C   UNL     1     110.513 128.096 134.984  0.00  0.00    +0.000 A 
ATOM     19  C   UNL     1     109.487 128.929 136.473  0.00  0.00    +0.000 A 
ATOM     20  C   UNL     1     109.810 128.773 134.785  0.00  0.00    +0.000 A 
ATOM     21  C   UNL     1     109.297 129.190 135.530  0.00  0.00    +0.000 A 
BRANCH  19  22
ATOM     22  O   UNL     1     108.974 129.347 137.217  0.00  0.00    +0.000 OA
ATOM     23  C   UNL     1     109.415 129.509 138.095  0.00  0.00    +0.000 C 
ENDBRANCH  19  22
ENDBRANCH   7  16
ENDBRANCH   1   6
BRANCH   1  32
ATOM     24  O   UNL     1     112.823 128.701 137.583  0.00  0.00    +0.000 OA
ATOM     25  O   UNL     1     113.930 130.755 138.805  0.00  0.00    +0.000 OA
ATOM     26  O   UNL     1     114.183 131.270 136.898  0.00  0.00    +0.000 OA
ATOM     27  O   UNL     1     113.530 130.072 135.448  0.00  0.00    +0.000 OA
ATOM     28  C   UNL     1     113.150 129.300 138.308  0.00  0.00    +0.000 C 
ATOM     29  C   UNL     1     113.603 130.156 138.080  0.00  0.00    +0.000 C 
ATOM     30  C   UNL     1     113.730 130.413 137.127  0.00  0.00    +0.000 C 
ATOM     31  C   UNL     1     113.403 129.815 136.402  0.00  0.00    +0.000 C 
ATOM     32  C   UNL     1     112.950 128.958 136.630  0.00  0.00    +0.000 C 
BRANCH  28  33
ATOM     33  C   UNL     1     113.023 129.042 139.262  0.00  0.00    +0.000 C 
BRANCH  33  34
ATOM     34  O   UNL     1     112.751 128.112 139.495  0.00  0.00    +0.000 OA
BRANCH  34  40
ATOM     35  O   UNL     1     111.735 128.721 140.746  0.00  0.00    +0.000 OA
ATOM     36  O   UNL     1     112.161 126.258 139.917  0.00  0.00    +0.000 OA
ATOM     37  O   UNL     1     110.849 125.940 141.381  0.00  0.00    +0.000 OA
ATOM     38  O   UNL     1     110.127 127.477 142.422  0.00  0.00    +0.000 OA
ATOM     39  C   UNL     1     111.800 127.027 140.438  0.00  0.00    +0.000 C 
ATOM     40  C   UNL     1     112.095 127.953 140.226  0.00  0.00    +0.000 C 
ATOM     41  C   UNL     1     111.144 126.868 141.169  0.00  0.00    +0.000 C 
ATOM     42  C   UNL     1     110.783 127.636 141.689  0.00  0.00    +0.000 C 
ATOM     43  C   UNL     1     111.079 128.562 141.478  0.00  0.00    +0.000 C 
ATOM     44  C   UNL     1     110.717 129.331 141.999  0.00  0.00    +0.000 C 
ENDBRANCH  34  40
ENDBRANCH  33  34
ENDBRANCH  28  33
ENDBRANCH   1  32
TORSDOF 7
ENDMDL
MODEL 2
REMARK VINA RESULT:     -10.2      1.443      3.214
REMARK  Name = 
REMARK  7 active torsions:
REMARK  status: ('A' for Active; 'I' for Inactive)
REMARK    1  A    between atoms: O_2  and  C_22
REMARK    2  A    between atoms: O_2  and  C_26
REMARK    3  A    between atoms: O_6  and  C_25
REMARK    4  A    between atoms: O_6  and  C_29
REMARK    5  A    between atoms: O_15  and  C_41
REMARK    6  A    between atoms: C_17  and  C_26
REMARK    7  A    between atoms: C_30  and  C_33
REMARK                            x       y       z     vdW  Elec       q    Type
REMARK                         _______ _______ _______ _____ _____    ______ ____
ROOT
ATOM      1  O   UNL     1     111.486 128.498 135.460  0.00  0.00    +0.000 OA
ENDROOT
BRANCH   1   6
ATOM      2  O   UNL     1     113.343 126.929 136.475  0.00  0.00    +0.000 OA
ATOM      3  O   UNL     1     110.537 126.746 135.467  0.00  0.00    +0.000 OA
ATOM      4  O   UNL     1     110.492 125.039 135.802  0.00  0.00    +0.000 OA
ATOM      5  O   UNL     1     113.339 123.486 137.183  0.00  0.00    +0.000 OA
ATOM      6  C   UNL     1     111.947 127.683 135.800  0.00  0.00    +0.000 A 
ATOM      7  C   UNL     1     112.883 127.745 136.136  0.00  0.00    +0.000 A 
ATOM      8  C   UNL     1     111.473 126.807 135.803  0.00  0.00    +0.000 A 
ATOM      9  C   UNL     1     111.934 125.993 136.143  0.00  0.00    +0.000 A 
ATOM     10  C   UNL     1     112.869 126.054 136.479  0.00  0.00    +0.000 A 
ATOM     11  C   UNL     1     111.426 125.088 136.140  0.00  0.00    +0.000 A 
ATOM     12  C   UNL     1     113.362 125.215 136.835  0.00  0.00    +0.000 A 
ATOM     13  C   UNL     1     111.901 124.236 136.492  0.00  0.00    +0.000 A 
ATOM     14  C   UNL     1     112.875 124.299 136.842  0.00  0.00    +0.000 A 
BRANCH   7  16
ATOM     15  O   UNL     1     114.777 131.248 136.122  0.00  0.00    +0.000 OA
ATOM     16  C   UNL     1     113.356 128.620 136.132  0.00  0.00    +0.000 A 
ATOM     17  C   UNL     1     113.435 129.146 136.973  0.00  0.00    +0.000 A 
ATOM     18  C   UNL     1     113.750 128.969 135.288  0.00  0.00    +0.000 A 
ATOM     19  C   UNL     1     113.908 130.022 136.970  0.00  0.00    +0.000 A 
ATOM     20  C   UNL     1     114.224 129.845 135.283  0.00  0.00    +0.000 A 
ATOM     21  C   UNL     1     114.303 130.372 136.125  0.00  0.00    +0.000 A 
BRANCH  19  22
ATOM     22  O   UNL     1     113.988 130.549 137.812  0.00  0.00    +0.000 OA
ATOM     23  C   UNL     1     113.448 130.296 138.609  0.00  0.00    +0.000 C 
ENDBRANCH  19  22
ENDBRANCH   7  16
ENDBRANCH   1   6
BRANCH   1  32
ATOM     24  O   UNL     1     110.623 128.660 136.945  0.00  0.00    +0.000 OA
ATOM     25  O   UNL     1     108.552 130.157 137.582  0.00  0.00    +0.000 OA
ATOM     26  O   UNL     1     108.809 130.663 135.673  0.00  0.00    +0.000 OA
ATOM     27  O   UNL     1     110.275 129.833 134.612  0.00  0.00    +0.000 OA
ATOM     28  C   UNL     1     109.890 129.074 137.475  0.00  0.00    +0.000 C 
ATOM     29  C   UNL     1     109.286 129.742 137.052  0.00  0.00    +0.000 C 
ATOM     30  C   UNL     1     109.414 129.995 136.097  0.00  0.00    +0.000 C 
ATOM     31  C   UNL     1     110.147 129.580 135.567  0.00  0.00    +0.000 C 
ATOM     32  C   UNL     1     110.752 128.913 135.991  0.00  0.00    +0.000 C 
BRANCH  28  33
ATOM     33  C   UNL     1     109.762 128.821 138.430  0.00  0.00    +0.000 C 
BRANCH  33  34
ATOM     34  O   UNL     1     110.022 127.912 138.743  0.00  0.00    +0.000 OA
BRANCH  34  40
ATOM     35  O   UNL     1     109.122 128.152 140.194  0.00  0.00    +0.000 OA
ATOM     36  O   UNL     1     110.414 126.040 139.296  0.00  0.00    +0.000 OA
ATOM     37  O   UNL     1     109.711 125.343 141.023  0.00  0.00    +0.000 OA
ATOM     38  O   UNL     1     108.614 126.519 142.198  0.00  0.00    +0.000 OA
ATOM     39  C   UNL     1     109.866 126.628 139.883  0.00  0.00    +0.000 C 
ATOM     40  C   UNL     1     109.670 127.564 139.607  0.00  0.00    +0.000 C 
ATOM     41  C   UNL     1     109.514 126.280 140.747  0.00  0.00    +0.000 C 
ATOM     42  C   UNL     1     108.966 126.868 141.334  0.00  0.00    +0.000 C 
ATOM     43  C   UNL     1     108.770 127.803 141.058  0.00  0.00    +0.000 C 
ATOM     44  C   UNL     1     108.221 128.391 141.646  0.00  0.00    +0.000 C 
ENDBRANCH  34  40
ENDBRANCH  33  34
ENDBRANCH  28  33
ENDBRANCH   1  32
TORSDOF 7
ENDMDL
MODEL 3
REMARK VINA RESULT:     -10.2      1.466      5.263
REMARK  Name = 
REMARK  7 active torsions:
REMARK  status: ('A' for Active; 'I' for Inactive)
REMARK    1  A    between atoms: O_2  and  C_22
REMARK    2  A    between atoms: O_2  and  C_26
REMARK    3  A    between atoms: O_6  and  C_25
REMARK    4  A    between atoms: O_6  and  C_29
REMARK    5  A    between atoms: O_15  and  C_41
REMARK    6  A    between atoms: C_17  and  C_26
REMARK    7  A    between atoms: C_30  and  C_33
REMARK                            x       y       z     vdW  Elec       q    Type
REMARK                         _______ _______ _______ _____ _____    ______ ____
ROOT
ATOM      1  O   UNL     1     112.553 127.110 138.519  0.00  0.00    +0.000 OA
ENDROOT
BRANCH   1   6
ATOM      2  O   UNL     1     113.399 127.772 136.114  0.00  0.00    +0.000 OA
ATOM      3  O   UNL     1     113.124 128.994 138.826  0.00  0.00    +0.000 OA
ATOM      4  O   UNL     1     113.790 130.496 138.254  0.00  0.00    +0.000 OA
ATOM      5  O   UNL     1     114.752 130.770 134.874  0.00  0.00    +0.000 OA
ATOM      6  C   UNL     1     112.930 127.644 137.769  0.00  0.00    +0.000 A 
ATOM      7  C   UNL     1     113.021 127.237 136.864  0.00  0.00    +0.000 A 
ATOM      8  C   UNL     1     113.216 128.586 137.922  0.00  0.00    +0.000 A 
ATOM      9  C   UNL     1     113.593 129.120 137.171  0.00  0.00    +0.000 A 
ATOM     10  C   UNL     1     113.684 128.713 136.266  0.00  0.00    +0.000 A 
ATOM     11  C   UNL     1     113.886 130.100 137.346  0.00  0.00    +0.000 A 
ATOM     12  C   UNL     1     114.075 129.257 135.475  0.00  0.00    +0.000 A 
ATOM     13  C   UNL     1     114.280 130.662 136.569  0.00  0.00    +0.000 A 
ATOM     14  C   UNL     1     114.375 130.238 135.627  0.00  0.00    +0.000 A 
BRANCH   7  16
ATOM     15  O   UNL     1     111.876 123.472 136.253  0.00  0.00    +0.000 OA
ATOM     16  C   UNL     1     112.736 126.296 136.712  0.00  0.00    +0.000 A 
ATOM     17  C   UNL     1     111.876 126.106 136.247  0.00  0.00    +0.000 A 
ATOM     18  C   UNL     1     113.308 125.544 137.024  0.00  0.00    +0.000 A 
ATOM     19  C   UNL     1     111.589 125.165 136.094  0.00  0.00    +0.000 A 
ATOM     20  C   UNL     1     113.023 124.603 136.871  0.00  0.00    +0.000 A 
ATOM     21  C   UNL     1     112.163 124.413 136.406  0.00  0.00    +0.000 A 
BRANCH  19  22
ATOM     22  O   UNL     1     110.729 124.976 135.629  0.00  0.00    +0.000 OA
ATOM     23  C   UNL     1     110.151 125.727 135.327  0.00  0.00    +0.000 C 
ENDBRANCH  19  22
ENDBRANCH   7  16
ENDBRANCH   1   6
BRANCH   1  32
ATOM     24  O   UNL     1     111.069 127.982 138.406  0.00  0.00    +0.000 OA
ATOM     25  O   UNL     1     108.932 127.959 139.946  0.00  0.00    +0.000 OA
ATOM     26  O   UNL     1     110.090 126.640 140.888  0.00  0.00    +0.000 OA
ATOM     27  O   UNL     1     111.900 126.215 140.175  0.00  0.00    +0.000 OA
ATOM     28  C   UNL     1     110.164 128.194 138.762  0.00  0.00    +0.000 C 
ATOM     29  C   UNL     1     109.838 127.747 139.590  0.00  0.00    +0.000 C 
ATOM     30  C   UNL     1     110.417 127.087 140.060  0.00  0.00    +0.000 C 
ATOM     31  C   UNL     1     111.321 126.875 139.704  0.00  0.00    +0.000 C 
ATOM     32  C   UNL     1     111.648 127.323 138.876  0.00  0.00    +0.000 C 
BRANCH  28  33
ATOM     33  C   UNL     1     109.585 128.854 138.291  0.00  0.00    +0.000 C 
BRANCH  33  34
ATOM     34  O   UNL     1     109.617 128.924 137.298  0.00  0.00    +0.000 OA
BRANCH  34  40
ATOM     35  O   UNL     1     110.154 130.547 137.072  0.00  0.00    +0.000 OA
ATOM     36  O   UNL     1     108.145 129.229 135.993  0.00  0.00    +0.000 OA
ATOM     37  O   UNL     1     107.945 131.004 135.114  0.00  0.00    +0.000 OA
ATOM     38  O   UNL     1     109.218 132.475 135.540  0.00  0.00    +0.000 OA
ATOM     39  C   UNL     1     108.781 129.964 136.206  0.00  0.00    +0.000 C 
ATOM     40  C   UNL     1     109.517 129.812 136.858  0.00  0.00    +0.000 C 
ATOM     41  C   UNL     1     108.681 130.852 135.767  0.00  0.00    +0.000 C 
ATOM     42  C   UNL     1     109.318 131.587 135.980  0.00  0.00    +0.000 C 
ATOM     43  C   UNL     1     110.054 131.435 136.632  0.00  0.00    +0.000 C 
ATOM     44  C   UNL     1     110.691 132.171 136.845  0.00  0.00    +0.000 C 
ENDBRANCH  34  40
ENDBRANCH  33  34
ENDBRANCH  28  33
ENDBRANCH   1  32
TORSDOF 7
ENDMDL
MODEL 4
REMARK VINA RESULT:      -9.6      1.743      4.597
REMARK  Name = 
REMARK  7 active torsions:
REMARK  status: ('A' for Active; 'I' for Inactive)
REMARK    1  A    between atoms: O_2  and  C_22
REMARK    2  A    between atoms: O_2  and  C_26
REMARK    3  A    between atoms: O_6  and  C_25
REMARK    4  A    between atoms: O_6  and  C_29
REMARK    5  A    between atoms: O_15  and  C_41
REMARK    6  A    between atoms: C_17  and  C_26
REMARK    7  A    between atoms: C_30  and  C_33
REMARK                            x       y       z     vdW  Elec       q    Type
REMARK                         _______ _______ _______ _____ _____    ______ ____
ROOT
ATOM      1  O   UNL     1     113.103 131.121 137.231  0.00  0.00    +0.000 OA
ENDROOT
BRANCH   1   6
ATOM      2  O   UNL     1     111.496 130.162 139.085  0.00  0.00    +0.000 OA
ATOM      3  O   UNL     1     114.409 130.672 138.666  0.00  0.00    +0.000 OA
ATOM      4  O   UNL     1     114.780 130.053 140.250  0.00  0.00    +0.000 OA
ATOM      5  O   UNL     1     112.154 128.895 142.297  0.00  0.00    +0.000 OA
ATOM      6  C   UNL     1     112.785 130.727 138.088  0.00  0.00    +0.000 A 
ATOM      7  C   UNL     1     111.813 130.557 138.227  0.00  0.00    +0.000 A 
ATOM      8  C   UNL     1     113.438 130.502 138.806  0.00  0.00    +0.000 A 
ATOM      9  C   UNL     1     113.119 130.107 139.662  0.00  0.00    +0.000 A 
ATOM     10  C   UNL     1     112.148 129.937 139.802  0.00  0.00    +0.000 A 
ATOM     11  C   UNL     1     113.811 129.878 140.400  0.00  0.00    +0.000 A 
ATOM     12  C   UNL     1     111.801 129.527 140.689  0.00  0.00    +0.000 A 
ATOM     13  C   UNL     1     113.487 129.467 141.295  0.00  0.00    +0.000 A 
ATOM     14  C   UNL     1     112.476 129.290 141.441  0.00  0.00    +0.000 A 
BRANCH   7  16
ATOM     15  O   UNL     1     109.204 131.459 135.357  0.00  0.00    +0.000 OA
ATOM     16  C   UNL     1     111.161 130.782 137.510  0.00  0.00    +0.000 A 
ATOM     17  C   UNL     1     110.932 131.733 137.326  0.00  0.00    +0.000 A 
ATOM     18  C   UNL     1     110.738 130.057 136.975  0.00  0.00    +0.000 A 
ATOM     19  C   UNL     1     110.280 131.959 136.609  0.00  0.00    +0.000 A 
ATOM     20  C   UNL     1     110.086 130.281 136.257  0.00  0.00    +0.000 A 
ATOM     21  C   UNL     1     109.856 131.233 136.074  0.00  0.00    +0.000 A 
BRANCH  19  22
ATOM     22  O   UNL     1     110.050 132.911 136.426  0.00  0.00    +0.000 OA
ATOM     23  C   UNL     1     110.682 133.634 136.687  0.00  0.00    +0.000 C 
ENDBRANCH  19  22
ENDBRANCH   7  16
ENDBRANCH   1   6
BRANCH   1  32
ATOM     24  O   UNL     1     113.529 129.573 136.602  0.00  0.00    +0.000 OA
ATOM     25  O   UNL     1     115.171 128.893 134.658  0.00  0.00    +0.000 OA
ATOM     26  O   UNL     1     115.353 130.876 134.628  0.00  0.00    +0.000 OA
ATOM     27  O   UNL     1     114.320 131.990 135.915  0.00  0.00    +0.000 OA
ATOM     28  C   UNL     1     114.045 129.016 135.959  0.00  0.00    +0.000 C 
ATOM     29  C   UNL     1     114.654 129.450 135.301  0.00  0.00    +0.000 C 
ATOM     30  C   UNL     1     114.745 130.441 135.287  0.00  0.00    +0.000 C 
ATOM     31  C   UNL     1     114.228 130.998 135.930  0.00  0.00    +0.000 C 
ATOM     32  C   UNL     1     113.620 130.564 136.588  0.00  0.00    +0.000 C 
BRANCH  28  33
ATOM     33  C   UNL     1     113.954 128.024 135.974  0.00  0.00    +0.000 C 
BRANCH  33  34
ATOM     34  O   UNL     1     113.124 127.606 136.332  0.00  0.00    +0.000 OA
BRANCH  34  40
ATOM     35  O   UNL     1     113.886 126.134 136.807  0.00  0.00    +0.000 OA
ATOM     36  O   UNL     1     111.440 126.613 135.957  0.00  0.00    +0.000 OA
ATOM     37  O   UNL     1     111.360 124.644 136.244  0.00  0.00    +0.000 OA
ATOM     38  O   UNL     1     112.965 123.668 136.907  0.00  0.00    +0.000 OA
ATOM     39  C   UNL     1     112.242 126.125 136.288  0.00  0.00    +0.000 C 
ATOM     40  C   UNL     1     113.084 126.622 136.476  0.00  0.00    +0.000 C 
ATOM     41  C   UNL     1     112.202 125.141 136.432  0.00  0.00    +0.000 C 
ATOM     42  C   UNL     1     113.005 124.654 136.763  0.00  0.00    +0.000 C 
ATOM     43  C   UNL     1     113.846 125.150 136.950  0.00  0.00    +0.000 C 
ATOM     44  C   UNL     1     114.649 124.662 137.282  0.00  0.00    +0.000 C 
ENDBRANCH  34  40
ENDBRANCH  33  34
ENDBRANCH  28  33
ENDBRANCH   1  32
TORSDOF 7
ENDMDL
MODEL 5
REMARK VINA RESULT:      -9.6      1.409      4.099
REMARK  Name = 
REMARK  7 active torsions:
REMARK  status: ('A' for Active; 'I' for Inactive)
REMARK    1  A    between atoms: O_2  and  C_22
REMARK    2  A    between atoms: O_2  and  C_26
REMARK    3  A    between atoms: O_6  and  C_25
REMARK    4  A    between atoms: O_6  and  C_29
REMARK    5  A    between atoms: O_15  and  C_41
REMARK    6  A    between atoms: C_17  and  C_26
REMARK    7  A    between atoms: C_30  and  C_33
REMARK                            x       y       z     vdW  Elec       q    Type
REMARK                         _______ _______ _______ _____ _____    ______ ____
ROOT
ATOM      1  O   UNL     1     112.956 127.668 139.635  0.00  0.00    +0.000 OA
ENDROOT
BRANCH   1   6
ATOM      2  O   UNL     1     111.354 125.745 138.811  0.00  0.00    +0.000 OA
ATOM      3  O   UNL     1     114.020 126.908 138.132  0.00  0.00    +0.000 OA
ATOM      4  O   UNL     1     114.227 125.764 136.837  0.00  0.00    +0.000 OA
ATOM      5  O   UNL     1     111.689 123.398 136.216  0.00  0.00    +0.000 OA
ATOM      6  C   UNL     1     112.599 126.900 139.110  0.00  0.00    +0.000 A 
ATOM      7  C   UNL     1     111.710 126.513 139.337  0.00  0.00    +0.000 A 
ATOM      8  C   UNL     1     113.131 126.520 138.359  0.00  0.00    +0.000 A 
ATOM      9  C   UNL     1     112.774 125.753 137.834  0.00  0.00    +0.000 A 
ATOM     10  C   UNL     1     111.885 125.365 138.061  0.00  0.00    +0.000 A 
ATOM     11  C   UNL     1     113.340 125.369 137.054  0.00  0.00    +0.000 A 
ATOM     12  C   UNL     1     111.500 124.566 137.523  0.00  0.00    +0.000 A 
ATOM     13  C   UNL     1     112.974 124.570 136.503  0.00  0.00    +0.000 A 
ATOM     14  C   UNL     1     112.049 124.166 136.739  0.00  0.00    +0.000 A 
BRANCH   7  16
ATOM     15  O   UNL     1     109.583 128.034 142.340  0.00  0.00    +0.000 OA
ATOM     16  C   UNL     1     111.179 126.893 140.088  0.00  0.00    +0.000 A 
ATOM     17  C   UNL     1     110.393 127.474 139.897  0.00  0.00    +0.000 A 
ATOM     18  C   UNL     1     111.432 126.692 141.029  0.00  0.00    +0.000 A 
ATOM     19  C   UNL     1     109.861 127.854 140.648  0.00  0.00    +0.000 A 
ATOM     20  C   UNL     1     110.901 127.072 141.781  0.00  0.00    +0.000 A 
ATOM     21  C   UNL     1     110.115 127.654 141.590  0.00  0.00    +0.000 A 
BRANCH  19  22
ATOM     22  O   UNL     1     109.075 128.436 140.457  0.00  0.00    +0.000 OA
ATOM     23  C   UNL     1     109.177 129.232 139.869  0.00  0.00    +0.000 C 
ENDBRANCH  19  22
ENDBRANCH   7  16
ENDBRANCH   1   6
BRANCH   1  32
ATOM     24  O   UNL     1     112.470 128.783 138.412  0.00  0.00    +0.000 OA
ATOM     25  O   UNL     1     113.176 131.283 137.978  0.00  0.00    +0.000 OA
ATOM     26  O   UNL     1     114.257 130.862 139.597  0.00  0.00    +0.000 OA
ATOM     27  O   UNL     1     114.147 129.054 140.425  0.00  0.00    +0.000 OA
ATOM     28  C   UNL     1     112.525 129.686 137.998  0.00  0.00    +0.000 C 
ATOM     29  C   UNL     1     113.121 130.379 138.393  0.00  0.00    +0.000 C 
ATOM     30  C   UNL     1     113.661 130.168 139.202  0.00  0.00    +0.000 C 
ATOM     31  C   UNL     1     113.606 129.265 139.615  0.00  0.00    +0.000 C 
ATOM     32  C   UNL     1     113.011 128.572 139.221  0.00  0.00    +0.000 C 
BRANCH  28  33
ATOM     33  C   UNL     1     111.984 129.896 137.188  0.00  0.00    +0.000 C 
BRANCH  33  34
ATOM     34  O   UNL     1     111.320 129.236 136.848  0.00  0.00    +0.000 OA
BRANCH  34  40
ATOM     35  O   UNL     1     110.259 130.518 136.396  0.00  0.00    +0.000 OA
ATOM     36  O   UNL     1     109.887 127.912 136.454  0.00  0.00    +0.000 OA
ATOM     37  O   UNL     1     108.109 128.531 135.805  0.00  0.00    +0.000 OA
ATOM     38  O   UNL     1     107.765 130.477 135.551  0.00  0.00    +0.000 OA
ATOM     39  C   UNL     1     109.715 128.884 136.327  0.00  0.00    +0.000 C 
ATOM     40  C   UNL     1     110.431 129.546 136.523  0.00  0.00    +0.000 C 
ATOM     41  C   UNL     1     108.826 129.194 136.002  0.00  0.00    +0.000 C 
ATOM     42  C   UNL     1     108.654 130.166 135.875  0.00  0.00    +0.000 C 
ATOM     43  C   UNL     1     109.371 130.828 136.072  0.00  0.00    +0.000 C 
ATOM     44  C   UNL     1     109.198 131.801 135.945  0.00  0.00    +0.000 C 
ENDBRANCH  34  40
ENDBRANCH  33  34
ENDBRANCH  28  33
ENDBRANCH   1  32
TORSDOF 7
ENDMDL
MODEL 6
REMARK VINA RESULT:      -9.6      1.694      4.838
REMARK  Name = 
REMARK  7 active torsions:
REMARK  status: ('A' for Active; 'I' for Inactive)
REMARK    1  A    between atoms: O_2  and  C_22
REMARK    2  A    between atoms: O_2  and  C_26
REMARK    3  A    between atoms: O_6  and  C_25
REMARK    4  A    between atoms: O_6  and  C_29
REMARK    5  A    between atoms: O_15  and  C_41
REMARK    6  A    between atoms: C_17  and  C_26
REMARK    7  A    between atoms: C_30  and  C_33
REMARK                            x       y       z     vdW  Elec       q    Type
REMARK                         _______ _______ _______ _____ _____    ______ ____
ROOT
ATOM      1  O   UNL     1     110.486 127.310 138.139  0.00  0.00    +0.000 OA
ENDROOT
BRANCH   1   6
ATOM      2  O   UNL     1     112.751 128.075 137.033  0.00  0.00    +0.000 OA
ATOM      3  O   UNL     1     110.489 129.250 138.590  0.00  0.00    +0.000 OA
ATOM      4  O   UNL     1     111.228 130.826 138.538  0.00  0.00    +0.000 OA
ATOM      5  O   UNL     1     114.313 131.220 136.881  0.00  0.00    +0.000 OA
ATOM      6  C   UNL     1     111.242 127.888 137.846  0.00  0.00    +0.000 A 
ATOM      7  C   UNL     1     111.996 127.496 137.326  0.00  0.00    +0.000 A 
ATOM      8  C   UNL     1     111.243 128.858 138.071  0.00  0.00    +0.000 A 
ATOM      9  C   UNL     1     111.999 129.436 137.777  0.00  0.00    +0.000 A 
ATOM     10  C   UNL     1     112.753 129.044 137.258  0.00  0.00    +0.000 A 
ATOM     11  C   UNL     1     111.986 130.445 138.019  0.00  0.00    +0.000 A 
ATOM     12  C   UNL     1     113.547 129.633 136.945  0.00  0.00    +0.000 A 
ATOM     13  C   UNL     1     112.770 131.053 137.717  0.00  0.00    +0.000 A 
ATOM     14  C   UNL     1     113.555 130.645 137.176  0.00  0.00    +0.000 A 
BRANCH   7  16
ATOM     15  O   UNL     1     111.985 123.617 136.425  0.00  0.00    +0.000 OA
ATOM     16  C   UNL     1     111.994 126.527 137.102  0.00  0.00    +0.000 A 
ATOM     17  C   UNL     1     111.378 126.180 136.400  0.00  0.00    +0.000 A 
ATOM     18  C   UNL     1     112.606 125.903 137.577  0.00  0.00    +0.000 A 
ATOM     19  C   UNL     1     111.375 125.210 136.174  0.00  0.00    +0.000 A 
ATOM     20  C   UNL     1     112.604 124.933 137.353  0.00  0.00    +0.000 A 
ATOM     21  C   UNL     1     111.988 124.586 136.651  0.00  0.00    +0.000 A 
BRANCH  19  22
ATOM     22  O   UNL     1     110.759 124.864 135.472  0.00  0.00    +0.000 OA
ATOM     23  C   UNL     1     110.175 125.493 134.969  0.00  0.00    +0.000 C 
ENDBRANCH  19  22
ENDBRANCH   7  16
ENDBRANCH   1   6
BRANCH   1  32
ATOM     24  O   UNL     1     111.062 127.378 139.764  0.00  0.00    +0.000 OA
ATOM     25  O   UNL     1     110.058 126.397 141.993  0.00  0.00    +0.000 OA
ATOM     26  O   UNL     1     108.690 125.805 140.671  0.00  0.00    +0.000 OA
ATOM     27  O   UNL     1     108.904 126.261 138.745  0.00  0.00    +0.000 OA
ATOM     28  C   UNL     1     110.955 127.149 140.726  0.00  0.00    +0.000 C 
ATOM     29  C   UNL     1     110.165 126.625 141.029  0.00  0.00    +0.000 C 
ATOM     30  C   UNL     1     109.482 126.329 140.368  0.00  0.00    +0.000 C 
ATOM     31  C   UNL     1     109.589 126.558 139.406  0.00  0.00    +0.000 C 
ATOM     32  C   UNL     1     110.379 127.082 139.103  0.00  0.00    +0.000 C 
BRANCH  28  33
ATOM     33  C   UNL     1     111.639 127.446 141.387  0.00  0.00    +0.000 C 
BRANCH  33  34
ATOM     34  O   UNL     1     112.572 127.630 141.090  0.00  0.00    +0.000 OA
BRANCH  34  40
ATOM     35  O   UNL     1     112.457 129.239 141.698  0.00  0.00    +0.000 OA
ATOM     36  O   UNL     1     114.332 128.066 140.267  0.00  0.00    +0.000 OA
ATOM     37  O   UNL     1     115.097 129.894 140.464  0.00  0.00    +0.000 OA
ATOM     38  O   UNL     1     114.102 131.285 141.483  0.00  0.00    +0.000 OA
ATOM     39  C   UNL     1     113.834 128.762 140.777  0.00  0.00    +0.000 C 
ATOM     40  C   UNL     1     112.955 128.543 141.188  0.00  0.00    +0.000 C 
ATOM     41  C   UNL     1     114.217 129.675 140.875  0.00  0.00    +0.000 C 
ATOM     42  C   UNL     1     113.719 130.371 141.385  0.00  0.00    +0.000 C 
ATOM     43  C   UNL     1     112.840 130.153 141.796  0.00  0.00    +0.000 C 
ATOM     44  C   UNL     1     112.342 130.849 142.306  0.00  0.00    +0.000 C 
ENDBRANCH  34  40
ENDBRANCH  33  34
ENDBRANCH  28  33
ENDBRANCH   1  32
TORSDOF 7
ENDMDL
MODEL 7
REMARK VINA RESULT:      -9.6      1.285      3.952
REMARK  Name = 
REMARK  7 active torsions:
REMARK  status: ('A' for Active; 'I' for Inactive)
REMARK    1  A    between atoms: O_2  and  C_22
REMARK    2  A    between atoms: O_2  and  C_26
REMARK    3  A    between atoms: O_6  and  C_25
REMARK    4  A    between atoms: O_6  and  C_29
REMARK    5  A    between atoms: O_15  and  C_41
REMARK    6  A    between atoms: C_17  and  C_26
REMARK    7  A    between atoms: C_30  and  C_33
REMARK                            x       y       z     vdW  Elec       q    Type
REMARK                         _______ _______ _______ _____ _____    ______ ____
ROOT
ATOM      1  O   UNL     1     111.198 129.970 138.209  0.00  0.00    +0.000 OA
ENDROOT
BRANCH   1   6
ATOM      2  O   UNL     1     109.522 127.999 138.702  0.00  0.00    +0.000 OA
ATOM      3  O   UNL     1     112.116 129.065 139.727  0.00  0.00    +0.000 OA
ATOM      4  O   UNL     1     112.200 127.806 140.926  0.00  0.00    +0.000 OA
ATOM      5  O   UNL     1     109.609 125.422 141.091  0.00  0.00    +0.000 OA
ATOM      6  C   UNL     1     110.792 129.162 138.626  0.00  0.00    +0.000 A 
ATOM      7  C   UNL     1     109.927 128.807 138.284  0.00  0.00    +0.000 A 
ATOM      8  C   UNL     1     111.251 128.710 139.385  0.00  0.00    +0.000 A 
ATOM      9  C   UNL     1     110.845 127.902 139.802  0.00  0.00    +0.000 A 
ATOM     10  C   UNL     1     109.980 127.547 139.460  0.00  0.00    +0.000 A 
ATOM     11  C   UNL     1     111.336 127.442 140.592  0.00  0.00    +0.000 A 
ATOM     12  C   UNL     1     109.545 126.706 139.885  0.00  0.00    +0.000 A 
ATOM     13  C   UNL     1     110.919 126.600 141.032  0.00  0.00    +0.000 A 
ATOM     14  C   UNL     1     110.018 126.230 140.676  0.00  0.00    +0.000 A 
BRANCH   7  16
ATOM     15  O   UNL     1     108.092 130.619 135.249  0.00  0.00    +0.000 OA
ATOM     16  C   UNL     1     109.468 129.259 137.525  0.00  0.00    +0.000 A 
ATOM     17  C   UNL     1     109.047 130.152 137.659  0.00  0.00    +0.000 A 
ATOM     18  C   UNL     1     109.430 128.821 136.633  0.00  0.00    +0.000 A 
ATOM     19  C   UNL     1     108.588 130.605 136.901  0.00  0.00    +0.000 A 
ATOM     20  C   UNL     1     108.971 129.273 135.874  0.00  0.00    +0.000 A 
ATOM     21  C   UNL     1     108.550 130.166 136.008  0.00  0.00    +0.000 A 
BRANCH  19  22
ATOM     22  O   UNL     1     108.168 131.498 137.035  0.00  0.00    +0.000 OA
ATOM     23  C   UNL     1     108.512 132.109 137.741  0.00  0.00    +0.000 C 
ENDBRANCH  19  22
ENDBRANCH   7  16
ENDBRANCH   1   6
BRANCH   1  32
ATOM     24  O   UNL     1     112.292 128.991 137.304  0.00  0.00    +0.000 OA
ATOM     25  O   UNL     1     114.475 129.623 135.971  0.00  0.00    +0.000 OA
ATOM     26  O   UNL     1     113.925 131.409 136.662  0.00  0.00    +0.000 OA
ATOM     27  O   UNL     1     112.287 131.582 137.780  0.00  0.00    +0.000 OA
ATOM     28  C   UNL     1     113.111 128.904 136.745  0.00  0.00    +0.000 C 
ATOM     29  C   UNL     1     113.655 129.710 136.531  0.00  0.00    +0.000 C 
ATOM     30  C   UNL     1     113.380 130.602 136.876  0.00  0.00    +0.000 C 
ATOM     31  C   UNL     1     112.562 130.689 137.435  0.00  0.00    +0.000 C 
ATOM     32  C   UNL     1     112.017 129.883 137.649  0.00  0.00    +0.000 C 
BRANCH  28  33
ATOM     33  C   UNL     1     113.386 128.011 136.399  0.00  0.00    +0.000 C 
BRANCH  33  34
ATOM     34  O   UNL     1     112.695 127.331 136.172  0.00  0.00    +0.000 OA
BRANCH  34  40
ATOM     35  O   UNL     1     113.742 126.071 136.709  0.00  0.00    +0.000 OA
ATOM     36  O   UNL     1     111.211 126.017 135.984  0.00  0.00    +0.000 OA
ATOM     37  O   UNL     1     111.516 124.100 136.426  0.00  0.00    +0.000 OA
ATOM     38  O   UNL     1     113.307 123.497 137.058  0.00  0.00    +0.000 OA
ATOM     39  C   UNL     1     112.106 125.716 136.299  0.00  0.00    +0.000 C 
ATOM     40  C   UNL     1     112.847 126.372 136.393  0.00  0.00    +0.000 C 
ATOM     41  C   UNL     1     112.259 124.757 136.521  0.00  0.00    +0.000 C 
ATOM     42  C   UNL     1     113.153 124.456 136.836  0.00  0.00    +0.000 C 
ATOM     43  C   UNL     1     113.895 125.113 136.930  0.00  0.00    +0.000 C 
ATOM     44  C   UNL     1     114.790 124.811 137.246  0.00  0.00    +0.000 C 
ENDBRANCH  34  40
ENDBRANCH  33  34
ENDBRANCH  28  33
ENDBRANCH   1  32
TORSDOF 7
ENDMDL
MODEL 8
REMARK VINA RESULT:      -9.5      2.024      4.088
REMARK  Name = 
REMARK  7 active torsions:
REMARK  status: ('A' for Active; 'I' for Inactive)
REMARK    1  A    between atoms: O_2  and  C_22
REMARK    2  A    between atoms: O_2  and  C_26
REMARK    3  A    between atoms: O_6  and  C_25
REMARK    4  A    between atoms: O_6  and  C_29
REMARK    5  A    between atoms: O_15  and  C_41
REMARK    6  A    between atoms: C_17  and  C_26
REMARK    7  A    between atoms: C_30  and  C_33
REMARK                            x       y       z     vdW  Elec       q    Type
REMARK                         _______ _______ _______ _____ _____    ______ ____
ROOT
ATOM      1  O   UNL     1     112.147 130.304 138.070  0.00  0.00    +0.000 OA
ENDROOT
BRANCH   1   6
ATOM      2  O   UNL     1     113.371 128.037 138.622  0.00  0.00    +0.000 OA
ATOM      3  O   UNL     1     111.396 129.116 136.658  0.00  0.00    +0.000 OA
ATOM      4  O   UNL     1     111.280 127.568 135.872  0.00  0.00    +0.000 OA
ATOM      5  O   UNL     1     113.199 124.876 137.094  0.00  0.00    +0.000 OA
ATOM      6  C   UNL     1     112.430 129.351 138.019  0.00  0.00    +0.000 A 
ATOM      7  C   UNL     1     113.088 128.991 138.674  0.00  0.00    +0.000 A 
ATOM      8  C   UNL     1     112.054 128.757 137.313  0.00  0.00    +0.000 A 
ATOM      9  C   UNL     1     112.338 127.804 137.262  0.00  0.00    +0.000 A 
ATOM     10  C   UNL     1     112.996 127.444 137.916  0.00  0.00    +0.000 A 
ATOM     11  C   UNL     1     111.937 127.198 136.520  0.00  0.00    +0.000 A 
ATOM     12  C   UNL     1     113.300 126.453 137.875  0.00  0.00    +0.000 A 
ATOM     13  C   UNL     1     112.228 126.204 136.461  0.00  0.00    +0.000 A 
ATOM     14  C   UNL     1     112.914 125.829 137.143  0.00  0.00    +0.000 A 
BRANCH   7  16
ATOM     15  O   UNL     1     114.587 131.366 141.498  0.00  0.00    +0.000 OA
ATOM     16  C   UNL     1     113.463 129.585 139.379  0.00  0.00    +0.000 A 
ATOM     17  C   UNL     1     113.101 129.546 140.306  0.00  0.00    +0.000 A 
ATOM     18  C   UNL     1     114.200 130.216 139.159  0.00  0.00    +0.000 A 
ATOM     19  C   UNL     1     113.475 130.140 141.012  0.00  0.00    +0.000 A 
ATOM     20  C   UNL     1     114.575 130.811 139.865  0.00  0.00    +0.000 A 
ATOM     21  C   UNL     1     114.213 130.772 140.791  0.00  0.00    +0.000 A 
BRANCH  19  22
ATOM     22  O   UNL     1     113.113 130.101 141.939  0.00  0.00    +0.000 OA
ATOM     23  C   UNL     1     112.313 129.543 142.137  0.00  0.00    +0.000 C 
ENDBRANCH  19  22
ENDBRANCH   7  16
ENDBRANCH   1   6
BRANCH   1  32
ATOM     24  O   UNL     1     110.676 129.858 138.854  0.00  0.00    +0.000 OA
ATOM     25  O   UNL     1     108.468 131.227 139.286  0.00  0.00    +0.000 OA
ATOM     26  O   UNL     1     109.569 132.581 138.326  0.00  0.00    +0.000 OA
ATOM     27  O   UNL     1     111.408 132.120 137.718  0.00  0.00    +0.000 OA
ATOM     28  C   UNL     1     109.757 130.088 139.157  0.00  0.00    +0.000 C 
ATOM     29  C   UNL     1     109.388 130.996 138.982  0.00  0.00    +0.000 C 
ATOM     30  C   UNL     1     109.938 131.673 138.502  0.00  0.00    +0.000 C 
ATOM     31  C   UNL     1     110.857 131.442 138.198  0.00  0.00    +0.000 C 
ATOM     32  C   UNL     1     111.227 130.535 138.374  0.00  0.00    +0.000 C 
BRANCH  28  33
ATOM     33  C   UNL     1     109.207 129.411 139.637  0.00  0.00    +0.000 C 
BRANCH  33  34
ATOM     34  O   UNL     1     109.521 128.467 139.699  0.00  0.00    +0.000 OA
BRANCH  34  40
ATOM     35  O   UNL     1     108.360 128.162 140.937  0.00  0.00    +0.000 OA
ATOM     36  O   UNL     1     110.198 126.603 139.873  0.00  0.00    +0.000 OA
ATOM     37  O   UNL     1     109.376 125.365 141.198  0.00  0.00    +0.000 OA
ATOM     38  O   UNL     1     107.876 125.991 142.349  0.00  0.00    +0.000 OA
ATOM     39  C   UNL     1     109.448 126.917 140.449  0.00  0.00    +0.000 C 
ATOM     40  C   UNL     1     109.110 127.848 140.361  0.00  0.00    +0.000 C 
ATOM     41  C   UNL     1     109.037 126.297 141.111  0.00  0.00    +0.000 C 
ATOM     42  C   UNL     1     108.287 126.611 141.686  0.00  0.00    +0.000 C 
ATOM     43  C   UNL     1     107.949 127.542 141.599  0.00  0.00    +0.000 C 
ATOM     44  C   UNL     1     107.199 127.855 142.175  0.00  0.00    +0.000 C 
ENDBRANCH  34  40
ENDBRANCH  33  34
ENDBRANCH  28  33
ENDBRANCH   1  32
TORSDOF 7
ENDMDL
MODEL 9
REMARK VINA RESULT:      -9.4      1.916      4.722
REMARK  Name = 
REMARK  7 active torsions:
REMARK  status: ('A' for Active; 'I' for Inactive)
REMARK    1  A    between atoms: O_2  and  C_22
REMARK    2  A    between atoms: O_2  and  C_26
REMARK    3  A    between atoms: O_6  and  C_25
REMARK    4  A    between atoms: O_6  and  C_29
REMARK    5  A    between atoms: O_15  and  C_41
REMARK    6  A    between atoms: C_17  and  C_26
REMARK    7  A    between atoms: C_30  and  C_33
REMARK                            x       y       z     vdW  Elec       q    Type
REMARK                         _______ _______ _______ _____ _____    ______ ____
ROOT
ATOM      1  O   UNL     1     113.208 127.162 140.110  0.00  0.00    +0.000 OA
ENDROOT
BRANCH   1   6
ATOM      2  O   UNL     1     111.089 126.077 138.981  0.00  0.00    +0.000 OA
ATOM      3  O   UNL     1     111.855 127.384 141.556  0.00  0.00    +0.000 OA
ATOM      4  O   UNL     1     110.242 127.183 142.177  0.00  0.00    +0.000 OA
ATOM      5  O   UNL     1     107.806 125.631 140.157  0.00  0.00    +0.000 OA
ATOM      6  C   UNL     1     112.276 126.837 139.974  0.00  0.00    +0.000 A 
ATOM      7  C   UNL     1     112.021 126.401 139.116  0.00  0.00    +0.000 A 
ATOM      8  C   UNL     1     111.600 126.948 140.697  0.00  0.00    +0.000 A 
ATOM      9  C   UNL     1     110.669 126.623 140.562  0.00  0.00    +0.000 A 
ATOM     10  C   UNL     1     110.413 126.187 139.703  0.00  0.00    +0.000 A 
ATOM     11  C   UNL     1     109.976 126.746 141.324  0.00  0.00    +0.000 A 
ATOM     12  C   UNL     1     109.447 125.844 139.548  0.00  0.00    +0.000 A 
ATOM     13  C   UNL     1     109.004 126.410 141.190  0.00  0.00    +0.000 A 
ATOM     14  C   UNL     1     108.738 125.957 140.296  0.00  0.00    +0.000 A 
BRANCH   7  16
ATOM     15  O   UNL     1     114.725 125.960 136.226  0.00  0.00    +0.000 OA
ATOM     16  C   UNL     1     112.697 126.291 138.394  0.00  0.00    +0.000 A 
ATOM     17  C   UNL     1     112.682 126.895 137.602  0.00  0.00    +0.000 A 
ATOM     18  C   UNL     1     113.387 125.577 138.463  0.00  0.00    +0.000 A 
ATOM     19  C   UNL     1     113.358 126.785 136.880  0.00  0.00    +0.000 A 
ATOM     20  C   UNL     1     114.064 125.466 137.740  0.00  0.00    +0.000 A 
ATOM     21  C   UNL     1     114.049 126.070 136.948  0.00  0.00    +0.000 A 
BRANCH  19  22
ATOM     22  O   UNL     1     113.343 127.388 136.088  0.00  0.00    +0.000 OA
ATOM     23  C   UNL     1     112.844 128.248 136.127  0.00  0.00    +0.000 C 
ENDBRANCH  19  22
ENDBRANCH   7  16
ENDBRANCH   1   6
BRANCH   1  32
ATOM     24  O   UNL     1     112.725 128.776 139.740  0.00  0.00    +0.000 OA
ATOM     25  O   UNL     1     113.984 131.068 140.055  0.00  0.00    +0.000 OA
ATOM     26  O   UNL     1     115.338 129.793 140.768  0.00  0.00    +0.000 OA
ATOM     27  O   UNL     1     114.950 127.841 140.796  0.00  0.00    +0.000 OA
ATOM     28  C   UNL     1     112.919 129.751 139.726  0.00  0.00    +0.000 C 
ATOM     29  C   UNL     1     113.790 130.091 140.069  0.00  0.00    +0.000 C 
ATOM     30  C   UNL     1     114.466 129.454 140.425  0.00  0.00    +0.000 C 
ATOM     31  C   UNL     1     114.272 128.478 140.439  0.00  0.00    +0.000 C 
ATOM     32  C   UNL     1     113.402 128.138 140.096  0.00  0.00    +0.000 C 
BRANCH  28  33
ATOM     33  C   UNL     1     112.241 130.389 139.369  0.00  0.00    +0.000 C 
BRANCH  33  34
ATOM     34  O   UNL     1     111.294 130.099 139.260  0.00  0.00    +0.000 OA
BRANCH  34  40
ATOM     35  O   UNL     1     110.901 131.566 138.443  0.00  0.00    +0.000 OA
ATOM     36  O   UNL     1     109.603 129.280 138.603  0.00  0.00    +0.000 OA
ATOM     37  O   UNL     1     108.364 130.336 137.456  0.00  0.00    +0.000 OA
ATOM     38  O   UNL     1     108.817 132.213 136.968  0.00  0.00    +0.000 OA
ATOM     39  C   UNL     1     109.830 130.218 138.358  0.00  0.00    +0.000 C 
ATOM     40  C   UNL     1     110.675 130.628 138.687  0.00  0.00    +0.000 C 
ATOM     41  C   UNL     1     109.210 130.746 137.785  0.00  0.00    +0.000 C 
ATOM     42  C   UNL     1     109.437 131.684 137.541  0.00  0.00    +0.000 C 
ATOM     43  C   UNL     1     110.282 132.094 137.870  0.00  0.00    +0.000 C 
ATOM     44  C   UNL     1     110.508 133.033 137.625  0.00  0.00    +0.000 C 
ENDBRANCH  34  40
ENDBRANCH  33  34
ENDBRANCH  28  33
ENDBRANCH   1  32
TORSDOF 7
ENDMDL
MODEL 10
REMARK VINA RESULT:      -9.4      1.836      5.579
REMARK  Name = 
REMARK  7 active torsions:
REMARK  status: ('A' for Active; 'I' for Inactive)
REMARK    1  A    between atoms: O_2  and  C_22
REMARK    2  A    between atoms: O_2  and  C_26
REMARK    3  A    between atoms: O_6  and  C_25
REMARK    4  A    between atoms: O_6  and  C_29
REMARK    5  A    between atoms: O_15  and  C_41
REMARK    6  A    between atoms: C_17  and  C_26
REMARK    7  A    between atoms: C_30  and  C_33
REMARK                            x       y       z     vdW  Elec       q    Type
REMARK                         _______ _______ _______ _____ _____    ______ ____
ROOT
ATOM      1  O   UNL     1     111.841 130.978 138.634  0.00  0.00    +0.000 OA
ENDROOT
BRANCH   1   6
ATOM      2  O   UNL     1     110.818 131.176 136.215  0.00  0.00    +0.000 OA
ATOM      3  O   UNL     1     109.931 131.346 139.062  0.00  0.00    +0.000 OA
ATOM      4  O   UNL     1     108.292 131.662 138.569  0.00  0.00    +0.000 OA
ATOM      5  O   UNL     1     107.535 131.809 135.130  0.00  0.00    +0.000 OA
ATOM      6  C   UNL     1     111.182 131.105 137.899  0.00  0.00    +0.000 A 
ATOM      7  C   UNL     1     111.478 131.049 136.950  0.00  0.00    +0.000 A 
ATOM      8  C   UNL     1     110.227 131.289 138.113  0.00  0.00    +0.000 A 
ATOM      9  C   UNL     1     109.568 131.417 137.378  0.00  0.00    +0.000 A 
ATOM     10  C   UNL     1     109.864 131.360 136.428  0.00  0.00    +0.000 A 
ATOM     11  C   UNL     1     108.577 131.607 137.617  0.00  0.00    +0.000 A 
ATOM     12  C   UNL     1     109.189 131.490 135.652  0.00  0.00    +0.000 A 
ATOM     13  C   UNL     1     107.884 131.741 136.856  0.00  0.00    +0.000 A 
ATOM     14  C   UNL     1     108.192 131.682 135.867  0.00  0.00    +0.000 A 
BRANCH   7  16
ATOM     15  O   UNL     1     115.298 130.311 136.096  0.00  0.00    +0.000 OA
ATOM     16  C   UNL     1     112.433 130.865 136.737  0.00  0.00    +0.000 A 
ATOM     17  C   UNL     1     112.701 129.973 136.383  0.00  0.00    +0.000 A 
ATOM     18  C   UNL     1     113.120 131.571 136.876  0.00  0.00    +0.000 A 
ATOM     19  C   UNL     1     113.655 129.789 136.170  0.00  0.00    +0.000 A 
ATOM     20  C   UNL     1     114.075 131.388 136.663  0.00  0.00    +0.000 A 
ATOM     21  C   UNL     1     114.343 130.496 136.310  0.00  0.00    +0.000 A 
BRANCH  19  22
ATOM     22  O   UNL     1     113.923 128.897 135.816  0.00  0.00    +0.000 OA
ATOM     23  C   UNL     1     113.543 128.069 136.216  0.00  0.00    +0.000 C 
ENDBRANCH  19  22
ENDBRANCH   7  16
ENDBRANCH   1   6
BRANCH   1  32
ATOM     24  O   UNL     1     111.325 129.346 138.849  0.00  0.00    +0.000 OA
ATOM     25  O   UNL     1     111.805 127.625 140.784  0.00  0.00    +0.000 OA
ATOM     26  O   UNL     1     112.821 129.212 141.431  0.00  0.00    +0.000 OA
ATOM     27  O   UNL     1     112.839 130.888 140.356  0.00  0.00    +0.000 OA
ATOM     28  C   UNL     1     111.315 128.509 139.386  0.00  0.00    +0.000 C 
ATOM     29  C   UNL     1     111.814 128.464 140.247  0.00  0.00    +0.000 C 
ATOM     30  C   UNL     1     112.322 129.257 140.570  0.00  0.00    +0.000 C 
ATOM     31  C   UNL     1     112.331 130.094 140.033  0.00  0.00    +0.000 C 
ATOM     32  C   UNL     1     111.832 130.140 139.172  0.00  0.00    +0.000 C 
BRANCH  28  33
ATOM     33  C   UNL     1     110.807 127.715 139.063  0.00  0.00    +0.000 C 
BRANCH  33  34
ATOM     34  O   UNL     1     110.155 127.812 138.316  0.00  0.00    +0.000 OA
BRANCH  34  40
ATOM     35  O   UNL     1     110.793 126.394 137.573  0.00  0.00    +0.000 OA
ATOM     36  O   UNL     1     108.918 128.063 136.776  0.00  0.00    +0.000 OA
ATOM     37  O   UNL     1     108.938 126.770 135.262  0.00  0.00    +0.000 OA
ATOM     38  O   UNL     1     110.195 125.225 135.289  0.00  0.00    +0.000 OA
ATOM     39  C   UNL     1     109.547 127.291 136.790  0.00  0.00    +0.000 C 
ATOM     40  C   UNL     1     110.165 127.166 137.559  0.00  0.00    +0.000 C 
ATOM     41  C   UNL     1     109.556 126.644 136.033  0.00  0.00    +0.000 C 
ATOM     42  C   UNL     1     110.185 125.873 136.046  0.00  0.00    +0.000 C 
ATOM     43  C   UNL     1     110.803 125.747 136.816  0.00  0.00    +0.000 C 
ATOM     44  C   UNL     1     111.432 124.975 136.829  0.00  0.00    +0.000 C 
ENDBRANCH  34  40
ENDBRANCH  33  34
ENDBRANCH  28  33
ENDBRANCH   1  32
TORSDOF 7
ENDMDL
