MODEL 1
REMARK VINA RESULT:      -8.8      0.000      0.000
REMARK  Name = 44258234
REMARK  4 active torsions:
REMARK  status: ('A' for Active; 'I' for Inactive)
REMARK    1  A    between atoms: S_1  and  O_3
REMARK    2  A    between atoms: O_3  and  C_19
REMARK    3  A    between atoms: O_6  and  C_24
REMARK    4  A    between atoms: C_13  and  C_14
REMARK                            x       y       z     vdW  Elec       q    Type
REMARK                         _______ _______ _______ _____ _____    ______ ____
ROOT
ATOM      1  O   UNL     1     104.549 124.709 139.513  0.00  0.00    +0.000 OA
ATOM      2  O   UNL     1     106.285 123.771 141.623  0.00  0.00    +0.000 OA
ATOM      3  O   UNL     1     105.633 122.846 140.729  0.00  0.00    +0.000 OA
ATOM      4  C   UNL     1     105.408 124.247 140.557  0.00  0.00    +0.000 A 
ATOM      5  C   UNL     1     105.046 124.868 140.151  0.00  0.00    +0.000 A 
ATOM      6  C   UNL     1     104.412 123.930 139.279  0.00  0.00    +0.000 A 
ATOM      7  C   UNL     1     105.272 123.467 140.324  0.00  0.00    +0.000 A 
ATOM      8  C   UNL     1     105.929 124.398 141.224  0.00  0.00    +0.000 A 
ATOM      9  C   UNL     1     104.774 123.309 139.685  0.00  0.00    +0.000 A 
ATOM     10  C   UNL     1     105.181 125.684 140.385  0.00  0.00    +0.000 A 
ATOM     11  C   UNL     1     105.698 125.855 141.049  0.00  0.00    +0.000 A 
ATOM     12  C   UNL     1     106.075 125.208 141.472  0.00  0.00    +0.000 A 
ENDROOT
BRANCH   6  14
ATOM     13  O   UNL     1     101.783 123.776 138.170  0.00  0.00    +0.000 OA
ATOM     14  C   UNL     1     103.915 123.771 138.641  0.00  0.00    +0.000 A 
ATOM     15  C   UNL     1     103.098 123.853 138.725  0.00  0.00    +0.000 A 
ATOM     16  C   UNL     1     104.233 123.531 137.919  0.00  0.00    +0.000 A 
ATOM     17  C   UNL     1     102.600 123.694 138.086  0.00  0.00    +0.000 A 
ATOM     18  C   UNL     1     102.919 123.454 137.365  0.00  0.00    +0.000 A 
ATOM     19  C   UNL     1     103.736 123.372 137.281  0.00  0.00    +0.000 A 
BRANCH  18  20
ATOM     20  O   UNL     1     102.421 123.295 136.726  0.00  0.00    +0.000 OA
ATOM     21  C   UNL     1     102.721 122.931 136.049  0.00  0.00    +0.000 C 
ENDBRANCH  18  20
ENDBRANCH   6  14
BRANCH  11  22
ATOM     22  O   UNL     1     105.832 126.636 141.280  0.00  0.00    +0.000 OA
BRANCH  22  23
ATOM     23  S   UNL     1     105.258 127.044 141.709  0.00  0.00    +0.000 S 
ATOM     24  O   UNL     1     104.684 127.452 142.139  0.00  0.00    +0.000 OA
ATOM     25  O   UNL     1     105.494 126.653 142.397  0.00  0.00    +0.000 OA
ATOM     26  O   UNL     1     105.021 127.434 141.022  0.00  0.00    +0.000 OA
ENDBRANCH  22  23
ENDBRANCH  11  22
TORSDOF 4
ENDMDL
MODEL 2
REMARK VINA RESULT:      -8.1      9.766     11.101
REMARK  Name = 44258234
REMARK  4 active torsions:
REMARK  status: ('A' for Active; 'I' for Inactive)
REMARK    1  A    between atoms: S_1  and  O_3
REMARK    2  A    between atoms: O_3  and  C_19
REMARK    3  A    between atoms: O_6  and  C_24
REMARK    4  A    between atoms: C_13  and  C_14
REMARK                            x       y       z     vdW  Elec       q    Type
REMARK                         _______ _______ _______ _____ _____    ______ ____
ROOT
ATOM      1  O   UNL     1     113.795 127.818 136.391  0.00  0.00    +0.000 OA
ATOM      2  O   UNL     1     111.328 126.344 136.100  0.00  0.00    +0.000 OA
ATOM      3  O   UNL     1     111.492 127.647 135.502  0.00  0.00    +0.000 OA
ATOM      4  C   UNL     1     112.576 127.088 136.248  0.00  0.00    +0.000 A 
ATOM      5  C   UNL     1     113.343 127.145 136.544  0.00  0.00    +0.000 A 
ATOM      6  C   UNL     1     113.480 128.434 135.942  0.00  0.00    +0.000 A 
ATOM      7  C   UNL     1     112.260 127.704 135.798  0.00  0.00    +0.000 A 
ATOM      8  C   UNL     1     112.094 126.392 136.400  0.00  0.00    +0.000 A 
ATOM      9  C   UNL     1     112.712 128.377 135.646  0.00  0.00    +0.000 A 
ATOM     10  C   UNL     1     113.683 126.510 137.013  0.00  0.00    +0.000 A 
ATOM     11  C   UNL     1     113.217 125.807 137.176  0.00  0.00    +0.000 A 
ATOM     12  C   UNL     1     112.417 125.748 136.867  0.00  0.00    +0.000 A 
ENDROOT
BRANCH   6  14
ATOM     13  O   UNL     1     114.330 131.063 136.673  0.00  0.00    +0.000 OA
ATOM     14  C   UNL     1     113.932 129.106 135.789  0.00  0.00    +0.000 A 
ATOM     15  C   UNL     1     113.905 129.748 136.307  0.00  0.00    +0.000 A 
ATOM     16  C   UNL     1     114.411 129.139 135.118  0.00  0.00    +0.000 A 
ATOM     17  C   UNL     1     114.357 130.421 136.154  0.00  0.00    +0.000 A 
ATOM     18  C   UNL     1     114.836 130.452 135.483  0.00  0.00    +0.000 A 
ATOM     19  C   UNL     1     114.863 129.811 134.965  0.00  0.00    +0.000 A 
BRANCH  18  20
ATOM     20  O   UNL     1     115.288 131.126 135.331  0.00  0.00    +0.000 OA
ATOM     21  C   UNL     1     115.688 131.199 134.613  0.00  0.00    +0.000 C 
ENDBRANCH  18  20
ENDBRANCH   6  14
BRANCH  11  22
ATOM     22  O   UNL     1     113.535 125.193 137.625  0.00  0.00    +0.000 OA
BRANCH  22  23
ATOM     23  S   UNL     1     114.252 124.849 137.405  0.00  0.00    +0.000 S 
ATOM     24  O   UNL     1     114.969 124.505 137.185  0.00  0.00    +0.000 OA
ATOM     25  O   UNL     1     114.644 125.305 137.969  0.00  0.00    +0.000 OA
ATOM     26  O   UNL     1     113.860 124.393 136.840  0.00  0.00    +0.000 OA
ENDBRANCH  22  23
ENDBRANCH  11  22
TORSDOF 4
ENDMDL
MODEL 3
REMARK VINA RESULT:      -8.0      5.883      6.897
REMARK  Name = 44258234
REMARK  4 active torsions:
REMARK  status: ('A' for Active; 'I' for Inactive)
REMARK    1  A    between atoms: S_1  and  O_3
REMARK    2  A    between atoms: O_3  and  C_19
REMARK    3  A    between atoms: O_6  and  C_24
REMARK    4  A    between atoms: C_13  and  C_14
REMARK                            x       y       z     vdW  Elec       q    Type
REMARK                         _______ _______ _______ _____ _____    ______ ____
ROOT
ATOM      1  O   UNL     1     104.228 125.073 145.982  0.00  0.00    +0.000 OA
ATOM      2  O   UNL     1     106.957 125.117 146.929  0.00  0.00    +0.000 OA
ATOM      3  O   UNL     1     105.965 124.278 147.556  0.00  0.00    +0.000 OA
ATOM      4  C   UNL     1     105.578 125.096 146.449  0.00  0.00    +0.000 A 
ATOM      5  C   UNL     1     104.999 125.361 145.925  0.00  0.00    +0.000 A 
ATOM      6  C   UNL     1     104.035 124.521 146.563  0.00  0.00    +0.000 A 
ATOM      7  C   UNL     1     105.386 124.543 147.031  0.00  0.00    +0.000 A 
ATOM      8  C   UNL     1     106.386 125.387 146.401  0.00  0.00    +0.000 A 
ATOM      9  C   UNL     1     104.614 124.256 147.088  0.00  0.00    +0.000 A 
ATOM     10  C   UNL     1     105.187 125.936 145.314  0.00  0.00    +0.000 A 
ATOM     11  C   UNL     1     105.989 126.239 145.250  0.00  0.00    +0.000 A 
ATOM     12  C   UNL     1     106.592 125.963 145.797  0.00  0.00    +0.000 A 
ENDROOT
BRANCH   6  14
ATOM     13  O   UNL     1     101.379 124.750 147.592  0.00  0.00    +0.000 OA
ATOM     14  C   UNL     1     103.265 124.234 146.620  0.00  0.00    +0.000 A 
ATOM     15  C   UNL     1     102.708 124.635 147.078  0.00  0.00    +0.000 A 
ATOM     16  C   UNL     1     103.050 123.544 146.221  0.00  0.00    +0.000 A 
ATOM     17  C   UNL     1     101.936 124.348 147.135  0.00  0.00    +0.000 A 
ATOM     18  C   UNL     1     101.722 123.659 146.735  0.00  0.00    +0.000 A 
ATOM     19  C   UNL     1     102.279 123.257 146.278  0.00  0.00    +0.000 A 
BRANCH  18  20
ATOM     20  O   UNL     1     100.950 123.371 146.792  0.00  0.00    +0.000 OA
ATOM     21  C   UNL     1     100.710 122.739 146.320  0.00  0.00    +0.000 C 
ENDBRANCH  18  20
ENDBRANCH   6  14
BRANCH  11  22
ATOM     22  O   UNL     1     106.178 126.791 144.667  0.00  0.00    +0.000 OA
BRANCH  22  23
ATOM     23  S   UNL     1     106.224 126.558 143.877  0.00  0.00    +0.000 S 
ATOM     24  O   UNL     1     106.270 126.325 143.087  0.00  0.00    +0.000 OA
ATOM     25  O   UNL     1     105.442 126.793 143.762  0.00  0.00    +0.000 OA
ATOM     26  O   UNL     1     107.007 126.323 143.992  0.00  0.00    +0.000 OA
ENDBRANCH  22  23
ENDBRANCH  11  22
TORSDOF 4
ENDMDL
MODEL 4
REMARK VINA RESULT:      -8.0      6.683      8.409
REMARK  Name = 44258234
REMARK  4 active torsions:
REMARK  status: ('A' for Active; 'I' for Inactive)
REMARK    1  A    between atoms: S_1  and  O_3
REMARK    2  A    between atoms: O_3  and  C_19
REMARK    3  A    between atoms: O_6  and  C_24
REMARK    4  A    between atoms: C_13  and  C_14
REMARK                            x       y       z     vdW  Elec       q    Type
REMARK                         _______ _______ _______ _____ _____    ______ ____
ROOT
ATOM      1  O   UNL     1     102.985 132.058 141.119  0.00  0.00    +0.000 OA
ATOM      2  O   UNL     1     100.899 133.859 141.985  0.00  0.00    +0.000 OA
ATOM      3  O   UNL     1     100.774 132.433 142.166  0.00  0.00    +0.000 OA
ATOM      4  C   UNL     1     101.954 132.949 141.547  0.00  0.00    +0.000 A 
ATOM      5  C   UNL     1     102.692 132.824 141.198  0.00  0.00    +0.000 A 
ATOM      6  C   UNL     1     102.543 131.416 141.389  0.00  0.00    +0.000 A 
ATOM      7  C   UNL     1     101.511 132.308 141.817  0.00  0.00    +0.000 A 
ATOM      8  C   UNL     1     101.636 133.744 141.635  0.00  0.00    +0.000 A 
ATOM      9  C   UNL     1     101.805 131.541 141.738  0.00  0.00    +0.000 A 
ATOM     10  C   UNL     1     103.162 133.485 140.914  0.00  0.00    +0.000 A 
ATOM     11  C   UNL     1     102.862 134.285 140.993  0.00  0.00    +0.000 A 
ATOM     12  C   UNL     1     102.093 134.416 141.357  0.00  0.00    +0.000 A 
ENDROOT
BRANCH   6  14
ATOM     13  O   UNL     1     102.773 128.996 139.885  0.00  0.00    +0.000 OA
ATOM     14  C   UNL     1     102.836 130.649 141.310  0.00  0.00    +0.000 A 
ATOM     15  C   UNL     1     102.658 130.207 140.637  0.00  0.00    +0.000 A 
ATOM     16  C   UNL     1     103.309 130.325 141.903  0.00  0.00    +0.000 A 
ATOM     17  C   UNL     1     102.952 129.439 140.558  0.00  0.00    +0.000 A 
ATOM     18  C   UNL     1     103.424 129.116 141.152  0.00  0.00    +0.000 A 
ATOM     19  C   UNL     1     103.603 129.559 141.825  0.00  0.00    +0.000 A 
BRANCH  18  20
ATOM     20  O   UNL     1     103.718 128.348 141.072  0.00  0.00    +0.000 OA
ATOM     21  C   UNL     1     104.375 128.111 141.512  0.00  0.00    +0.000 C 
ENDBRANCH  18  20
ENDBRANCH   6  14
BRANCH  11  22
ATOM     22  O   UNL     1     103.307 134.925 140.723  0.00  0.00    +0.000 OA
BRANCH  22  23
ATOM     23  S   UNL     1     104.046 135.082 141.053  0.00  0.00    +0.000 S 
ATOM     24  O   UNL     1     104.785 135.240 141.384  0.00  0.00    +0.000 OA
ATOM     25  O   UNL     1     103.681 135.463 141.688  0.00  0.00    +0.000 OA
ATOM     26  O   UNL     1     104.411 134.702 140.419  0.00  0.00    +0.000 OA
ENDBRANCH  22  23
ENDBRANCH  11  22
TORSDOF 4
ENDMDL
MODEL 5
REMARK VINA RESULT:      -7.9      7.506      8.458
REMARK  Name = 44258234
REMARK  4 active torsions:
REMARK  status: ('A' for Active; 'I' for Inactive)
REMARK    1  A    between atoms: S_1  and  O_3
REMARK    2  A    between atoms: O_3  and  C_19
REMARK    3  A    between atoms: O_6  and  C_24
REMARK    4  A    between atoms: C_13  and  C_14
REMARK                            x       y       z     vdW  Elec       q    Type
REMARK                         _______ _______ _______ _____ _____    ______ ____
ROOT
ATOM      1  O   UNL     1     110.619 127.095 136.057  0.00  0.00    +0.000 OA
ATOM      2  O   UNL     1     111.848 129.481 134.991  0.00  0.00    +0.000 OA
ATOM      3  O   UNL     1     112.649 128.370 135.443  0.00  0.00    +0.000 OA
ATOM      4  C   UNL     1     111.226 128.275 135.530  0.00  0.00    +0.000 A 
ATOM      5  C   UNL     1     110.549 127.850 135.735  0.00  0.00    +0.000 A 
ATOM      6  C   UNL     1     111.365 126.763 136.175  0.00  0.00    +0.000 A 
ATOM      7  C   UNL     1     111.972 127.945 135.648  0.00  0.00    +0.000 A 
ATOM      8  C   UNL     1     111.166 129.064 135.193  0.00  0.00    +0.000 A 
ATOM      9  C   UNL     1     112.042 127.188 135.971  0.00  0.00    +0.000 A 
ATOM     10  C   UNL     1     109.766 128.184 135.617  0.00  0.00    +0.000 A 
ATOM     11  C   UNL     1     109.687 128.971 135.281  0.00  0.00    +0.000 A 
ATOM     12  C   UNL     1     110.392 129.414 135.068  0.00  0.00    +0.000 A 
ENDROOT
BRANCH   6  14
ATOM     13  O   UNL     1     111.268 125.019 138.438  0.00  0.00    +0.000 OA
ATOM     14  C   UNL     1     111.435 126.008 136.498  0.00  0.00    +0.000 A 
ATOM     15  C   UNL     1     111.317 125.892 137.306  0.00  0.00    +0.000 A 
ATOM     16  C   UNL     1     111.624 125.367 136.013  0.00  0.00    +0.000 A 
ATOM     17  C   UNL     1     111.387 125.135 137.629  0.00  0.00    +0.000 A 
ATOM     18  C   UNL     1     111.575 124.496 137.144  0.00  0.00    +0.000 A 
ATOM     19  C   UNL     1     111.694 124.612 136.336  0.00  0.00    +0.000 A 
BRANCH  18  20
ATOM     20  O   UNL     1     111.645 123.739 137.467  0.00  0.00    +0.000 OA
ATOM     21  C   UNL     1     111.995 123.135 137.028  0.00  0.00    +0.000 C 
ENDBRANCH  18  20
ENDBRANCH   6  14
BRANCH  11  22
ATOM     22  O   UNL     1     108.939 129.299 135.164  0.00  0.00    +0.000 OA
BRANCH  22  23
ATOM     23  S   UNL     1     108.505 129.577 135.809  0.00  0.00    +0.000 S 
ATOM     24  O   UNL     1     108.071 129.855 136.453  0.00  0.00    +0.000 OA
ATOM     25  O   UNL     1     108.917 130.292 135.778  0.00  0.00    +0.000 OA
ATOM     26  O   UNL     1     108.093 128.863 135.840  0.00  0.00    +0.000 OA
ENDBRANCH  22  23
ENDBRANCH  11  22
TORSDOF 4
ENDMDL
MODEL 6
REMARK VINA RESULT:      -7.9      7.951      9.748
REMARK  Name = 44258234
REMARK  4 active torsions:
REMARK  status: ('A' for Active; 'I' for Inactive)
REMARK    1  A    between atoms: S_1  and  O_3
REMARK    2  A    between atoms: O_3  and  C_19
REMARK    3  A    between atoms: O_6  and  C_24
REMARK    4  A    between atoms: C_13  and  C_14
REMARK                            x       y       z     vdW  Elec       q    Type
REMARK                         _______ _______ _______ _____ _____    ______ ____
ROOT
ATOM      1  O   UNL     1     112.614 126.230 138.368  0.00  0.00    +0.000 OA
ATOM      2  O   UNL     1     113.892 124.310 136.629  0.00  0.00    +0.000 OA
ATOM      3  O   UNL     1     114.650 125.040 137.615  0.00  0.00    +0.000 OA
ATOM      4  C   UNL     1     113.245 125.281 137.508  0.00  0.00    +0.000 A 
ATOM      5  C   UNL     1     112.566 125.677 137.759  0.00  0.00    +0.000 A 
ATOM      6  C   UNL     1     113.340 126.387 138.728  0.00  0.00    +0.000 A 
ATOM      7  C   UNL     1     113.971 125.437 137.866  0.00  0.00    +0.000 A 
ATOM      8  C   UNL     1     113.209 124.701 136.873  0.00  0.00    +0.000 A 
ATOM      9  C   UNL     1     114.018 125.991 138.477  0.00  0.00    +0.000 A 
ATOM     10  C   UNL     1     111.804 125.522 137.392  0.00  0.00    +0.000 A 
ATOM     11  C   UNL     1     111.748 124.947 136.757  0.00  0.00    +0.000 A 
ATOM     12  C   UNL     1     112.456 124.534 136.495  0.00  0.00    +0.000 A 
ENDROOT
BRANCH   6  14
ATOM     13  O   UNL     1     113.372 126.996 141.520  0.00  0.00    +0.000 OA
ATOM     14  C   UNL     1     113.388 126.940 139.338  0.00  0.00    +0.000 A 
ATOM     15  C   UNL     1     113.356 126.691 140.123  0.00  0.00    +0.000 A 
ATOM     16  C   UNL     1     113.467 127.743 139.163  0.00  0.00    +0.000 A 
ATOM     17  C   UNL     1     113.404 127.245 140.734  0.00  0.00    +0.000 A 
ATOM     18  C   UNL     1     113.483 128.046 140.558  0.00  0.00    +0.000 A 
ATOM     19  C   UNL     1     113.515 128.295 139.772  0.00  0.00    +0.000 A 
BRANCH  18  20
ATOM     20  O   UNL     1     113.531 128.600 141.169  0.00  0.00    +0.000 OA
ATOM     21  C   UNL     1     113.645 129.398 140.994  0.00  0.00    +0.000 C 
ENDBRANCH  18  20
ENDBRANCH   6  14
BRANCH  11  22
ATOM     22  O   UNL     1     111.021 124.792 136.400  0.00  0.00    +0.000 OA
BRANCH  22  23
ATOM     23  S   UNL     1     110.703 125.331 135.862  0.00  0.00    +0.000 S 
ATOM     24  O   UNL     1     110.384 125.870 135.324  0.00  0.00    +0.000 OA
ATOM     25  O   UNL     1     110.271 125.683 136.470  0.00  0.00    +0.000 OA
ATOM     26  O   UNL     1     111.135 124.979 135.253  0.00  0.00    +0.000 OA
ENDBRANCH  22  23
ENDBRANCH  11  22
TORSDOF 4
ENDMDL
MODEL 7
REMARK VINA RESULT:      -7.9      7.048      7.986
REMARK  Name = 44258234
REMARK  4 active torsions:
REMARK  status: ('A' for Active; 'I' for Inactive)
REMARK    1  A    between atoms: S_1  and  O_3
REMARK    2  A    between atoms: O_3  and  C_19
REMARK    3  A    between atoms: O_6  and  C_24
REMARK    4  A    between atoms: C_13  and  C_14
REMARK                            x       y       z     vdW  Elec       q    Type
REMARK                         _______ _______ _______ _____ _____    ______ ____
ROOT
ATOM      1  O   UNL     1     110.557 127.327 136.284  0.00  0.00    +0.000 OA
ATOM      2  O   UNL     1     108.028 128.603 135.721  0.00  0.00    +0.000 OA
ATOM      3  O   UNL     1     108.094 127.206 136.074  0.00  0.00    +0.000 OA
ATOM      4  C   UNL     1     109.307 127.959 136.006  0.00  0.00    +0.000 A 
ATOM      5  C   UNL     1     110.128 127.999 136.076  0.00  0.00    +0.000 A 
ATOM      6  C   UNL     1     110.167 126.613 136.423  0.00  0.00    +0.000 A 
ATOM      7  C   UNL     1     108.915 127.246 136.144  0.00  0.00    +0.000 A 
ATOM      8  C   UNL     1     108.848 128.653 135.789  0.00  0.00    +0.000 A 
ATOM      9  C   UNL     1     109.346 126.573 136.353  0.00  0.00    +0.000 A 
ATOM     10  C   UNL     1     110.547 128.736 135.934  0.00  0.00    +0.000 A 
ATOM     11  C   UNL     1     110.105 129.440 135.717  0.00  0.00    +0.000 A 
ATOM     12  C   UNL     1     109.249 129.398 135.644  0.00  0.00    +0.000 A 
ENDROOT
BRANCH   6  14
ATOM     13  O   UNL     1     111.273 124.908 138.432  0.00  0.00    +0.000 OA
ATOM     14  C   UNL     1     110.596 125.941 136.631  0.00  0.00    +0.000 A 
ATOM     15  C   UNL     1     110.720 125.761 137.427  0.00  0.00    +0.000 A 
ATOM     16  C   UNL     1     110.902 125.447 136.045  0.00  0.00    +0.000 A 
ATOM     17  C   UNL     1     111.150 125.088 137.636  0.00  0.00    +0.000 A 
ATOM     18  C   UNL     1     111.455 124.595 137.049  0.00  0.00    +0.000 A 
ATOM     19  C   UNL     1     111.331 124.775 136.253  0.00  0.00    +0.000 A 
BRANCH  18  20
ATOM     20  O   UNL     1     111.885 123.922 137.258  0.00  0.00    +0.000 OA
ATOM     21  C   UNL     1     112.274 123.485 136.677  0.00  0.00    +0.000 C 
ENDBRANCH  18  20
ENDBRANCH   6  14
BRANCH  11  22
ATOM     22  O   UNL     1     110.499 130.151 135.579  0.00  0.00    +0.000 OA
BRANCH  22  23
ATOM     23  S   UNL     1     110.721 130.630 136.214  0.00  0.00    +0.000 S 
ATOM     24  O   UNL     1     110.943 131.108 136.848  0.00  0.00    +0.000 OA
ATOM     25  O   UNL     1     109.982 130.996 136.196  0.00  0.00    +0.000 OA
ATOM     26  O   UNL     1     111.460 130.264 136.231  0.00  0.00    +0.000 OA
ENDBRANCH  22  23
ENDBRANCH  11  22
TORSDOF 4
ENDMDL
MODEL 8
REMARK VINA RESULT:      -7.8      8.595     10.001
REMARK  Name = 44258234
REMARK  4 active torsions:
REMARK  status: ('A' for Active; 'I' for Inactive)
REMARK    1  A    between atoms: S_1  and  O_3
REMARK    2  A    between atoms: O_3  and  C_19
REMARK    3  A    between atoms: O_6  and  C_24
REMARK    4  A    between atoms: C_13  and  C_14
REMARK                            x       y       z     vdW  Elec       q    Type
REMARK                         _______ _______ _______ _____ _____    ______ ____
ROOT
ATOM      1  O   UNL     1     112.284 127.111 136.331  0.00  0.00    +0.000 OA
ATOM      2  O   UNL     1     110.086 125.904 134.896  0.00  0.00    +0.000 OA
ATOM      3  O   UNL     1     110.509 127.253 134.612  0.00  0.00    +0.000 OA
ATOM      4  C   UNL     1     111.197 126.513 135.622  0.00  0.00    +0.000 A 
ATOM      5  C   UNL     1     111.789 126.465 136.195  0.00  0.00    +0.000 A 
ATOM      6  C   UNL     1     112.188 127.804 135.894  0.00  0.00    +0.000 A 
ATOM      7  C   UNL     1     111.101 127.205 135.185  0.00  0.00    +0.000 A 
ATOM      8  C   UNL     1     110.674 125.847 135.471  0.00  0.00    +0.000 A 
ATOM      9  C   UNL     1     111.597 127.852 135.321  0.00  0.00    +0.000 A 
ATOM     10  C   UNL     1     111.899 125.749 136.657  0.00  0.00    +0.000 A 
ATOM     11  C   UNL     1     111.387 125.073 136.520  0.00  0.00    +0.000 A 
ATOM     12  C   UNL     1     110.770 125.123 135.923  0.00  0.00    +0.000 A 
ENDROOT
BRANCH   6  14
ATOM     13  O   UNL     1     114.641 129.187 135.407  0.00  0.00    +0.000 OA
ATOM     14  C   UNL     1     112.683 128.449 136.030  0.00  0.00    +0.000 A 
ATOM     15  C   UNL     1     113.414 128.495 135.651  0.00  0.00    +0.000 A 
ATOM     16  C   UNL     1     112.448 129.049 136.545  0.00  0.00    +0.000 A 
ATOM     17  C   UNL     1     113.910 129.141 135.786  0.00  0.00    +0.000 A 
ATOM     18  C   UNL     1     113.674 129.740 136.301  0.00  0.00    +0.000 A 
ATOM     19  C   UNL     1     112.943 129.695 136.681  0.00  0.00    +0.000 A 
BRANCH  18  20
ATOM     20  O   UNL     1     114.170 130.387 136.437  0.00  0.00    +0.000 OA
ATOM     21  C   UNL     1     113.954 130.963 136.987  0.00  0.00    +0.000 C 
ENDBRANCH  18  20
ENDBRANCH   6  14
BRANCH  11  22
ATOM     22  O   UNL     1     111.485 124.381 136.959  0.00  0.00    +0.000 OA
BRANCH  22  23
ATOM     23  S   UNL     1     112.177 123.939 136.882  0.00  0.00    +0.000 S 
ATOM     24  O   UNL     1     112.870 123.497 136.805  0.00  0.00    +0.000 OA
ATOM     25  O   UNL     1     111.858 123.553 136.226  0.00  0.00    +0.000 OA
ATOM     26  O   UNL     1     112.497 124.325 137.537  0.00  0.00    +0.000 OA
ENDBRANCH  22  23
ENDBRANCH  11  22
TORSDOF 4
ENDMDL
MODEL 9
REMARK VINA RESULT:      -7.8      6.455      8.270
REMARK  Name = 44258234
REMARK  4 active torsions:
REMARK  status: ('A' for Active; 'I' for Inactive)
REMARK    1  A    between atoms: S_1  and  O_3
REMARK    2  A    between atoms: O_3  and  C_19
REMARK    3  A    between atoms: O_6  and  C_24
REMARK    4  A    between atoms: C_13  and  C_14
REMARK                            x       y       z     vdW  Elec       q    Type
REMARK                         _______ _______ _______ _____ _____    ______ ____
ROOT
ATOM      1  O   UNL     1     103.798 124.611 146.916  0.00  0.00    +0.000 OA
ATOM      2  O   UNL     1     101.992 122.763 145.625  0.00  0.00    +0.000 OA
ATOM      3  O   UNL     1     103.375 122.853 145.226  0.00  0.00    +0.000 OA
ATOM      4  C   UNL     1     102.904 123.698 146.278  0.00  0.00    +0.000 A 
ATOM      5  C   UNL     1     103.046 124.284 146.841  0.00  0.00    +0.000 A 
ATOM      6  C   UNL     1     104.411 124.353 146.427  0.00  0.00    +0.000 A 
ATOM      7  C   UNL     1     103.516 123.439 145.789  0.00  0.00    +0.000 A 
ATOM      8  C   UNL     1     102.124 123.348 146.190  0.00  0.00    +0.000 A 
ATOM      9  C   UNL     1     104.270 123.767 145.864  0.00  0.00    +0.000 A 
ATOM     10  C   UNL     1     102.416 124.561 147.356  0.00  0.00    +0.000 A 
ATOM     11  C   UNL     1     101.629 124.224 147.283  0.00  0.00    +0.000 A 
ATOM     12  C   UNL     1     101.482 123.613 146.696  0.00  0.00    +0.000 A 
ENDROOT
BRANCH   6  14
ATOM     13  O   UNL     1     106.608 125.789 145.296  0.00  0.00    +0.000 OA
ATOM     14  C   UNL     1     105.164 124.680 146.501  0.00  0.00    +0.000 A 
ATOM     15  C   UNL     1     105.509 125.071 145.862  0.00  0.00    +0.000 A 
ATOM     16  C   UNL     1     105.574 124.618 147.215  0.00  0.00    +0.000 A 
ATOM     17  C   UNL     1     106.263 125.399 145.936  0.00  0.00    +0.000 A 
ATOM     18  C   UNL     1     106.671 125.336 146.650  0.00  0.00    +0.000 A 
ATOM     19  C   UNL     1     106.327 124.945 147.289  0.00  0.00    +0.000 A 
BRANCH  18  20
ATOM     20  O   UNL     1     107.426 125.664 146.724  0.00  0.00    +0.000 OA
ATOM     21  C   UNL     1     107.859 125.548 147.416  0.00  0.00    +0.000 C 
ENDBRANCH  18  20
ENDBRANCH   6  14
BRANCH  11  22
ATOM     22  O   UNL     1     101.019 124.484 147.773  0.00  0.00    +0.000 OA
BRANCH  22  23
ATOM     23  S   UNL     1     100.981 124.228 148.557  0.00  0.00    +0.000 S 
ATOM     24  O   UNL     1     100.943 123.972 149.340  0.00  0.00    +0.000 OA
ATOM     25  O   UNL     1     100.713 123.490 148.302  0.00  0.00    +0.000 OA
ATOM     26  O   UNL     1     101.248 124.966 148.811  0.00  0.00    +0.000 OA
ENDBRANCH  22  23
ENDBRANCH  11  22
TORSDOF 4
ENDMDL
MODEL 10
REMARK VINA RESULT:      -7.7      9.172     10.445
REMARK  Name = 44258234
REMARK  4 active torsions:
REMARK  status: ('A' for Active; 'I' for Inactive)
REMARK    1  A    between atoms: S_1  and  O_3
REMARK    2  A    between atoms: O_3  and  C_19
REMARK    3  A    between atoms: O_6  and  C_24
REMARK    4  A    between atoms: C_13  and  C_14
REMARK                            x       y       z     vdW  Elec       q    Type
REMARK                         _______ _______ _______ _____ _____    ______ ____
ROOT
ATOM      1  O   UNL     1     112.735 127.658 136.110  0.00  0.00    +0.000 OA
ATOM      2  O   UNL     1     113.116 124.890 136.844  0.00  0.00    +0.000 OA
ATOM      3  O   UNL     1     114.224 125.812 136.819  0.00  0.00    +0.000 OA
ATOM      4  C   UNL     1     112.922 126.289 136.473  0.00  0.00    +0.000 A 
ATOM      5  C   UNL     1     112.426 126.904 136.236  0.00  0.00    +0.000 A 
ATOM      6  C   UNL     1     113.541 127.798 136.220  0.00  0.00    +0.000 A 
ATOM      7  C   UNL     1     113.728 126.427 136.582  0.00  0.00    +0.000 A 
ATOM      8  C   UNL     1     112.612 125.498 136.608  0.00  0.00    +0.000 A 
ATOM      9  C   UNL     1     114.037 127.182 136.456  0.00  0.00    +0.000 A 
ATOM     10  C   UNL     1     111.585 126.771 136.119  0.00  0.00    +0.000 A 
ATOM     11  C   UNL     1     111.257 125.988 136.249  0.00  0.00    +0.000 A 
ATOM     12  C   UNL     1     111.774 125.347 136.495  0.00  0.00    +0.000 A 
ENDROOT
BRANCH   6  14
ATOM     13  O   UNL     1     113.870 130.510 137.058  0.00  0.00    +0.000 OA
ATOM     14  C   UNL     1     113.850 128.551 136.093  0.00  0.00    +0.000 A 
ATOM     15  C   UNL     1     113.705 129.153 136.639  0.00  0.00    +0.000 A 
ATOM     16  C   UNL     1     114.305 128.704 135.422  0.00  0.00    +0.000 A 
ATOM     17  C   UNL     1     114.015 129.908 136.512  0.00  0.00    +0.000 A 
ATOM     18  C   UNL     1     114.469 130.060 135.841  0.00  0.00    +0.000 A 
ATOM     19  C   UNL     1     114.614 129.458 135.296  0.00  0.00    +0.000 A 
BRANCH  18  20
ATOM     20  O   UNL     1     114.779 130.815 135.715  0.00  0.00    +0.000 OA
ATOM     21  C   UNL     1     115.248 130.962 135.052  0.00  0.00    +0.000 C 
ENDBRANCH  18  20
ENDBRANCH   6  14
BRANCH  11  22
ATOM     22  O   UNL     1     110.451 125.852 136.138  0.00  0.00    +0.000 OA
BRANCH  22  23
ATOM     23  S   UNL     1     110.139 125.819 135.375  0.00  0.00    +0.000 S 
ATOM     24  O   UNL     1     109.827 125.785 134.612  0.00  0.00    +0.000 OA
ATOM     25  O   UNL     1     109.843 126.584 135.463  0.00  0.00    +0.000 OA
ATOM     26  O   UNL     1     110.435 125.053 135.287  0.00  0.00    +0.000 OA
ENDBRANCH  22  23
ENDBRANCH  11  22
TORSDOF 4
ENDMDL
