MODEL 1
REMARK VINA RESULT:     -10.6      0.000      0.000
REMARK  Name = 85202062
REMARK  6 active torsions:
REMARK  status: ('A' for Active; 'I' for Inactive)
REMARK    1  A    between atoms: O_1  and  C_14
REMARK    2  A    between atoms: O_1  and  C_17
REMARK    3  A    between atoms: O_4  and  C_19
REMARK    4  A    between atoms: O_4  and  C_26
REMARK    5  A    between atoms: O_10  and  C_28
REMARK    6  A    between atoms: C_34  and  C_36
REMARK                            x       y       z     vdW  Elec       q    Type
REMARK                         _______ _______ _______ _____ _____    ______ ____
ROOT
ATOM      1  O   UNL     1     110.965 129.575 137.321  0.00  0.00    +0.000 OA
ENDROOT
BRANCH   1   5
ATOM      2  O   UNL     1     110.710 128.123 138.062  0.00  0.00    +0.000 OA
ATOM      3  O   UNL     1     113.172 127.106 136.931  0.00  0.00    +0.000 OA
ATOM      4  O   UNL     1     111.107 126.768 138.357  0.00  0.00    +0.000 OA
ATOM      5  C   UNL     1     111.509 128.962 137.226  0.00  0.00    +0.000 A 
ATOM      6  C   UNL     1     111.382 128.237 137.597  0.00  0.00    +0.000 A 
ATOM      7  C   UNL     1     112.181 129.076 136.761  0.00  0.00    +0.000 A 
ATOM      8  C   UNL     1     111.926 127.624 137.502  0.00  0.00    +0.000 A 
ATOM      9  C   UNL     1     112.725 128.463 136.666  0.00  0.00    +0.000 A 
ATOM     10  C   UNL     1     112.598 127.736 137.037  0.00  0.00    +0.000 A 
ATOM     11  C   UNL     1     111.782 126.872 137.893  0.00  0.00    +0.000 A 
ATOM     12  C   UNL     1     112.345 126.229 137.799  0.00  0.00    +0.000 A 
ATOM     13  C   UNL     1     113.045 126.348 137.314  0.00  0.00    +0.000 A 
BRANCH  13  14
ATOM     14  C   UNL     1     113.591 125.737 137.217  0.00  0.00    +0.000 A 
ATOM     15  C   UNL     1     114.197 125.635 137.767  0.00  0.00    +0.000 A 
ATOM     16  C   UNL     1     113.530 125.228 136.571  0.00  0.00    +0.000 A 
ATOM     17  C   UNL     1     114.743 125.024 137.671  0.00  0.00    +0.000 A 
ATOM     18  C   UNL     1     114.076 124.616 136.475  0.00  0.00    +0.000 A 
ATOM     19  C   UNL     1     114.682 124.515 137.025  0.00  0.00    +0.000 A 
ENDBRANCH  13  14
BRANCH   7  20
ATOM     20  O   UNL     1     112.309 129.801 136.391  0.00  0.00    +0.000 OA
ATOM     21  C   UNL     1     113.077 130.049 136.223  0.00  0.00    +0.000 C 
ENDBRANCH   7  20
ENDBRANCH   1   5
BRANCH   1  28
ATOM     22  O   UNL     1     110.233 129.188 136.156  0.00  0.00    +0.000 OA
ATOM     23  O   UNL     1     108.232 130.357 137.026  0.00  0.00    +0.000 OA
ATOM     24  O   UNL     1     108.167 129.581 135.571  0.00  0.00    +0.000 OA
ATOM     25  C   UNL     1     109.598 129.966 137.173  0.00  0.00    +0.000 C 
ATOM     26  C   UNL     1     108.899 129.968 136.736  0.00  0.00    +0.000 C 
ATOM     27  C   UNL     1     108.866 129.580 136.009  0.00  0.00    +0.000 C 
ATOM     28  C   UNL     1     110.265 129.576 136.883  0.00  0.00    +0.000 C 
ATOM     29  C   UNL     1     109.533 129.190 135.719  0.00  0.00    +0.000 C 
ATOM     30  C   UNL     1     109.501 128.802 134.991  0.00  0.00    +0.000 C 
BRANCH  25  31
ATOM     31  O   UNL     1     109.631 130.354 137.901  0.00  0.00    +0.000 OA
BRANCH  31  36
ATOM     32  O   UNL     1     109.898 131.589 137.232  0.00  0.00    +0.000 OA
ATOM     33  O   UNL     1     109.815 131.104 139.359  0.00  0.00    +0.000 OA
ATOM     34  O   UNL     1     110.173 132.714 139.419  0.00  0.00    +0.000 OA
ATOM     35  O   UNL     1     110.347 133.573 138.021  0.00  0.00    +0.000 OA
ATOM     36  C   UNL     1     109.810 131.159 137.931  0.00  0.00    +0.000 C 
ATOM     37  C   UNL     1     109.902 131.534 138.659  0.00  0.00    +0.000 C 
ATOM     38  C   UNL     1     110.081 132.339 138.689  0.00  0.00    +0.000 C 
ATOM     39  C   UNL     1     110.168 132.768 137.991  0.00  0.00    +0.000 C 
ATOM     40  C   UNL     1     110.077 132.393 137.262  0.00  0.00    +0.000 C 
ATOM     41  C   UNL     1     110.164 132.822 136.563  0.00  0.00    +0.000 C 
ENDBRANCH  31  36
ENDBRANCH  25  31
ENDBRANCH   1  28
TORSDOF 6
ENDMDL
MODEL 2
REMARK VINA RESULT:     -10.3      1.046      2.106
REMARK  Name = 85202062
REMARK  6 active torsions:
REMARK  status: ('A' for Active; 'I' for Inactive)
REMARK    1  A    between atoms: O_1  and  C_14
REMARK    2  A    between atoms: O_1  and  C_17
REMARK    3  A    between atoms: O_4  and  C_19
REMARK    4  A    between atoms: O_4  and  C_26
REMARK    5  A    between atoms: O_10  and  C_28
REMARK    6  A    between atoms: C_34  and  C_36
REMARK                            x       y       z     vdW  Elec       q    Type
REMARK                         _______ _______ _______ _____ _____    ______ ____
ROOT
ATOM      1  O   UNL     1     110.628 129.452 136.923  0.00  0.00    +0.000 OA
ENDROOT
BRANCH   1   5
ATOM      2  O   UNL     1     110.319 127.850 137.172  0.00  0.00    +0.000 OA
ATOM      3  O   UNL     1     113.149 127.271 136.996  0.00  0.00    +0.000 OA
ATOM      4  O   UNL     1     110.763 126.486 137.320  0.00  0.00    +0.000 OA
ATOM      5  C   UNL     1     111.250 128.910 136.942  0.00  0.00    +0.000 A 
ATOM      6  C   UNL     1     111.095 128.110 137.066  0.00  0.00    +0.000 A 
ATOM      7  C   UNL     1     112.026 129.169 136.836  0.00  0.00    +0.000 A 
ATOM      8  C   UNL     1     111.717 127.568 137.085  0.00  0.00    +0.000 A 
ATOM      9  C   UNL     1     112.648 128.627 136.855  0.00  0.00    +0.000 A 
ATOM     10  C   UNL     1     112.493 127.826 136.979  0.00  0.00    +0.000 A 
ATOM     11  C   UNL     1     111.543 126.736 137.215  0.00  0.00    +0.000 A 
ATOM     12  C   UNL     1     112.186 126.166 137.236  0.00  0.00    +0.000 A 
ATOM     13  C   UNL     1     112.995 126.437 137.125  0.00  0.00    +0.000 A 
BRANCH  13  14
ATOM     14  C   UNL     1     113.618 125.897 137.143  0.00  0.00    +0.000 A 
ATOM     15  C   UNL     1     113.953 125.677 137.865  0.00  0.00    +0.000 A 
ATOM     16  C   UNL     1     113.907 125.576 136.440  0.00  0.00    +0.000 A 
ATOM     17  C   UNL     1     114.577 125.137 137.883  0.00  0.00    +0.000 A 
ATOM     18  C   UNL     1     114.531 125.036 136.458  0.00  0.00    +0.000 A 
ATOM     19  C   UNL     1     114.866 124.817 137.180  0.00  0.00    +0.000 A 
ENDBRANCH  13  14
BRANCH   7  20
ATOM     20  O   UNL     1     112.181 129.970 136.712  0.00  0.00    +0.000 OA
ATOM     21  C   UNL     1     112.861 130.200 136.307  0.00  0.00    +0.000 C 
ENDBRANCH   7  20
ENDBRANCH   1   5
BRANCH   1  28
ATOM     22  O   UNL     1     110.757 129.732 138.319  0.00  0.00    +0.000 OA
ATOM     23  O   UNL     1     108.432 130.580 138.363  0.00  0.00    +0.000 OA
ATOM     24  O   UNL     1     109.336 130.578 139.744  0.00  0.00    +0.000 OA
ATOM     25  C   UNL     1     109.530 130.016 137.644  0.00  0.00    +0.000 C 
ATOM     26  C   UNL     1     109.207 130.297 138.348  0.00  0.00    +0.000 C 
ATOM     27  C   UNL     1     109.658 130.296 139.038  0.00  0.00    +0.000 C 
ATOM     28  C   UNL     1     110.305 129.734 137.629  0.00  0.00    +0.000 C 
ATOM     29  C   UNL     1     110.433 130.014 139.023  0.00  0.00    +0.000 C 
ATOM     30  C   UNL     1     110.886 130.012 139.714  0.00  0.00    +0.000 C 
BRANCH  25  31
ATOM     31  O   UNL     1     109.078 130.017 136.953  0.00  0.00    +0.000 OA
BRANCH  31  36
ATOM     32  O   UNL     1     109.483 131.363 136.691  0.00  0.00    +0.000 OA
ATOM     33  O   UNL     1     108.112 130.048 135.616  0.00  0.00    +0.000 OA
ATOM     34  O   UNL     1     108.033 131.408 134.686  0.00  0.00    +0.000 OA
ATOM     35  O   UNL     1     108.921 132.738 135.092  0.00  0.00    +0.000 OA
ATOM     36  C   UNL     1     109.039 130.698 136.488  0.00  0.00    +0.000 C 
ATOM     37  C   UNL     1     108.556 130.713 135.819  0.00  0.00    +0.000 C 
ATOM     38  C   UNL     1     108.517 131.393 135.354  0.00  0.00    +0.000 C 
ATOM     39  C   UNL     1     108.960 132.058 135.557  0.00  0.00    +0.000 C 
ATOM     40  C   UNL     1     109.444 132.043 136.226  0.00  0.00    +0.000 C 
ATOM     41  C   UNL     1     109.887 132.708 136.429  0.00  0.00    +0.000 C 
ENDBRANCH  31  36
ENDBRANCH  25  31
ENDBRANCH   1  28
TORSDOF 6
ENDMDL
MODEL 3
REMARK VINA RESULT:     -10.2      7.741     10.511
REMARK  Name = 85202062
REMARK  6 active torsions:
REMARK  status: ('A' for Active; 'I' for Inactive)
REMARK    1  A    between atoms: O_1  and  C_14
REMARK    2  A    between atoms: O_1  and  C_17
REMARK    3  A    between atoms: O_4  and  C_19
REMARK    4  A    between atoms: O_4  and  C_26
REMARK    5  A    between atoms: O_10  and  C_28
REMARK    6  A    between atoms: C_34  and  C_36
REMARK                            x       y       z     vdW  Elec       q    Type
REMARK                         _______ _______ _______ _____ _____    ______ ____
ROOT
ATOM      1  O   UNL     1     105.170 127.761 143.494  0.00  0.00    +0.000 OA
ENDROOT
BRANCH   1   5
ATOM      2  O   UNL     1     104.494 127.942 142.000  0.00  0.00    +0.000 OA
ATOM      3  O   UNL     1     103.445 130.524 142.781  0.00  0.00    +0.000 OA
ATOM      4  O   UNL     1     103.726 128.702 141.045  0.00  0.00    +0.000 OA
ATOM      5  C   UNL     1     104.743 128.443 143.315  0.00  0.00    +0.000 A 
ATOM      6  C   UNL     1     104.405 128.534 142.568  0.00  0.00    +0.000 A 
ATOM      7  C   UNL     1     104.653 129.035 143.883  0.00  0.00    +0.000 A 
ATOM      8  C   UNL     1     103.978 129.216 142.389  0.00  0.00    +0.000 A 
ATOM      9  C   UNL     1     104.226 129.717 143.704  0.00  0.00    +0.000 A 
ATOM     10  C   UNL     1     103.888 129.808 142.956  0.00  0.00    +0.000 A 
ATOM     11  C   UNL     1     103.631 129.299 141.607  0.00  0.00    +0.000 A 
ATOM     12  C   UNL     1     103.184 130.008 141.413  0.00  0.00    +0.000 A 
ATOM     13  C   UNL     1     103.092 130.624 142.006  0.00  0.00    +0.000 A 
BRANCH  13  14
ATOM     14  C   UNL     1     102.665 131.308 141.829  0.00  0.00    +0.000 A 
ATOM     15  C   UNL     1     103.046 131.956 141.491  0.00  0.00    +0.000 A 
ATOM     16  C   UNL     1     101.857 131.343 141.991  0.00  0.00    +0.000 A 
ATOM     17  C   UNL     1     102.620 132.640 141.314  0.00  0.00    +0.000 A 
ATOM     18  C   UNL     1     101.429 132.027 141.814  0.00  0.00    +0.000 A 
ATOM     19  C   UNL     1     101.811 132.675 141.476  0.00  0.00    +0.000 A 
ENDBRANCH  13  14
BRANCH   7  20
ATOM     20  O   UNL     1     104.991 128.944 144.630  0.00  0.00    +0.000 OA
ATOM     21  C   UNL     1     104.713 129.391 145.265  0.00  0.00    +0.000 C 
ENDBRANCH   7  20
ENDBRANCH   1   5
BRANCH   1  28
ATOM     22  O   UNL     1     106.403 128.373 143.114  0.00  0.00    +0.000 OA
ATOM     23  O   UNL     1     107.435 126.138 142.858  0.00  0.00    +0.000 OA
ATOM     24  O   UNL     1     108.325 127.496 142.563  0.00  0.00    +0.000 OA
ATOM     25  C   UNL     1     106.303 126.949 143.176  0.00  0.00    +0.000 C 
ATOM     26  C   UNL     1     107.091 126.883 142.943  0.00  0.00    +0.000 C 
ATOM     27  C   UNL     1     107.536 127.562 142.796  0.00  0.00    +0.000 C 
ATOM     28  C   UNL     1     105.959 127.694 143.261  0.00  0.00    +0.000 C 
ATOM     29  C   UNL     1     107.192 128.307 142.881  0.00  0.00    +0.000 C 
ATOM     30  C   UNL     1     107.637 128.986 142.733  0.00  0.00    +0.000 C 
BRANCH  25  31
ATOM     31  O   UNL     1     105.858 126.270 143.324  0.00  0.00    +0.000 OA
BRANCH  31  36
ATOM     32  O   UNL     1     106.280 126.260 144.690  0.00  0.00    +0.000 OA
ATOM     33  O   UNL     1     105.317 124.719 143.478  0.00  0.00    +0.000 OA
ATOM     34  O   UNL     1     105.469 123.933 144.921  0.00  0.00    +0.000 OA
ATOM     35  O   UNL     1     106.160 124.697 146.209  0.00  0.00    +0.000 OA
ATOM     36  C   UNL     1     105.933 125.877 144.045  0.00  0.00    +0.000 C 
ATOM     37  C   UNL     1     105.663 125.102 144.123  0.00  0.00    +0.000 C 
ATOM     38  C   UNL     1     105.739 124.708 144.844  0.00  0.00    +0.000 C 
ATOM     39  C   UNL     1     106.085 125.091 145.488  0.00  0.00    +0.000 C 
ATOM     40  C   UNL     1     106.355 125.866 145.411  0.00  0.00    +0.000 C 
ATOM     41  C   UNL     1     106.701 126.249 146.055  0.00  0.00    +0.000 C 
ENDBRANCH  31  36
ENDBRANCH  25  31
ENDBRANCH   1  28
TORSDOF 6
ENDMDL
MODEL 4
REMARK VINA RESULT:     -10.1      1.262      2.273
REMARK  Name = 85202062
REMARK  6 active torsions:
REMARK  status: ('A' for Active; 'I' for Inactive)
REMARK    1  A    between atoms: O_1  and  C_14
REMARK    2  A    between atoms: O_1  and  C_17
REMARK    3  A    between atoms: O_4  and  C_19
REMARK    4  A    between atoms: O_4  and  C_26
REMARK    5  A    between atoms: O_10  and  C_28
REMARK    6  A    between atoms: C_34  and  C_36
REMARK                            x       y       z     vdW  Elec       q    Type
REMARK                         _______ _______ _______ _____ _____    ______ ____
ROOT
ATOM      1  O   UNL     1     110.782 129.477 136.749  0.00  0.00    +0.000 OA
ENDROOT
BRANCH   1   5
ATOM      2  O   UNL     1     111.271 128.753 138.149  0.00  0.00    +0.000 OA
ATOM      3  O   UNL     1     112.661 126.725 136.623  0.00  0.00    +0.000 OA
ATOM      4  O   UNL     1     111.979 127.713 138.853  0.00  0.00    +0.000 OA
ATOM      5  C   UNL     1     111.247 128.796 136.721  0.00  0.00    +0.000 A 
ATOM      6  C   UNL     1     111.491 128.434 137.421  0.00  0.00    +0.000 A 
ATOM      7  C   UNL     1     111.468 128.477 135.992  0.00  0.00    +0.000 A 
ATOM      8  C   UNL     1     111.956 127.754 137.393  0.00  0.00    +0.000 A 
ATOM      9  C   UNL     1     111.933 127.796 135.965  0.00  0.00    +0.000 A 
ATOM     10  C   UNL     1     112.177 127.434 136.665  0.00  0.00    +0.000 A 
ATOM     11  C   UNL     1     112.204 127.386 138.129  0.00  0.00    +0.000 A 
ATOM     12  C   UNL     1     112.689 126.676 138.107  0.00  0.00    +0.000 A 
ATOM     13  C   UNL     1     112.919 126.344 137.348  0.00  0.00    +0.000 A 
BRANCH  13  14
ATOM     14  C   UNL     1     113.384 125.663 137.317  0.00  0.00    +0.000 A 
ATOM     15  C   UNL     1     113.040 124.937 137.131  0.00  0.00    +0.000 A 
ATOM     16  C   UNL     1     114.193 125.709 137.473  0.00  0.00    +0.000 A 
ATOM     17  C   UNL     1     113.505 124.256 137.100  0.00  0.00    +0.000 A 
ATOM     18  C   UNL     1     114.658 125.027 137.442  0.00  0.00    +0.000 A 
ATOM     19  C   UNL     1     114.313 124.302 137.256  0.00  0.00    +0.000 A 
ENDBRANCH  13  14
BRANCH   7  20
ATOM     20  O   UNL     1     111.224 128.838 135.293  0.00  0.00    +0.000 OA
ATOM     21  C   UNL     1     111.107 128.385 134.614  0.00  0.00    +0.000 C 
ENDBRANCH   7  20
ENDBRANCH   1   5
BRANCH   1  28
ATOM     22  O   UNL     1     111.942 130.311 136.726  0.00  0.00    +0.000 OA
ATOM     23  O   UNL     1     110.581 132.224 137.510  0.00  0.00    +0.000 OA
ATOM     24  O   UNL     1     112.195 132.421 137.226  0.00  0.00    +0.000 OA
ATOM     25  C   UNL     1     110.682 130.851 137.129  0.00  0.00    +0.000 C 
ATOM     26  C   UNL     1     111.035 131.586 137.248  0.00  0.00    +0.000 C 
ATOM     27  C   UNL     1     111.841 131.685 137.107  0.00  0.00    +0.000 C 
ATOM     28  C   UNL     1     111.136 130.213 136.868  0.00  0.00    +0.000 C 
ATOM     29  C   UNL     1     112.295 131.047 136.846  0.00  0.00    +0.000 C 
ATOM     30  C   UNL     1     113.102 131.145 136.703  0.00  0.00    +0.000 C 
BRANCH  25  31
ATOM     31  O   UNL     1     109.875 130.752 137.271  0.00  0.00    +0.000 OA
BRANCH  31  36
ATOM     32  O   UNL     1     109.553 131.173 135.944  0.00  0.00    +0.000 OA
ATOM     33  O   UNL     1     108.314 131.016 137.734  0.00  0.00    +0.000 OA
ATOM     34  O   UNL     1     107.211 131.569 136.639  0.00  0.00    +0.000 OA
ATOM     35  O   UNL     1     107.669 131.858 135.080  0.00  0.00    +0.000 OA
ATOM     36  C   UNL     1     109.324 131.028 136.723  0.00  0.00    +0.000 C 
ATOM     37  C   UNL     1     108.543 131.161 136.954  0.00  0.00    +0.000 C 
ATOM     38  C   UNL     1     107.991 131.437 136.407  0.00  0.00    +0.000 C 
ATOM     39  C   UNL     1     108.221 131.582 135.628  0.00  0.00    +0.000 C 
ATOM     40  C   UNL     1     109.002 131.450 135.396  0.00  0.00    +0.000 C 
ATOM     41  C   UNL     1     109.231 131.594 134.617  0.00  0.00    +0.000 C 
ENDBRANCH  31  36
ENDBRANCH  25  31
ENDBRANCH   1  28
TORSDOF 6
ENDMDL
MODEL 5
REMARK VINA RESULT:      -9.9      1.872      6.127
REMARK  Name = 85202062
REMARK  6 active torsions:
REMARK  status: ('A' for Active; 'I' for Inactive)
REMARK    1  A    between atoms: O_1  and  C_14
REMARK    2  A    between atoms: O_1  and  C_17
REMARK    3  A    between atoms: O_4  and  C_19
REMARK    4  A    between atoms: O_4  and  C_26
REMARK    5  A    between atoms: O_10  and  C_28
REMARK    6  A    between atoms: C_34  and  C_36
REMARK                            x       y       z     vdW  Elec       q    Type
REMARK                         _______ _______ _______ _____ _____    ______ ____
ROOT
ATOM      1  O   UNL     1     111.273 127.119 137.093  0.00  0.00    +0.000 OA
ENDROOT
BRANCH   1   5
ATOM      2  O   UNL     1     109.743 127.114 136.476  0.00  0.00    +0.000 OA
ATOM      3  O   UNL     1     109.867 129.984 136.131  0.00  0.00    +0.000 OA
ATOM      4  O   UNL     1     108.602 127.800 135.921  0.00  0.00    +0.000 OA
ATOM      5  C   UNL     1     110.922 127.826 136.854  0.00  0.00    +0.000 A 
ATOM      6  C   UNL     1     110.158 127.824 136.546  0.00  0.00    +0.000 A 
ATOM      7  C   UNL     1     111.338 128.536 136.924  0.00  0.00    +0.000 A 
ATOM      8  C   UNL     1     109.807 128.531 136.307  0.00  0.00    +0.000 A 
ATOM      9  C   UNL     1     110.987 129.243 136.685  0.00  0.00    +0.000 A 
ATOM     10  C   UNL     1     110.221 129.241 136.376  0.00  0.00    +0.000 A 
ATOM     11  C   UNL     1     109.010 128.515 135.987  0.00  0.00    +0.000 A 
ATOM     12  C   UNL     1     108.638 129.249 135.736  0.00  0.00    +0.000 A 
ATOM     13  C   UNL     1     109.071 129.988 135.809  0.00  0.00    +0.000 A 
BRANCH  13  14
ATOM     14  C   UNL     1     108.723 130.697 135.571  0.00  0.00    +0.000 A 
ATOM     15  C   UNL     1     108.945 131.047 134.857  0.00  0.00    +0.000 A 
ATOM     16  C   UNL     1     108.152 131.057 136.046  0.00  0.00    +0.000 A 
ATOM     17  C   UNL     1     108.597 131.756 134.619  0.00  0.00    +0.000 A 
ATOM     18  C   UNL     1     107.804 131.767 135.808  0.00  0.00    +0.000 A 
ATOM     19  C   UNL     1     108.026 132.115 135.094  0.00  0.00    +0.000 A 
ENDBRANCH  13  14
BRANCH   7  20
ATOM     20  O   UNL     1     112.102 128.539 137.232  0.00  0.00    +0.000 OA
ATOM     21  C   UNL     1     112.628 129.139 137.026  0.00  0.00    +0.000 C 
ENDBRANCH   7  20
ENDBRANCH   1   5
BRANCH   1  28
ATOM     22  O   UNL     1     110.800 127.262 138.434  0.00  0.00    +0.000 OA
ATOM     23  O   UNL     1     111.009 124.819 138.769  0.00  0.00    +0.000 OA
ATOM     24  O   UNL     1     110.466 125.776 139.998  0.00  0.00    +0.000 OA
ATOM     25  C   UNL     1     111.141 125.968 137.932  0.00  0.00    +0.000 C 
ATOM     26  C   UNL     1     110.940 125.633 138.657  0.00  0.00    +0.000 C 
ATOM     27  C   UNL     1     110.668 126.111 139.271  0.00  0.00    +0.000 C 
ATOM     28  C   UNL     1     111.071 126.783 137.820  0.00  0.00    +0.000 C 
ATOM     29  C   UNL     1     110.599 126.926 139.160  0.00  0.00    +0.000 C 
ATOM     30  C   UNL     1     110.327 127.405 139.775  0.00  0.00    +0.000 C 
BRANCH  25  31
ATOM     31  O   UNL     1     111.413 125.490 137.316  0.00  0.00    +0.000 OA
BRANCH  31  36
ATOM     32  O   UNL     1     112.753 125.615 137.797  0.00  0.00    +0.000 OA
ATOM     33  O   UNL     1     111.901 124.323 136.257  0.00  0.00    +0.000 OA
ATOM     34  O   UNL     1     113.485 123.865 136.208  0.00  0.00    +0.000 OA
ATOM     35  O   UNL     1     114.581 124.573 137.218  0.00  0.00    +0.000 OA
ATOM     36  C   UNL     1     112.205 125.261 137.292  0.00  0.00    +0.000 C 
ATOM     37  C   UNL     1     112.450 124.677 136.762  0.00  0.00    +0.000 C 
ATOM     38  C   UNL     1     113.242 124.448 136.738  0.00  0.00    +0.000 C 
ATOM     39  C   UNL     1     113.789 124.802 137.242  0.00  0.00    +0.000 C 
ATOM     40  C   UNL     1     113.545 125.386 137.772  0.00  0.00    +0.000 C 
ATOM     41  C   UNL     1     114.093 125.740 138.277  0.00  0.00    +0.000 C 
ENDBRANCH  31  36
ENDBRANCH  25  31
ENDBRANCH   1  28
TORSDOF 6
ENDMDL
MODEL 6
REMARK VINA RESULT:      -9.9      1.584      5.803
REMARK  Name = 85202062
REMARK  6 active torsions:
REMARK  status: ('A' for Active; 'I' for Inactive)
REMARK    1  A    between atoms: O_1  and  C_14
REMARK    2  A    between atoms: O_1  and  C_17
REMARK    3  A    between atoms: O_4  and  C_19
REMARK    4  A    between atoms: O_4  and  C_26
REMARK    5  A    between atoms: O_10  and  C_28
REMARK    6  A    between atoms: C_34  and  C_36
REMARK                            x       y       z     vdW  Elec       q    Type
REMARK                         _______ _______ _______ _____ _____    ______ ____
ROOT
ATOM      1  O   UNL     1     112.255 127.442 136.797  0.00  0.00    +0.000 OA
ENDROOT
BRANCH   1   5
ATOM      2  O   UNL     1     111.018 128.097 137.672  0.00  0.00    +0.000 OA
ATOM      3  O   UNL     1     111.396 130.629 136.321  0.00  0.00    +0.000 OA
ATOM      4  O   UNL     1     110.164 129.207 138.015  0.00  0.00    +0.000 OA
ATOM      5  C   UNL     1     112.040 128.231 136.682  0.00  0.00    +0.000 A 
ATOM      6  C   UNL     1     111.422 128.558 137.118  0.00  0.00    +0.000 A 
ATOM      7  C   UNL     1     112.444 128.691 136.128  0.00  0.00    +0.000 A 
ATOM      8  C   UNL     1     111.208 129.346 137.003  0.00  0.00    +0.000 A 
ATOM      9  C   UNL     1     112.230 129.479 136.013  0.00  0.00    +0.000 A 
ATOM     10  C   UNL     1     111.611 129.807 136.450  0.00  0.00    +0.000 A 
ATOM     11  C   UNL     1     110.562 129.675 137.464  0.00  0.00    +0.000 A 
ATOM     12  C   UNL     1     110.333 130.496 137.349  0.00  0.00    +0.000 A 
ATOM     13  C   UNL     1     110.754 130.975 136.773  0.00  0.00    +0.000 A 
BRANCH  13  14
ATOM     14  C   UNL     1     110.541 131.763 136.655  0.00  0.00    +0.000 A 
ATOM     15  C   UNL     1     110.958 132.365 137.036  0.00  0.00    +0.000 A 
ATOM     16  C   UNL     1     109.911 131.951 136.156  0.00  0.00    +0.000 A 
ATOM     17  C   UNL     1     110.746 133.153 136.918  0.00  0.00    +0.000 A 
ATOM     18  C   UNL     1     109.698 132.740 136.038  0.00  0.00    +0.000 A 
ATOM     19  C   UNL     1     110.116 133.340 136.419  0.00  0.00    +0.000 A 
ENDBRANCH  13  14
BRANCH   7  20
ATOM     20  O   UNL     1     113.062 128.364 135.692  0.00  0.00    +0.000 OA
ATOM     21  C   UNL     1     113.688 128.839 135.443  0.00  0.00    +0.000 C 
ENDBRANCH   7  20
ENDBRANCH   1   5
BRANCH   1  28
ATOM     22  O   UNL     1     111.375 126.996 135.763  0.00  0.00    +0.000 OA
ATOM     23  O   UNL     1     111.399 124.717 136.726  0.00  0.00    +0.000 OA
ATOM     24  O   UNL     1     110.511 125.031 135.371  0.00  0.00    +0.000 OA
ATOM     25  C   UNL     1     111.827 126.079 136.762  0.00  0.00    +0.000 C 
ATOM     26  C   UNL     1     111.391 125.477 136.405  0.00  0.00    +0.000 C 
ATOM     27  C   UNL     1     110.948 125.633 135.728  0.00  0.00    +0.000 C 
ATOM     28  C   UNL     1     111.819 126.839 136.441  0.00  0.00    +0.000 C 
ATOM     29  C   UNL     1     110.940 126.393 135.407  0.00  0.00    +0.000 C 
ATOM     30  C   UNL     1     110.495 126.551 134.729  0.00  0.00    +0.000 C 
BRANCH  25  31
ATOM     31  O   UNL     1     112.271 125.923 137.439  0.00  0.00    +0.000 OA
BRANCH  31  36
ATOM     32  O   UNL     1     113.330 125.382 136.645  0.00  0.00    +0.000 OA
ATOM     33  O   UNL     1     113.275 125.968 138.748  0.00  0.00    +0.000 OA
ATOM     34  O   UNL     1     114.836 125.451 138.608  0.00  0.00    +0.000 OA
ATOM     35  O   UNL     1     115.392 124.887 137.161  0.00  0.00    +0.000 OA
ATOM     36  C   UNL     1     113.051 125.664 137.370  0.00  0.00    +0.000 C 
ATOM     37  C   UNL     1     113.554 125.686 138.023  0.00  0.00    +0.000 C 
ATOM     38  C   UNL     1     114.334 125.427 137.954  0.00  0.00    +0.000 C 
ATOM     39  C   UNL     1     114.612 125.146 137.230  0.00  0.00    +0.000 C 
ATOM     40  C   UNL     1     114.110 125.123 136.576  0.00  0.00    +0.000 C 
ATOM     41  C   UNL     1     114.388 124.841 135.852  0.00  0.00    +0.000 C 
ENDBRANCH  31  36
ENDBRANCH  25  31
ENDBRANCH   1  28
TORSDOF 6
ENDMDL
MODEL 7
REMARK VINA RESULT:      -9.5      1.099      2.221
REMARK  Name = 85202062
REMARK  6 active torsions:
REMARK  status: ('A' for Active; 'I' for Inactive)
REMARK    1  A    between atoms: O_1  and  C_14
REMARK    2  A    between atoms: O_1  and  C_17
REMARK    3  A    between atoms: O_4  and  C_19
REMARK    4  A    between atoms: O_4  and  C_26
REMARK    5  A    between atoms: O_10  and  C_28
REMARK    6  A    between atoms: C_34  and  C_36
REMARK                            x       y       z     vdW  Elec       q    Type
REMARK                         _______ _______ _______ _____ _____    ______ ____
ROOT
ATOM      1  O   UNL     1     111.012 129.504 137.869  0.00  0.00    +0.000 OA
ENDROOT
BRANCH   1   5
ATOM      2  O   UNL     1     110.717 127.995 138.466  0.00  0.00    +0.000 OA
ATOM      3  O   UNL     1     113.136 127.020 137.213  0.00  0.00    +0.000 OA
ATOM      4  O   UNL     1     111.073 126.606 138.622  0.00  0.00    +0.000 OA
ATOM      5  C   UNL     1     111.536 128.888 137.708  0.00  0.00    +0.000 A 
ATOM      6  C   UNL     1     111.388 128.134 138.007  0.00  0.00    +0.000 A 
ATOM      7  C   UNL     1     112.207 129.026 137.249  0.00  0.00    +0.000 A 
ATOM      8  C   UNL     1     111.912 127.517 137.846  0.00  0.00    +0.000 A 
ATOM      9  C   UNL     1     112.731 128.410 137.088  0.00  0.00    +0.000 A 
ATOM     10  C   UNL     1     112.584 127.654 137.387  0.00  0.00    +0.000 A 
ATOM     11  C   UNL     1     111.748 126.735 138.163  0.00  0.00    +0.000 A 
ATOM     12  C   UNL     1     112.290 126.088 138.000  0.00  0.00    +0.000 A 
ATOM     13  C   UNL     1     112.989 126.232 137.521  0.00  0.00    +0.000 A 
BRANCH  13  14
ATOM     14  C   UNL     1     113.514 125.618 137.358  0.00  0.00    +0.000 A 
ATOM     15  C   UNL     1     114.201 125.532 137.808  0.00  0.00    +0.000 A 
ATOM     16  C   UNL     1     113.353 125.088 136.747  0.00  0.00    +0.000 A 
ATOM     17  C   UNL     1     114.726 124.917 137.646  0.00  0.00    +0.000 A 
ATOM     18  C   UNL     1     113.879 124.472 136.584  0.00  0.00    +0.000 A 
ATOM     19  C   UNL     1     114.565 124.388 137.034  0.00  0.00    +0.000 A 
ENDBRANCH  13  14
BRANCH   7  20
ATOM     20  O   UNL     1     112.355 129.780 136.950  0.00  0.00    +0.000 OA
ATOM     21  C   UNL     1     112.807 129.872 136.267  0.00  0.00    +0.000 C 
ENDBRANCH   7  20
ENDBRANCH   1   5
BRANCH   1  28
ATOM     22  O   UNL     1     111.742 129.870 139.042  0.00  0.00    +0.000 OA
ATOM     23  O   UNL     1     109.790 131.157 139.855  0.00  0.00    +0.000 OA
ATOM     24  O   UNL     1     111.171 131.094 140.757  0.00  0.00    +0.000 OA
ATOM     25  C   UNL     1     110.401 130.331 138.862  0.00  0.00    +0.000 C 
ATOM     26  C   UNL     1     110.441 130.728 139.584  0.00  0.00    +0.000 C 
ATOM     27  C   UNL     1     111.130 130.697 140.034  0.00  0.00    +0.000 C 
ATOM     28  C   UNL     1     111.052 129.902 138.591  0.00  0.00    +0.000 C 
ATOM     29  C   UNL     1     111.781 130.268 139.763  0.00  0.00    +0.000 C 
ATOM     30  C   UNL     1     112.472 130.236 140.215  0.00  0.00    +0.000 C 
BRANCH  25  31
ATOM     31  O   UNL     1     109.711 130.362 138.411  0.00  0.00    +0.000 OA
BRANCH  31  36
ATOM     32  O   UNL     1     110.132 131.609 137.853  0.00  0.00    +0.000 OA
ATOM     33  O   UNL     1     108.387 130.368 137.427  0.00  0.00    +0.000 OA
ATOM     34  O   UNL     1     108.145 131.618 136.376  0.00  0.00    +0.000 OA
ATOM     35  O   UNL     1     109.228 132.861 136.310  0.00  0.00    +0.000 OA
ATOM     36  C   UNL     1     109.590 130.987 137.886  0.00  0.00    +0.000 C 
ATOM     37  C   UNL     1     108.928 130.991 137.394  0.00  0.00    +0.000 C 
ATOM     38  C   UNL     1     108.808 131.615 136.868  0.00  0.00    +0.000 C 
ATOM     39  C   UNL     1     109.348 132.236 136.836  0.00  0.00    +0.000 C 
ATOM     40  C   UNL     1     110.011 132.234 137.328  0.00  0.00    +0.000 C 
ATOM     41  C   UNL     1     110.552 132.855 137.295  0.00  0.00    +0.000 C 
ENDBRANCH  31  36
ENDBRANCH  25  31
ENDBRANCH   1  28
TORSDOF 6
ENDMDL
