MODEL 1
REMARK VINA RESULT:      -9.1      0.000      0.000
REMARK  Name = 44258383
REMARK  5 active torsions:
REMARK  status: ('A' for Active; 'I' for Inactive)
REMARK    1  A    between atoms: O_2  and  C_15
REMARK    2  A    between atoms: O_2  and  C_17
REMARK    3  A    between atoms: O_7  and  C_21
REMARK    4  A    between atoms: O_9  and  C_29
REMARK    5  A    between atoms: C_24  and  C_26
REMARK                            x       y       z     vdW  Elec       q    Type
REMARK                         _______ _______ _______ _____ _____    ______ ____
ROOT
ATOM      1  O   UNL     1     113.068 127.359 137.853  0.00  0.00    +0.000 OA
ATOM      2  O   UNL     1     113.437 127.538 140.294  0.00  0.00    +0.000 OA
ATOM      3  C   UNL     1     113.019 128.900 139.450  0.00  0.00    +0.000 A 
ATOM      4  C   UNL     1     113.105 128.148 139.044  0.00  0.00    +0.000 A 
ATOM      5  C   UNL     1     112.802 129.601 139.001  0.00  0.00    +0.000 A 
ATOM      6  C   UNL     1     112.982 128.088 138.230  0.00  0.00    +0.000 A 
ATOM      7  C   UNL     1     112.674 129.539 138.154  0.00  0.00    +0.000 A 
ATOM      8  C   UNL     1     113.314 127.479 139.480  0.00  0.00    +0.000 A 
ATOM      9  C   UNL     1     112.765 128.776 137.766  0.00  0.00    +0.000 A 
ATOM     10  C   UNL     1     113.277 126.690 138.289  0.00  0.00    +0.000 A 
ATOM     11  C   UNL     1     113.400 126.751 139.102  0.00  0.00    +0.000 A 
ENDROOT
BRANCH  10  13
ATOM     12  O   UNL     1     113.619 123.777 136.778  0.00  0.00    +0.000 OA
ATOM     13  C   UNL     1     113.362 125.962 137.911  0.00  0.00    +0.000 A 
ATOM     14  C   UNL     1     112.696 125.513 137.723  0.00  0.00    +0.000 A 
ATOM     15  C   UNL     1     114.114 125.682 137.721  0.00  0.00    +0.000 A 
ATOM     16  C   UNL     1     112.782 124.785 137.346  0.00  0.00    +0.000 A 
ATOM     17  C   UNL     1     114.200 124.954 137.343  0.00  0.00    +0.000 A 
ATOM     18  C   UNL     1     113.534 124.506 137.156  0.00  0.00    +0.000 A 
BRANCH  16  19
ATOM     19  O   UNL     1     112.115 124.338 137.158  0.00  0.00    +0.000 OA
ATOM     20  C   UNL     1     111.443 124.706 136.853  0.00  0.00    +0.000 C 
ENDBRANCH  16  19
ENDBRANCH  10  13
BRANCH   7  21
ATOM     21  O   UNL     1     112.465 130.205 137.715  0.00  0.00    +0.000 OA
ATOM     22  C   UNL     1     113.021 130.570 137.228  0.00  0.00    +0.000 C 
ENDBRANCH   7  21
BRANCH   3  23
ATOM     23  O   UNL     1     113.144 128.951 140.263  0.00  0.00    +0.000 OA
BRANCH  23  32
ATOM     24  O   UNL     1     114.326 129.752 140.329  0.00  0.00    +0.000 OA
ATOM     25  O   UNL     1     113.249 131.201 142.022  0.00  0.00    +0.000 OA
ATOM     26  O   UNL     1     114.789 131.519 141.523  0.00  0.00    +0.000 OA
ATOM     27  O   UNL     1     112.426 129.917 141.392  0.00  0.00    +0.000 OA
ATOM     28  C   UNL     1     113.608 130.718 141.458  0.00  0.00    +0.000 C 
ATOM     29  C   UNL     1     114.378 130.877 141.208  0.00  0.00    +0.000 C 
ATOM     30  C   UNL     1     113.197 130.076 141.142  0.00  0.00    +0.000 C 
ATOM     31  C   UNL     1     114.737 130.394 140.643  0.00  0.00    +0.000 C 
ATOM     32  C   UNL     1     113.556 129.593 140.578  0.00  0.00    +0.000 C 
ATOM     33  C   UNL     1     115.507 130.554 140.394  0.00  0.00    +0.000 C 
ENDBRANCH  23  32
ENDBRANCH   3  23
TORSDOF 5
ENDMDL
MODEL 2
REMARK VINA RESULT:      -9.1      2.503      3.340
REMARK  Name = 44258383
REMARK  5 active torsions:
REMARK  status: ('A' for Active; 'I' for Inactive)
REMARK    1  A    between atoms: O_2  and  C_15
REMARK    2  A    between atoms: O_2  and  C_17
REMARK    3  A    between atoms: O_7  and  C_21
REMARK    4  A    between atoms: O_9  and  C_29
REMARK    5  A    between atoms: C_24  and  C_26
REMARK                            x       y       z     vdW  Elec       q    Type
REMARK                         _______ _______ _______ _____ _____    ______ ____
ROOT
ATOM      1  O   UNL     1     113.728 127.312 136.325  0.00  0.00    +0.000 OA
ATOM      2  O   UNL     1     112.353 128.471 138.025  0.00  0.00    +0.000 OA
ATOM      3  C   UNL     1     113.024 129.362 136.800  0.00  0.00    +0.000 A 
ATOM      4  C   UNL     1     113.153 128.514 136.841  0.00  0.00    +0.000 A 
ATOM      5  C   UNL     1     113.377 129.814 136.160  0.00  0.00    +0.000 A 
ATOM      6  C   UNL     1     113.611 128.127 136.274  0.00  0.00    +0.000 A 
ATOM      7  C   UNL     1     113.854 129.412 135.570  0.00  0.00    +0.000 A 
ATOM      8  C   UNL     1     112.812 128.085 137.458  0.00  0.00    +0.000 A 
ATOM      9  C   UNL     1     113.972 128.562 135.628  0.00  0.00    +0.000 A 
ATOM     10  C   UNL     1     113.387 126.883 136.942  0.00  0.00    +0.000 A 
ATOM     11  C   UNL     1     112.928 127.270 137.508  0.00  0.00    +0.000 A 
ENDROOT
BRANCH  10  13
ATOM     12  O   UNL     1     113.854 123.623 137.143  0.00  0.00    +0.000 OA
ATOM     13  C   UNL     1     113.503 126.068 136.992  0.00  0.00    +0.000 A 
ATOM     14  C   UNL     1     112.965 125.551 136.641  0.00  0.00    +0.000 A 
ATOM     15  C   UNL     1     114.159 125.769 137.393  0.00  0.00    +0.000 A 
ATOM     16  C   UNL     1     113.081 124.737 136.692  0.00  0.00    +0.000 A 
ATOM     17  C   UNL     1     114.276 124.954 137.443  0.00  0.00    +0.000 A 
ATOM     18  C   UNL     1     113.738 124.438 137.093  0.00  0.00    +0.000 A 
BRANCH  16  19
ATOM     19  O   UNL     1     112.542 124.221 136.341  0.00  0.00    +0.000 OA
ATOM     20  C   UNL     1     111.734 124.388 136.366  0.00  0.00    +0.000 C 
ENDBRANCH  16  19
ENDBRANCH  10  13
BRANCH   7  21
ATOM     21  O   UNL     1     114.197 129.837 134.951  0.00  0.00    +0.000 OA
ATOM     22  C   UNL     1     114.968 130.118 135.022  0.00  0.00    +0.000 C 
ENDBRANCH   7  21
BRANCH   3  23
ATOM     23  O   UNL     1     112.564 129.741 137.371  0.00  0.00    +0.000 OA
BRANCH  23  32
ATOM     24  O   UNL     1     111.420 130.065 136.579  0.00  0.00    +0.000 OA
ATOM     25  O   UNL     1     111.367 132.327 137.582  0.00  0.00    +0.000 OA
ATOM     26  O   UNL     1     110.241 131.898 136.455  0.00  0.00    +0.000 OA
ATOM     27  O   UNL     1     112.529 131.249 138.040  0.00  0.00    +0.000 OA
ATOM     28  C   UNL     1     111.385 131.573 137.247  0.00  0.00    +0.000 C 
ATOM     29  C   UNL     1     110.822 131.358 136.684  0.00  0.00    +0.000 C 
ATOM     30  C   UNL     1     111.965 131.034 137.476  0.00  0.00    +0.000 C 
ATOM     31  C   UNL     1     110.840 130.604 136.350  0.00  0.00    +0.000 C 
ATOM     32  C   UNL     1     111.983 130.280 137.142  0.00  0.00    +0.000 C 
ATOM     33  C   UNL     1     110.276 130.390 135.786  0.00  0.00    +0.000 C 
ENDBRANCH  23  32
ENDBRANCH   3  23
TORSDOF 5
ENDMDL
MODEL 3
REMARK VINA RESULT:      -8.9      0.884      5.378
REMARK  Name = 44258383
REMARK  5 active torsions:
REMARK  status: ('A' for Active; 'I' for Inactive)
REMARK    1  A    between atoms: O_2  and  C_15
REMARK    2  A    between atoms: O_2  and  C_17
REMARK    3  A    between atoms: O_7  and  C_21
REMARK    4  A    between atoms: O_9  and  C_29
REMARK    5  A    between atoms: C_24  and  C_26
REMARK                            x       y       z     vdW  Elec       q    Type
REMARK                         _______ _______ _______ _____ _____    ______ ____
ROOT
ATOM      1  O   UNL     1     113.339 129.292 138.945  0.00  0.00    +0.000 OA
ATOM      2  O   UNL     1     113.250 126.964 139.780  0.00  0.00    +0.000 OA
ATOM      3  C   UNL     1     112.689 127.285 138.256  0.00  0.00    +0.000 A 
ATOM      4  C   UNL     1     113.004 127.918 138.744  0.00  0.00    +0.000 A 
ATOM      5  C   UNL     1     112.400 127.464 137.465  0.00  0.00    +0.000 A 
ATOM      6  C   UNL     1     113.034 128.694 138.466  0.00  0.00    +0.000 A 
ATOM      7  C   UNL     1     112.431 128.272 137.176  0.00  0.00    +0.000 A 
ATOM      8  C   UNL     1     113.279 127.740 139.502  0.00  0.00    +0.000 A 
ATOM      9  C   UNL     1     112.750 128.891 137.680  0.00  0.00    +0.000 A 
ATOM     10  C   UNL     1     113.614 129.114 139.703  0.00  0.00    +0.000 A 
ATOM     11  C   UNL     1     113.584 128.338 139.981  0.00  0.00    +0.000 A 
ENDROOT
BRANCH  10  13
ATOM     12  O   UNL     1     114.835 131.508 141.619  0.00  0.00    +0.000 OA
ATOM     13  C   UNL     1     113.919 129.713 140.182  0.00  0.00    +0.000 A 
ATOM     14  C   UNL     1     113.429 130.102 140.719  0.00  0.00    +0.000 A 
ATOM     15  C   UNL     1     114.715 129.922 140.124  0.00  0.00    +0.000 A 
ATOM     16  C   UNL     1     113.734 130.700 141.198  0.00  0.00    +0.000 A 
ATOM     17  C   UNL     1     115.020 130.521 140.603  0.00  0.00    +0.000 A 
ATOM     18  C   UNL     1     114.530 130.909 141.139  0.00  0.00    +0.000 A 
BRANCH  16  19
ATOM     19  O   UNL     1     113.243 131.089 141.734  0.00  0.00    +0.000 OA
ATOM     20  C   UNL     1     112.660 130.668 142.140  0.00  0.00    +0.000 C 
ENDBRANCH  16  19
ENDBRANCH  10  13
BRANCH   7  21
ATOM     21  O   UNL     1     112.156 128.453 136.419  0.00  0.00    +0.000 OA
ATOM     22  C   UNL     1     112.692 128.631 135.818  0.00  0.00    +0.000 C 
ENDBRANCH   7  21
BRANCH   3  23
ATOM     23  O   UNL     1     112.663 126.512 138.542  0.00  0.00    +0.000 OA
BRANCH  23  32
ATOM     24  O   UNL     1     113.622 125.850 137.715  0.00  0.00    +0.000 OA
ATOM     25  O   UNL     1     111.978 124.061 137.241  0.00  0.00    +0.000 OA
ATOM     26  O   UNL     1     113.485 123.995 136.572  0.00  0.00    +0.000 OA
ATOM     27  O   UNL     1     111.567 125.319 138.226  0.00  0.00    +0.000 OA
ATOM     28  C   UNL     1     112.526 124.657 137.399  0.00  0.00    +0.000 C 
ATOM     29  C   UNL     1     113.279 124.625 137.065  0.00  0.00    +0.000 C 
ATOM     30  C   UNL     1     112.321 125.287 137.891  0.00  0.00    +0.000 C 
ATOM     31  C   UNL     1     113.827 125.221 137.222  0.00  0.00    +0.000 C 
ATOM     32  C   UNL     1     112.869 125.883 138.049  0.00  0.00    +0.000 C 
ATOM     33  C   UNL     1     114.580 125.188 136.887  0.00  0.00    +0.000 C 
ENDBRANCH  23  32
ENDBRANCH   3  23
TORSDOF 5
ENDMDL
MODEL 4
REMARK VINA RESULT:      -8.7      7.585      9.163
REMARK  Name = 44258383
REMARK  5 active torsions:
REMARK  status: ('A' for Active; 'I' for Inactive)
REMARK    1  A    between atoms: O_2  and  C_15
REMARK    2  A    between atoms: O_2  and  C_17
REMARK    3  A    between atoms: O_7  and  C_21
REMARK    4  A    between atoms: O_9  and  C_29
REMARK    5  A    between atoms: C_24  and  C_26
REMARK                            x       y       z     vdW  Elec       q    Type
REMARK                         _______ _______ _______ _____ _____    ______ ____
ROOT
ATOM      1  O   UNL     1     105.067 123.731 139.416  0.00  0.00    +0.000 OA
ATOM      2  O   UNL     1     104.965 126.092 140.152  0.00  0.00    +0.000 OA
ATOM      3  C   UNL     1     106.148 125.115 140.775  0.00  0.00    +0.000 A 
ATOM      4  C   UNL     1     105.583 124.804 140.207  0.00  0.00    +0.000 A 
ATOM      5  C   UNL     1     106.758 124.597 141.091  0.00  0.00    +0.000 A 
ATOM      6  C   UNL     1     105.616 124.017 139.962  0.00  0.00    +0.000 A 
ATOM      7  C   UNL     1     106.793 123.778 140.836  0.00  0.00    +0.000 A 
ATOM      8  C   UNL     1     104.999 125.305 139.907  0.00  0.00    +0.000 A 
ATOM      9  C   UNL     1     106.218 123.486 140.267  0.00  0.00    +0.000 A 
ATOM     10  C   UNL     1     104.484 124.232 139.116  0.00  0.00    +0.000 A 
ATOM     11  C   UNL     1     104.451 125.019 139.362  0.00  0.00    +0.000 A 
ENDROOT
BRANCH  10  13
ATOM     12  O   UNL     1     102.289 123.088 136.934  0.00  0.00    +0.000 OA
ATOM     13  C   UNL     1     103.936 123.947 138.571  0.00  0.00    +0.000 A 
ATOM     14  C   UNL     1     103.149 123.840 138.794  0.00  0.00    +0.000 A 
ATOM     15  C   UNL     1     104.173 123.766 137.802  0.00  0.00    +0.000 A 
ATOM     16  C   UNL     1     102.600 123.554 138.248  0.00  0.00    +0.000 A 
ATOM     17  C   UNL     1     103.625 123.481 137.256  0.00  0.00    +0.000 A 
ATOM     18  C   UNL     1     102.839 123.375 137.479  0.00  0.00    +0.000 A 
BRANCH  16  19
ATOM     19  O   UNL     1     101.813 123.449 138.472  0.00  0.00    +0.000 OA
ATOM     20  C   UNL     1     101.631 122.999 139.140  0.00  0.00    +0.000 C 
ENDBRANCH  16  19
ENDBRANCH  10  13
BRANCH   7  21
ATOM     21  O   UNL     1     107.375 123.274 141.134  0.00  0.00    +0.000 OA
ATOM     22  C   UNL     1     108.163 123.379 140.916  0.00  0.00    +0.000 C 
ENDBRANCH   7  21
BRANCH   3  23
ATOM     23  O   UNL     1     106.106 125.903 141.014  0.00  0.00    +0.000 OA
BRANCH  23  32
ATOM     24  O   UNL     1     105.929 125.778 142.427  0.00  0.00    +0.000 OA
ATOM     25  O   UNL     1     107.753 127.408 142.800  0.00  0.00    +0.000 OA
ATOM     26  O   UNL     1     106.968 126.739 144.088  0.00  0.00    +0.000 OA
ATOM     27  O   UNL     1     107.323 126.990 141.263  0.00  0.00    +0.000 OA
ATOM     28  C   UNL     1     107.145 126.865 142.676  0.00  0.00    +0.000 C 
ATOM     29  C   UNL     1     106.752 126.530 143.319  0.00  0.00    +0.000 C 
ATOM     30  C   UNL     1     106.930 126.655 141.908  0.00  0.00    +0.000 C 
ATOM     31  C   UNL     1     106.144 125.986 143.195  0.00  0.00    +0.000 C 
ATOM     32  C   UNL     1     106.321 126.112 141.783  0.00  0.00    +0.000 C 
ATOM     33  C   UNL     1     105.752 125.652 143.839  0.00  0.00    +0.000 C 
ENDBRANCH  23  32
ENDBRANCH   3  23
TORSDOF 5
ENDMDL
MODEL 5
REMARK VINA RESULT:      -8.7      3.011      4.459
REMARK  Name = 44258383
REMARK  5 active torsions:
REMARK  status: ('A' for Active; 'I' for Inactive)
REMARK    1  A    between atoms: O_2  and  C_15
REMARK    2  A    between atoms: O_2  and  C_17
REMARK    3  A    between atoms: O_7  and  C_21
REMARK    4  A    between atoms: O_9  and  C_29
REMARK    5  A    between atoms: C_24  and  C_26
REMARK                            x       y       z     vdW  Elec       q    Type
REMARK                         _______ _______ _______ _____ _____    ______ ____
ROOT
ATOM      1  O   UNL     1     113.339 127.823 136.747  0.00  0.00    +0.000 OA
ATOM      2  O   UNL     1     111.055 127.392 135.897  0.00  0.00    +0.000 OA
ATOM      3  C   UNL     1     111.592 128.956 135.978  0.00  0.00    +0.000 A 
ATOM      4  C   UNL     1     112.100 128.309 136.227  0.00  0.00    +0.000 A 
ATOM      5  C   UNL     1     111.882 129.764 136.025  0.00  0.00    +0.000 A 
ATOM      6  C   UNL     1     112.861 128.452 136.511  0.00  0.00    +0.000 A 
ATOM      7  C   UNL     1     112.675 129.914 136.320  0.00  0.00    +0.000 A 
ATOM      8  C   UNL     1     111.816 127.536 136.180  0.00  0.00    +0.000 A 
ATOM      9  C   UNL     1     113.168 129.253 136.565  0.00  0.00    +0.000 A 
ATOM     10  C   UNL     1     113.055 127.049 136.700  0.00  0.00    +0.000 A 
ATOM     11  C   UNL     1     112.293 126.906 136.416  0.00  0.00    +0.000 A 
ENDROOT
BRANCH  10  13
ATOM     12  O   UNL     1     114.965 124.529 137.646  0.00  0.00    +0.000 OA
ATOM     13  C   UNL     1     113.532 126.419 136.936  0.00  0.00    +0.000 A 
ATOM     14  C   UNL     1     114.043 126.063 136.396  0.00  0.00    +0.000 A 
ATOM     15  C   UNL     1     113.499 126.145 137.714  0.00  0.00    +0.000 A 
ATOM     16  C   UNL     1     114.521 125.433 136.632  0.00  0.00    +0.000 A 
ATOM     17  C   UNL     1     113.976 125.515 137.950  0.00  0.00    +0.000 A 
ATOM     18  C   UNL     1     114.487 125.160 137.410  0.00  0.00    +0.000 A 
BRANCH  16  19
ATOM     19  O   UNL     1     115.031 125.078 136.091  0.00  0.00    +0.000 OA
ATOM     20  C   UNL     1     115.473 125.545 135.572  0.00  0.00    +0.000 C 
ENDBRANCH  16  19
ENDBRANCH  10  13
BRANCH   7  21
ATOM     21  O   UNL     1     112.962 130.686 136.369  0.00  0.00    +0.000 OA
ATOM     22  C   UNL     1     112.987 131.071 137.097  0.00  0.00    +0.000 C 
ENDBRANCH   7  21
BRANCH   3  23
ATOM     23  O   UNL     1     110.832 128.803 135.696  0.00  0.00    +0.000 OA
BRANCH  23  32
ATOM     24  O   UNL     1     110.055 129.331 136.773  0.00  0.00    +0.000 OA
ATOM     25  O   UNL     1     108.561 130.450 135.147  0.00  0.00    +0.000 OA
ATOM     26  O   UNL     1     108.283 130.605 136.766  0.00  0.00    +0.000 OA
ATOM     27  O   UNL     1     109.836 129.549 134.612  0.00  0.00    +0.000 OA
ATOM     28  C   UNL     1     109.059 130.077 135.689  0.00  0.00    +0.000 C 
ATOM     29  C   UNL     1     108.921 130.154 136.499  0.00  0.00    +0.000 C 
ATOM     30  C   UNL     1     109.697 129.626 135.422  0.00  0.00    +0.000 C 
ATOM     31  C   UNL     1     109.419 129.781 137.040  0.00  0.00    +0.000 C 
ATOM     32  C   UNL     1     110.195 129.254 135.964  0.00  0.00    +0.000 C 
ATOM     33  C   UNL     1     109.279 129.859 137.850  0.00  0.00    +0.000 C 
ENDBRANCH  23  32
ENDBRANCH   3  23
TORSDOF 5
ENDMDL
MODEL 6
REMARK VINA RESULT:      -8.6      9.006     10.423
REMARK  Name = 44258383
REMARK  5 active torsions:
REMARK  status: ('A' for Active; 'I' for Inactive)
REMARK    1  A    between atoms: O_2  and  C_15
REMARK    2  A    between atoms: O_2  and  C_17
REMARK    3  A    between atoms: O_7  and  C_21
REMARK    4  A    between atoms: O_9  and  C_29
REMARK    5  A    between atoms: C_24  and  C_26
REMARK                            x       y       z     vdW  Elec       q    Type
REMARK                         _______ _______ _______ _____ _____    ______ ____
ROOT
ATOM      1  O   UNL     1     106.610 126.538 146.970  0.00  0.00    +0.000 OA
ATOM      2  O   UNL     1     106.465 125.380 144.787  0.00  0.00    +0.000 OA
ATOM      3  C   UNL     1     106.096 126.993 144.859  0.00  0.00    +0.000 A 
ATOM      4  C   UNL     1     106.333 126.570 145.569  0.00  0.00    +0.000 A 
ATOM      5  C   UNL     1     105.907 127.831 144.909  0.00  0.00    +0.000 A 
ATOM      6  C   UNL     1     106.381 126.956 146.296  0.00  0.00    +0.000 A 
ATOM      7  C   UNL     1     105.958 128.232 145.667  0.00  0.00    +0.000 A 
ATOM      8  C   UNL     1     106.513 125.767 145.515  0.00  0.00    +0.000 A 
ATOM      9  C   UNL     1     106.196 127.791 146.365  0.00  0.00    +0.000 A 
ATOM     10  C   UNL     1     106.790 125.735 146.916  0.00  0.00    +0.000 A 
ATOM     11  C   UNL     1     106.742 125.349 146.189  0.00  0.00    +0.000 A 
ENDROOT
BRANCH  10  13
ATOM     12  O   UNL     1     107.705 124.065 149.612  0.00  0.00    +0.000 OA
ATOM     13  C   UNL     1     107.019 125.317 147.590  0.00  0.00    +0.000 A 
ATOM     14  C   UNL     1     106.447 125.000 148.093  0.00  0.00    +0.000 A 
ATOM     15  C   UNL     1     107.820 125.216 147.761  0.00  0.00    +0.000 A 
ATOM     16  C   UNL     1     106.676 124.583 148.767  0.00  0.00    +0.000 A 
ATOM     17  C   UNL     1     108.048 124.799 148.435  0.00  0.00    +0.000 A 
ATOM     18  C   UNL     1     107.477 124.483 148.938  0.00  0.00    +0.000 A 
BRANCH  16  19
ATOM     19  O   UNL     1     106.104 124.266 149.269  0.00  0.00    +0.000 OA
ATOM     20  C   UNL     1     105.435 124.710 149.465  0.00  0.00    +0.000 C 
ENDBRANCH  16  19
ENDBRANCH  10  13
BRANCH   7  21
ATOM     21  O   UNL     1     105.778 129.036 145.724  0.00  0.00    +0.000 OA
ATOM     22  C   UNL     1     105.028 129.274 145.968  0.00  0.00    +0.000 C 
ENDBRANCH   7  21
BRANCH   3  23
ATOM     23  O   UNL     1     106.051 126.599 144.136  0.00  0.00    +0.000 OA
BRANCH  23  32
ATOM     24  O   UNL     1     107.134 127.212 143.433  0.00  0.00    +0.000 OA
ATOM     25  O   UNL     1     105.683 127.499 141.449  0.00  0.00    +0.000 OA
ATOM     26  O   UNL     1     107.250 128.017 141.408  0.00  0.00    +0.000 OA
ATOM     27  O   UNL     1     105.084 126.791 142.813  0.00  0.00    +0.000 OA
ATOM     28  C   UNL     1     106.167 127.404 142.110  0.00  0.00    +0.000 C 
ATOM     29  C   UNL     1     106.950 127.662 142.090  0.00  0.00    +0.000 C 
ATOM     30  C   UNL     1     105.868 127.049 142.792  0.00  0.00    +0.000 C 
ATOM     31  C   UNL     1     107.433 127.567 142.752  0.00  0.00    +0.000 C 
ATOM     32  C   UNL     1     106.351 126.954 143.454  0.00  0.00    +0.000 C 
ATOM     33  C   UNL     1     108.216 127.826 142.731  0.00  0.00    +0.000 C 
ENDBRANCH  23  32
ENDBRANCH   3  23
TORSDOF 5
ENDMDL
MODEL 7
REMARK VINA RESULT:      -8.5      3.276      5.539
REMARK  Name = 44258383
REMARK  5 active torsions:
REMARK  status: ('A' for Active; 'I' for Inactive)
REMARK    1  A    between atoms: O_2  and  C_15
REMARK    2  A    between atoms: O_2  and  C_17
REMARK    3  A    between atoms: O_7  and  C_21
REMARK    4  A    between atoms: O_9  and  C_29
REMARK    5  A    between atoms: C_24  and  C_26
REMARK                            x       y       z     vdW  Elec       q    Type
REMARK                         _______ _______ _______ _____ _____    ______ ____
ROOT
ATOM      1  O   UNL     1     112.871 128.826 135.317  0.00  0.00    +0.000 OA
ATOM      2  O   UNL     1     113.716 126.905 136.629  0.00  0.00    +0.000 OA
ATOM      3  C   UNL     1     112.142 126.887 136.114  0.00  0.00    +0.000 A 
ATOM      4  C   UNL     1     112.653 127.553 135.927  0.00  0.00    +0.000 A 
ATOM      5  C   UNL     1     111.327 126.889 135.841  0.00  0.00    +0.000 A 
ATOM      6  C   UNL     1     112.371 128.193 135.490  0.00  0.00    +0.000 A 
ATOM      7  C   UNL     1     111.034 127.556 135.385  0.00  0.00    +0.000 A 
ATOM      8  C   UNL     1     113.434 127.545 136.192  0.00  0.00    +0.000 A 
ATOM      9  C   UNL     1     111.560 128.212 135.209  0.00  0.00    +0.000 A 
ATOM     10  C   UNL     1     113.653 128.819 135.581  0.00  0.00    +0.000 A 
ATOM     11  C   UNL     1     113.934 128.178 136.019  0.00  0.00    +0.000 A 
ENDROOT
BRANCH  10  13
ATOM     12  O   UNL     1     115.653 131.351 134.890  0.00  0.00    +0.000 OA
ATOM     13  C   UNL     1     114.153 129.452 135.409  0.00  0.00    +0.000 A 
ATOM     14  C   UNL     1     114.116 130.142 135.859  0.00  0.00    +0.000 A 
ATOM     15  C   UNL     1     114.690 129.395 134.785  0.00  0.00    +0.000 A 
ATOM     16  C   UNL     1     114.616 130.775 135.686  0.00  0.00    +0.000 A 
ATOM     17  C   UNL     1     115.190 130.028 134.612  0.00  0.00    +0.000 A 
ATOM     18  C   UNL     1     115.153 130.717 135.062  0.00  0.00    +0.000 A 
BRANCH  16  19
ATOM     19  O   UNL     1     114.579 131.464 136.137  0.00  0.00    +0.000 OA
ATOM     20  C   UNL     1     113.866 131.690 136.487  0.00  0.00    +0.000 C 
ENDBRANCH  16  19
ENDBRANCH  10  13
BRANCH   7  21
ATOM     21  O   UNL     1     110.253 127.566 135.119  0.00  0.00    +0.000 OA
ATOM     22  C   UNL     1     109.701 128.060 135.480  0.00  0.00    +0.000 C 
ENDBRANCH   7  21
BRANCH   3  23
ATOM     23  O   UNL     1     112.433 126.251 136.552  0.00  0.00    +0.000 OA
BRANCH  23  32
ATOM     24  O   UNL     1     111.745 126.471 137.785  0.00  0.00    +0.000 OA
ATOM     25  O   UNL     1     111.212 124.058 137.919  0.00  0.00    +0.000 OA
ATOM     26  O   UNL     1     110.703 125.083 139.108  0.00  0.00    +0.000 OA
ATOM     27  O   UNL     1     112.077 124.642 136.641  0.00  0.00    +0.000 OA
ATOM     28  C   UNL     1     111.390 124.862 137.874  0.00  0.00    +0.000 C 
ATOM     29  C   UNL     1     111.135 125.375 138.468  0.00  0.00    +0.000 C 
ATOM     30  C   UNL     1     111.822 125.155 137.236  0.00  0.00    +0.000 C 
ATOM     31  C   UNL     1     111.313 126.180 138.423  0.00  0.00    +0.000 C 
ATOM     32  C   UNL     1     112.000 125.959 137.191  0.00  0.00    +0.000 C 
ATOM     33  C   UNL     1     111.058 126.692 139.018  0.00  0.00    +0.000 C 
ENDBRANCH  23  32
ENDBRANCH   3  23
TORSDOF 5
ENDMDL
MODEL 8
REMARK VINA RESULT:      -8.5      3.673      6.622
REMARK  Name = 44258383
REMARK  5 active torsions:
REMARK  status: ('A' for Active; 'I' for Inactive)
REMARK    1  A    between atoms: O_2  and  C_15
REMARK    2  A    between atoms: O_2  and  C_17
REMARK    3  A    between atoms: O_7  and  C_21
REMARK    4  A    between atoms: O_9  and  C_29
REMARK    5  A    between atoms: C_24  and  C_26
REMARK                            x       y       z     vdW  Elec       q    Type
REMARK                         _______ _______ _______ _____ _____    ______ ____
ROOT
ATOM      1  O   UNL     1     110.576 129.668 135.537  0.00  0.00    +0.000 OA
ATOM      2  O   UNL     1     109.387 127.497 135.516  0.00  0.00    +0.000 OA
ATOM      3  C   UNL     1     111.037 127.501 135.660  0.00  0.00    +0.000 A 
ATOM      4  C   UNL     1     110.606 128.241 135.594  0.00  0.00    +0.000 A 
ATOM      5  C   UNL     1     111.894 127.515 135.735  0.00  0.00    +0.000 A 
ATOM      6  C   UNL     1     111.002 128.965 135.601  0.00  0.00    +0.000 A 
ATOM      7  C   UNL     1     112.306 128.268 135.742  0.00  0.00    +0.000 A 
ATOM      8  C   UNL     1     109.784 128.221 135.523  0.00  0.00    +0.000 A 
ATOM      9  C   UNL     1     111.857 128.998 135.675  0.00  0.00    +0.000 A 
ATOM     10  C   UNL     1     109.754 129.648 135.465  0.00  0.00    +0.000 A 
ATOM     11  C   UNL     1     109.358 128.924 135.458  0.00  0.00    +0.000 A 
ENDROOT
BRANCH  10  13
ATOM     12  O   UNL     1     108.051 132.464 135.207  0.00  0.00    +0.000 OA
ATOM     13  C   UNL     1     109.329 130.352 135.401  0.00  0.00    +0.000 A 
ATOM     14  C   UNL     1     108.944 130.664 136.060  0.00  0.00    +0.000 A 
ATOM     15  C   UNL     1     109.287 130.745 134.677  0.00  0.00    +0.000 A 
ATOM     16  C   UNL     1     108.518 131.367 135.996  0.00  0.00    +0.000 A 
ATOM     17  C   UNL     1     108.862 131.448 134.612  0.00  0.00    +0.000 A 
ATOM     18  C   UNL     1     108.478 131.759 135.271  0.00  0.00    +0.000 A 
BRANCH  16  19
ATOM     19  O   UNL     1     108.134 131.678 136.656  0.00  0.00    +0.000 OA
ATOM     20  C   UNL     1     108.541 131.763 137.369  0.00  0.00    +0.000 C 
ENDBRANCH  16  19
ENDBRANCH  10  13
BRANCH   7  21
ATOM     21  O   UNL     1     113.128 128.292 135.813  0.00  0.00    +0.000 OA
ATOM     22  C   UNL     1     113.474 128.563 136.510  0.00  0.00    +0.000 C 
ENDBRANCH   7  21
BRANCH   3  23
ATOM     23  O   UNL     1     110.633 126.782 135.652  0.00  0.00    +0.000 OA
BRANCH  23  32
ATOM     24  O   UNL     1     110.855 126.323 136.987  0.00  0.00    +0.000 OA
ATOM     25  O   UNL     1     111.489 124.095 136.117  0.00  0.00    +0.000 OA
ATOM     26  O   UNL     1     111.500 124.379 137.742  0.00  0.00    +0.000 OA
ATOM     27  O   UNL     1     111.055 125.296 135.072  0.00  0.00    +0.000 OA
ATOM     28  C   UNL     1     111.277 124.837 136.407  0.00  0.00    +0.000 C 
ATOM     29  C   UNL     1     111.283 124.980 137.219  0.00  0.00    +0.000 C 
ATOM     30  C   UNL     1     111.061 125.438 135.885  0.00  0.00    +0.000 C 
ATOM     31  C   UNL     1     111.072 125.723 137.510  0.00  0.00    +0.000 C 
ATOM     32  C   UNL     1     110.849 126.181 136.175  0.00  0.00    +0.000 C 
ATOM     33  C   UNL     1     111.077 125.865 138.322  0.00  0.00    +0.000 C 
ENDBRANCH  23  32
ENDBRANCH   3  23
TORSDOF 5
ENDMDL
MODEL 9
REMARK VINA RESULT:      -8.4      2.510      4.310
REMARK  Name = 44258383
REMARK  5 active torsions:
REMARK  status: ('A' for Active; 'I' for Inactive)
REMARK    1  A    between atoms: O_2  and  C_15
REMARK    2  A    between atoms: O_2  and  C_17
REMARK    3  A    between atoms: O_7  and  C_21
REMARK    4  A    between atoms: O_9  and  C_29
REMARK    5  A    between atoms: C_24  and  C_26
REMARK                            x       y       z     vdW  Elec       q    Type
REMARK                         _______ _______ _______ _____ _____    ______ ____
ROOT
ATOM      1  O   UNL     1     112.414 126.888 137.940  0.00  0.00    +0.000 OA
ATOM      2  O   UNL     1     112.167 128.167 135.835  0.00  0.00    +0.000 OA
ATOM      3  C   UNL     1     111.371 128.697 137.188  0.00  0.00    +0.000 A 
ATOM      4  C   UNL     1     111.859 127.991 137.220  0.00  0.00    +0.000 A 
ATOM      5  C   UNL     1     110.963 128.963 137.896  0.00  0.00    +0.000 A 
ATOM      6  C   UNL     1     111.942 127.564 137.922  0.00  0.00    +0.000 A 
ATOM      7  C   UNL     1     111.049 128.519 138.627  0.00  0.00    +0.000 A 
ATOM      8  C   UNL     1     112.249 127.740 136.537  0.00  0.00    +0.000 A 
ATOM      9  C   UNL     1     111.542 127.814 138.639  0.00  0.00    +0.000 A 
ATOM     10  C   UNL     1     112.803 126.637 137.257  0.00  0.00    +0.000 A 
ATOM     11  C   UNL     1     112.720 127.064 136.555  0.00  0.00    +0.000 A 
ENDROOT
BRANCH  10  13
ATOM     12  O   UNL     1     114.690 123.931 137.330  0.00  0.00    +0.000 OA
ATOM     13  C   UNL     1     113.275 125.961 137.275  0.00  0.00    +0.000 A 
ATOM     14  C   UNL     1     112.968 125.236 137.027  0.00  0.00    +0.000 A 
ATOM     15  C   UNL     1     114.054 126.008 137.541  0.00  0.00    +0.000 A 
ATOM     16  C   UNL     1     113.439 124.560 137.045  0.00  0.00    +0.000 A 
ATOM     17  C   UNL     1     114.526 125.332 137.560  0.00  0.00    +0.000 A 
ATOM     18  C   UNL     1     114.219 124.608 137.312  0.00  0.00    +0.000 A 
BRANCH  16  19
ATOM     19  O   UNL     1     113.131 123.837 136.797  0.00  0.00    +0.000 OA
ATOM     20  C   UNL     1     112.330 123.671 136.903  0.00  0.00    +0.000 C 
ENDBRANCH  16  19
ENDBRANCH  10  13
BRANCH   7  21
ATOM     21  O   UNL     1     110.661 128.766 139.312  0.00  0.00    +0.000 OA
ATOM     22  C   UNL     1     111.048 129.253 139.852  0.00  0.00    +0.000 C 
ENDBRANCH   7  21
BRANCH   3  23
ATOM     23  O   UNL     1     111.295 129.117 136.482  0.00  0.00    +0.000 OA
BRANCH  23  32
ATOM     24  O   UNL     1     109.944 128.806 136.134  0.00  0.00    +0.000 OA
ATOM     25  O   UNL     1     109.522 131.194 135.638  0.00  0.00    +0.000 OA
ATOM     26  O   UNL     1     108.312 130.087 135.456  0.00  0.00    +0.000 OA
ATOM     27  O   UNL     1     111.014 130.709 136.151  0.00  0.00    +0.000 OA
ATOM     28  C   UNL     1     109.663 130.398 135.804  0.00  0.00    +0.000 C 
ATOM     29  C   UNL     1     109.058 129.845 135.713  0.00  0.00    +0.000 C 
ATOM     30  C   UNL     1     110.408 130.155 136.060  0.00  0.00    +0.000 C 
ATOM     31  C   UNL     1     109.199 129.049 135.878  0.00  0.00    +0.000 C 
ATOM     32  C   UNL     1     110.549 129.359 136.225  0.00  0.00    +0.000 C 
ATOM     33  C   UNL     1     108.593 128.496 135.786  0.00  0.00    +0.000 C 
ENDBRANCH  23  32
ENDBRANCH   3  23
TORSDOF 5
ENDMDL
MODEL 10
REMARK VINA RESULT:      -8.4      2.665      4.559
REMARK  Name = 44258383
REMARK  5 active torsions:
REMARK  status: ('A' for Active; 'I' for Inactive)
REMARK    1  A    between atoms: O_2  and  C_15
REMARK    2  A    between atoms: O_2  and  C_17
REMARK    3  A    between atoms: O_7  and  C_21
REMARK    4  A    between atoms: O_9  and  C_29
REMARK    5  A    between atoms: C_24  and  C_26
REMARK                            x       y       z     vdW  Elec       q    Type
REMARK                         _______ _______ _______ _____ _____    ______ ____
ROOT
ATOM      1  O   UNL     1     111.469 130.575 136.413  0.00  0.00    +0.000 OA
ATOM      2  O   UNL     1     111.674 131.087 138.826  0.00  0.00    +0.000 OA
ATOM      3  C   UNL     1     113.012 130.553 138.008  0.00  0.00    +0.000 A 
ATOM      4  C   UNL     1     112.263 130.649 137.599  0.00  0.00    +0.000 A 
ATOM      5  C   UNL     1     113.700 130.276 137.573  0.00  0.00    +0.000 A 
ATOM      6  C   UNL     1     112.193 130.479 136.795  0.00  0.00    +0.000 A 
ATOM      7  C   UNL     1     113.628 130.098 136.735  0.00  0.00    +0.000 A 
ATOM      8  C   UNL     1     111.606 130.916 138.022  0.00  0.00    +0.000 A 
ATOM      9  C   UNL     1     112.869 130.201 136.344  0.00  0.00    +0.000 A 
ATOM     10  C   UNL     1     110.812 130.842 136.836  0.00  0.00    +0.000 A 
ATOM     11  C   UNL     1     110.881 131.012 137.641  0.00  0.00    +0.000 A 
ENDROOT
BRANCH  10  13
ATOM     12  O   UNL     1     107.911 131.227 135.310  0.00  0.00    +0.000 OA
ATOM     13  C   UNL     1     110.087 130.938 136.455  0.00  0.00    +0.000 A 
ATOM     14  C   UNL     1     109.599 130.286 136.324  0.00  0.00    +0.000 A 
ATOM     15  C   UNL     1     109.849 131.687 136.204  0.00  0.00    +0.000 A 
ATOM     16  C   UNL     1     108.874 130.382 135.943  0.00  0.00    +0.000 A 
ATOM     17  C   UNL     1     109.124 131.783 135.823  0.00  0.00    +0.000 A 
ATOM     18  C   UNL     1     108.637 131.131 135.692  0.00  0.00    +0.000 A 
BRANCH  16  19
ATOM     19  O   UNL     1     108.388 129.729 135.812  0.00  0.00    +0.000 OA
ATOM     20  C   UNL     1     108.705 128.967 135.829  0.00  0.00    +0.000 C 
ENDBRANCH  16  19
ENDBRANCH  10  13
BRANCH   7  21
ATOM     21  O   UNL     1     114.283 129.831 136.309  0.00  0.00    +0.000 OA
ATOM     22  C   UNL     1     114.761 130.370 135.909  0.00  0.00    +0.000 C 
ENDBRANCH   7  21
BRANCH   3  23
ATOM     23  O   UNL     1     113.071 130.726 138.813  0.00  0.00    +0.000 OA
BRANCH  23  32
ATOM     24  O   UNL     1     113.173 129.412 139.365  0.00  0.00    +0.000 OA
ATOM     25  O   UNL     1     115.072 130.150 140.770  0.00  0.00    +0.000 OA
ATOM     26  O   UNL     1     114.541 128.590 140.854  0.00  0.00    +0.000 OA
ATOM     27  O   UNL     1     114.337 131.218 139.750  0.00  0.00    +0.000 OA
ATOM     28  C   UNL     1     114.439 129.904 140.302  0.00  0.00    +0.000 C 
ATOM     29  C   UNL     1     114.173 129.124 140.343  0.00  0.00    +0.000 C 
ATOM     30  C   UNL     1     114.072 130.437 139.791  0.00  0.00    +0.000 C 
ATOM     31  C   UNL     1     113.540 128.878 139.875  0.00  0.00    +0.000 C 
ATOM     32  C   UNL     1     113.439 130.191 139.323  0.00  0.00    +0.000 C 
ATOM     33  C   UNL     1     113.275 128.098 139.917  0.00  0.00    +0.000 C 
ENDBRANCH  23  32
ENDBRANCH   3  23
TORSDOF 5
ENDMDL
