MODEL 1
REMARK VINA RESULT:      -9.0      0.000      0.000
REMARK  Name = 120742
REMARK  5 active torsions:
REMARK  status: ('A' for Active; 'I' for Inactive)
REMARK    1  A    between atoms: O_2  and  C_17
REMARK    2  A    between atoms: O_2  and  C_19
REMARK    3  A    between atoms: O_8  and  C_20
REMARK    4  A    between atoms: C_16  and  C_18
REMARK    5  A    between atoms: C_26  and  C_28
REMARK                            x       y       z     vdW  Elec       q    Type
REMARK                         _______ _______ _______ _____ _____    ______ ____
ROOT
ATOM      1  O   UNL     1     110.769 127.278 136.307  0.00  0.00    +0.000 OA
ATOM      2  O   UNL     1     111.024 124.436 135.819  0.00  0.00    +0.000 OA
ATOM      3  O   UNL     1     110.256 125.238 134.897  0.00  0.00    +0.000 OA
ATOM      4  C   UNL     1     111.823 125.684 137.421  0.00  0.00    +0.000 A 
ATOM      5  C   UNL     1     111.654 125.022 136.960  0.00  0.00    +0.000 A 
ATOM      6  C   UNL     1     111.530 126.425 137.203  0.00  0.00    +0.000 A 
ATOM      7  C   UNL     1     111.068 126.502 136.524  0.00  0.00    +0.000 A 
ATOM      8  C   UNL     1     110.900 125.838 136.063  0.00  0.00    +0.000 A 
ATOM      9  C   UNL     1     111.192 125.099 136.280  0.00  0.00    +0.000 A 
ATOM     10  C   UNL     1     110.420 125.906 135.353  0.00  0.00    +0.000 A 
ATOM     11  C   UNL     1     110.288 127.364 135.601  0.00  0.00    +0.000 A 
ATOM     12  C   UNL     1     110.112 126.674 135.120  0.00  0.00    +0.000 A 
ENDROOT
BRANCH  11  15
ATOM     13  O   UNL     1     108.258 129.369 135.768  0.00  0.00    +0.000 OA
ATOM     14  O   UNL     1     109.121 130.328 134.739  0.00  0.00    +0.000 OA
ATOM     15  C   UNL     1     109.996 128.105 135.385  0.00  0.00    +0.000 A 
ATOM     16  C   UNL     1     109.273 128.367 135.684  0.00  0.00    +0.000 A 
ATOM     17  C   UNL     1     110.427 128.584 134.871  0.00  0.00    +0.000 A 
ATOM     18  C   UNL     1     108.981 129.107 135.469  0.00  0.00    +0.000 A 
ATOM     19  C   UNL     1     110.136 129.325 134.655  0.00  0.00    +0.000 A 
ATOM     20  C   UNL     1     109.412 129.587 134.955  0.00  0.00    +0.000 A 
ENDBRANCH  11  15
BRANCH   5  21
ATOM     21  O   UNL     1     111.947 124.282 137.178  0.00  0.00    +0.000 OA
ATOM     22  C   UNL     1     112.555 123.935 136.742  0.00  0.00    +0.000 C 
ENDBRANCH   5  21
BRANCH   4  23
ATOM     23  O   UNL     1     112.285 125.607 138.101  0.00  0.00    +0.000 OA
BRANCH  23  32
ATOM     24  O   UNL     1     111.282 125.857 139.088  0.00  0.00    +0.000 OA
ATOM     25  O   UNL     1     112.871 127.282 140.341  0.00  0.00    +0.000 OA
ATOM     26  O   UNL     1     111.340 127.056 140.910  0.00  0.00    +0.000 OA
ATOM     27  O   UNL     1     113.344 126.558 138.936  0.00  0.00    +0.000 OA
ATOM     28  C   UNL     1     112.342 126.807 139.923  0.00  0.00    +0.000 C 
ATOM     29  C   UNL     1     111.576 126.694 140.208  0.00  0.00    +0.000 C 
ATOM     30  C   UNL     1     112.578 126.444 139.220  0.00  0.00    +0.000 C 
ATOM     31  C   UNL     1     111.046 126.219 139.790  0.00  0.00    +0.000 C 
ATOM     32  C   UNL     1     112.048 125.969 138.803  0.00  0.00    +0.000 C 
BRANCH  31  34
ATOM     33  O   UNL     1     109.953 125.349 140.091  0.00  0.00    +0.000 OA
ATOM     34  C   UNL     1     110.281 126.106 140.075  0.00  0.00    +0.000 C 
ENDBRANCH  31  34
ENDBRANCH  23  32
ENDBRANCH   4  23
TORSDOF 5
ENDMDL
MODEL 2
REMARK VINA RESULT:      -9.0      7.701     10.355
REMARK  Name = 120742
REMARK  5 active torsions:
REMARK  status: ('A' for Active; 'I' for Inactive)
REMARK    1  A    between atoms: O_2  and  C_17
REMARK    2  A    between atoms: O_2  and  C_19
REMARK    3  A    between atoms: O_8  and  C_20
REMARK    4  A    between atoms: C_16  and  C_18
REMARK    5  A    between atoms: C_26  and  C_28
REMARK                            x       y       z     vdW  Elec       q    Type
REMARK                         _______ _______ _______ _____ _____    ______ ____
ROOT
ATOM      1  O   UNL     1     105.451 126.396 144.335  0.00  0.00    +0.000 OA
ATOM      2  O   UNL     1     107.231 126.629 146.606  0.00  0.00    +0.000 OA
ATOM      3  O   UNL     1     107.278 127.637 145.574  0.00  0.00    +0.000 OA
ATOM      4  C   UNL     1     105.730 125.120 146.119  0.00  0.00    +0.000 A 
ATOM      5  C   UNL     1     106.325 125.527 146.520  0.00  0.00    +0.000 A 
ATOM      6  C   UNL     1     105.446 125.410 145.400  0.00  0.00    +0.000 A 
ATOM      7  C   UNL     1     105.756 126.105 145.084  0.00  0.00    +0.000 A 
ATOM      8  C   UNL     1     106.351 126.512 145.486  0.00  0.00    +0.000 A 
ATOM      9  C   UNL     1     106.636 126.223 146.204  0.00  0.00    +0.000 A 
ATOM     10  C   UNL     1     106.683 127.237 145.166  0.00  0.00    +0.000 A 
ATOM     11  C   UNL     1     105.771 127.120 144.000  0.00  0.00    +0.000 A 
ATOM     12  C   UNL     1     106.391 127.544 144.418  0.00  0.00    +0.000 A 
ENDROOT
BRANCH  11  15
ATOM     13  O   UNL     1     105.516 126.878 141.164  0.00  0.00    +0.000 OA
ATOM     14  O   UNL     1     104.626 128.267 141.126  0.00  0.00    +0.000 OA
ATOM     15  C   UNL     1     105.484 127.407 143.281  0.00  0.00    +0.000 A 
ATOM     16  C   UNL     1     105.643 126.999 142.582  0.00  0.00    +0.000 A 
ATOM     17  C   UNL     1     105.039 128.101 143.262  0.00  0.00    +0.000 A 
ATOM     18  C   UNL     1     105.357 127.286 141.863  0.00  0.00    +0.000 A 
ATOM     19  C   UNL     1     104.753 128.388 142.544  0.00  0.00    +0.000 A 
ATOM     20  C   UNL     1     104.912 127.980 141.844  0.00  0.00    +0.000 A 
ENDBRANCH  11  15
BRANCH   5  21
ATOM     21  O   UNL     1     106.610 125.238 147.239  0.00  0.00    +0.000 OA
ATOM     22  C   UNL     1     107.408 125.045 147.319  0.00  0.00    +0.000 C 
ENDBRANCH   5  21
BRANCH   4  23
ATOM     23  O   UNL     1     105.420 124.425 146.436  0.00  0.00    +0.000 OA
BRANCH  23  32
ATOM     24  O   UNL     1     104.177 124.895 146.962  0.00  0.00    +0.000 OA
ATOM     25  O   UNL     1     103.010 122.978 145.921  0.00  0.00    +0.000 OA
ATOM     26  O   UNL     1     102.157 124.087 146.794  0.00  0.00    +0.000 OA
ATOM     27  O   UNL     1     104.641 123.146 145.742  0.00  0.00    +0.000 OA
ATOM     28  C   UNL     1     103.399 123.617 146.268  0.00  0.00    +0.000 C 
ATOM     29  C   UNL     1     102.973 124.172 146.704  0.00  0.00    +0.000 C 
ATOM     30  C   UNL     1     104.216 123.701 146.178  0.00  0.00    +0.000 C 
ATOM     31  C   UNL     1     103.362 124.811 147.052  0.00  0.00    +0.000 C 
ATOM     32  C   UNL     1     104.605 124.341 146.526  0.00  0.00    +0.000 C 
BRANCH  31  34
ATOM     33  O   UNL     1     103.259 125.688 148.176  0.00  0.00    +0.000 OA
ATOM     34  C   UNL     1     102.936 125.366 147.488  0.00  0.00    +0.000 C 
ENDBRANCH  31  34
ENDBRANCH  23  32
ENDBRANCH   4  23
TORSDOF 5
ENDMDL
MODEL 3
REMARK VINA RESULT:      -8.9      2.322      4.523
REMARK  Name = 120742
REMARK  5 active torsions:
REMARK  status: ('A' for Active; 'I' for Inactive)
REMARK    1  A    between atoms: O_2  and  C_17
REMARK    2  A    between atoms: O_2  and  C_19
REMARK    3  A    between atoms: O_8  and  C_20
REMARK    4  A    between atoms: C_16  and  C_18
REMARK    5  A    between atoms: C_26  and  C_28
REMARK                            x       y       z     vdW  Elec       q    Type
REMARK                         _______ _______ _______ _____ _____    ______ ____
ROOT
ATOM      1  O   UNL     1     110.647 127.357 136.507  0.00  0.00    +0.000 OA
ATOM      2  O   UNL     1     108.179 128.753 135.921  0.00  0.00    +0.000 OA
ATOM      3  O   UNL     1     108.186 127.310 135.909  0.00  0.00    +0.000 OA
ATOM      4  C   UNL     1     110.166 129.513 136.411  0.00  0.00    +0.000 A 
ATOM      5  C   UNL     1     109.365 129.494 136.216  0.00  0.00    +0.000 A 
ATOM      6  C   UNL     1     110.584 128.807 136.505  0.00  0.00    +0.000 A 
ATOM      7  C   UNL     1     110.200 128.084 136.405  0.00  0.00    +0.000 A 
ATOM      8  C   UNL     1     109.399 128.066 136.211  0.00  0.00    +0.000 A 
ATOM      9  C   UNL     1     108.981 128.771 136.116  0.00  0.00    +0.000 A 
ATOM     10  C   UNL     1     108.988 127.319 136.104  0.00  0.00    +0.000 A 
ATOM     11  C   UNL     1     110.252 126.600 136.404  0.00  0.00    +0.000 A 
ATOM     12  C   UNL     1     109.417 126.581 136.201  0.00  0.00    +0.000 A 
ENDROOT
BRANCH  11  15
ATOM     13  O   UNL     1     111.413 124.622 138.110  0.00  0.00    +0.000 OA
ATOM     14  O   UNL     1     111.933 123.787 136.786  0.00  0.00    +0.000 OA
ATOM     15  C   UNL     1     110.673 125.897 136.499  0.00  0.00    +0.000 A 
ATOM     16  C   UNL     1     110.833 125.611 137.256  0.00  0.00    +0.000 A 
ATOM     17  C   UNL     1     110.933 125.479 135.837  0.00  0.00    +0.000 A 
ATOM     18  C   UNL     1     111.253 124.908 137.352  0.00  0.00    +0.000 A 
ATOM     19  C   UNL     1     111.353 124.775 135.932  0.00  0.00    +0.000 A 
ATOM     20  C   UNL     1     111.513 124.490 136.690  0.00  0.00    +0.000 A 
ENDBRANCH  11  15
BRANCH   5  21
ATOM     21  O   UNL     1     108.947 130.200 136.121  0.00  0.00    +0.000 OA
ATOM     22  C   UNL     1     108.760 130.470 135.365  0.00  0.00    +0.000 C 
ENDBRANCH   5  21
BRANCH   4  23
ATOM     23  O   UNL     1     110.550 130.237 136.511  0.00  0.00    +0.000 OA
BRANCH  23  32
ATOM     24  O   UNL     1     110.671 130.262 137.934  0.00  0.00    +0.000 OA
ATOM     25  O   UNL     1     113.021 131.007 137.721  0.00  0.00    +0.000 OA
ATOM     26  O   UNL     1     112.359 130.785 139.215  0.00  0.00    +0.000 OA
ATOM     27  O   UNL     1     112.117 130.733 136.368  0.00  0.00    +0.000 OA
ATOM     28  C   UNL     1     112.238 130.759 137.792  0.00  0.00    +0.000 C 
ATOM     29  C   UNL     1     111.906 130.648 138.539  0.00  0.00    +0.000 C 
ATOM     30  C   UNL     1     111.785 130.622 137.115  0.00  0.00    +0.000 C 
ATOM     31  C   UNL     1     111.122 130.399 138.610  0.00  0.00    +0.000 C 
ATOM     32  C   UNL     1     111.001 130.374 137.186  0.00  0.00    +0.000 C 
BRANCH  31  34
ATOM     33  O   UNL     1     110.023 130.547 139.512  0.00  0.00    +0.000 OA
ATOM     34  C   UNL     1     110.792 130.288 139.357  0.00  0.00    +0.000 C 
ENDBRANCH  31  34
ENDBRANCH  23  32
ENDBRANCH   4  23
TORSDOF 5
ENDMDL
MODEL 4
REMARK VINA RESULT:      -8.8      7.884     11.139
REMARK  Name = 120742
REMARK  5 active torsions:
REMARK  status: ('A' for Active; 'I' for Inactive)
REMARK    1  A    between atoms: O_2  and  C_17
REMARK    2  A    between atoms: O_2  and  C_19
REMARK    3  A    between atoms: O_8  and  C_20
REMARK    4  A    between atoms: C_16  and  C_18
REMARK    5  A    between atoms: C_26  and  C_28
REMARK                            x       y       z     vdW  Elec       q    Type
REMARK                         _______ _______ _______ _____ _____    ______ ____
ROOT
ATOM      1  O   UNL     1     104.231 124.909 145.789  0.00  0.00    +0.000 OA
ATOM      2  O   UNL     1     106.784 125.242 147.114  0.00  0.00    +0.000 OA
ATOM      3  O   UNL     1     105.873 124.230 147.594  0.00  0.00    +0.000 OA
ATOM      4  C   UNL     1     105.911 126.298 145.414  0.00  0.00    +0.000 A 
ATOM      5  C   UNL     1     106.444 126.074 146.003  0.00  0.00    +0.000 A 
ATOM      6  C   UNL     1     105.184 125.912 145.347  0.00  0.00    +0.000 A 
ATOM      7  C   UNL     1     104.991 125.303 145.869  0.00  0.00    +0.000 A 
ATOM      8  C   UNL     1     105.524 125.080 146.458  0.00  0.00    +0.000 A 
ATOM      9  C   UNL     1     106.250 125.465 146.525  0.00  0.00    +0.000 A 
ATOM     10  C   UNL     1     105.334 124.447 147.008  0.00  0.00    +0.000 A 
ATOM     11  C   UNL     1     104.024 124.274 146.330  0.00  0.00    +0.000 A 
ATOM     12  C   UNL     1     104.579 124.042 146.944  0.00  0.00    +0.000 A 
ENDROOT
BRANCH  11  15
ATOM     13  O   UNL     1     101.221 124.168 146.875  0.00  0.00    +0.000 OA
ATOM     14  O   UNL     1     101.116 122.740 146.055  0.00  0.00    +0.000 OA
ATOM     15  C   UNL     1     103.297 123.891 146.261  0.00  0.00    +0.000 A 
ATOM     16  C   UNL     1     102.623 124.221 146.602  0.00  0.00    +0.000 A 
ATOM     17  C   UNL     1     103.245 123.177 145.851  0.00  0.00    +0.000 A 
ATOM     18  C   UNL     1     101.895 123.838 146.534  0.00  0.00    +0.000 A 
ATOM     19  C   UNL     1     102.518 122.793 145.782  0.00  0.00    +0.000 A 
ATOM     20  C   UNL     1     101.843 123.124 146.124  0.00  0.00    +0.000 A 
ENDBRANCH  11  15
BRANCH   5  21
ATOM     21  O   UNL     1     107.170 126.460 146.070  0.00  0.00    +0.000 OA
ATOM     22  C   UNL     1     107.304 126.982 146.694  0.00  0.00    +0.000 C 
ENDBRANCH   5  21
BRANCH   4  23
ATOM     23  O   UNL     1     106.104 126.906 144.892  0.00  0.00    +0.000 OA
BRANCH  23  32
ATOM     24  O   UNL     1     106.227 126.163 143.678  0.00  0.00    +0.000 OA
ATOM     25  O   UNL     1     104.926 127.897 142.484  0.00  0.00    +0.000 OA
ATOM     26  O   UNL     1     105.483 126.575 141.669  0.00  0.00    +0.000 OA
ATOM     27  O   UNL     1     105.237 128.063 144.096  0.00  0.00    +0.000 OA
ATOM     28  C   UNL     1     105.360 127.319 142.882  0.00  0.00    +0.000 C 
ATOM     29  C   UNL     1     105.639 126.658 142.475  0.00  0.00    +0.000 C 
ATOM     30  C   UNL     1     105.516 127.402 143.689  0.00  0.00    +0.000 C 
ATOM     31  C   UNL     1     106.072 126.080 142.873  0.00  0.00    +0.000 C 
ATOM     32  C   UNL     1     105.949 126.824 144.087  0.00  0.00    +0.000 C 
BRANCH  31  34
ATOM     33  O   UNL     1     107.149 125.217 142.501  0.00  0.00    +0.000 OA
ATOM     34  C   UNL     1     106.350 125.419 142.465  0.00  0.00    +0.000 C 
ENDBRANCH  31  34
ENDBRANCH  23  32
ENDBRANCH   4  23
TORSDOF 5
ENDMDL
MODEL 5
REMARK VINA RESULT:      -8.8      2.313      5.067
REMARK  Name = 120742
REMARK  5 active torsions:
REMARK  status: ('A' for Active; 'I' for Inactive)
REMARK    1  A    between atoms: O_2  and  C_17
REMARK    2  A    between atoms: O_2  and  C_19
REMARK    3  A    between atoms: O_8  and  C_20
REMARK    4  A    between atoms: C_16  and  C_18
REMARK    5  A    between atoms: C_26  and  C_28
REMARK                            x       y       z     vdW  Elec       q    Type
REMARK                         _______ _______ _______ _____ _____    ______ ____
ROOT
ATOM      1  O   UNL     1     112.164 127.400 136.849  0.00  0.00    +0.000 OA
ATOM      2  O   UNL     1     113.869 129.557 135.944  0.00  0.00    +0.000 OA
ATOM      3  O   UNL     1     114.302 128.194 135.748  0.00  0.00    +0.000 OA
ATOM      4  C   UNL     1     111.923 129.597 136.933  0.00  0.00    +0.000 A 
ATOM      5  C   UNL     1     112.620 129.852 136.574  0.00  0.00    +0.000 A 
ATOM      6  C   UNL     1     111.777 128.789 137.021  0.00  0.00    +0.000 A 
ATOM      7  C   UNL     1     112.328 128.238 136.751  0.00  0.00    +0.000 A 
ATOM      8  C   UNL     1     113.025 128.494 136.392  0.00  0.00    +0.000 A 
ATOM      9  C   UNL     1     113.172 129.301 136.303  0.00  0.00    +0.000 A 
ATOM     10  C   UNL     1     113.607 127.930 136.106  0.00  0.00    +0.000 A 
ATOM     11  C   UNL     1     112.734 126.821 136.570  0.00  0.00    +0.000 A 
ATOM     12  C   UNL     1     113.461 127.087 136.196  0.00  0.00    +0.000 A 
ENDROOT
BRANCH  11  15
ATOM     13  O   UNL     1     111.232 124.490 135.880  0.00  0.00    +0.000 OA
ATOM     14  O   UNL     1     112.139 123.596 136.929  0.00  0.00    +0.000 OA
ATOM     15  C   UNL     1     112.585 126.015 136.660  0.00  0.00    +0.000 A 
ATOM     16  C   UNL     1     111.983 125.655 136.225  0.00  0.00    +0.000 A 
ATOM     17  C   UNL     1     113.039 125.567 137.184  0.00  0.00    +0.000 A 
ATOM     18  C   UNL     1     111.834 124.849 136.314  0.00  0.00    +0.000 A 
ATOM     19  C   UNL     1     112.890 124.761 137.274  0.00  0.00    +0.000 A 
ATOM     20  C   UNL     1     112.287 124.402 136.839  0.00  0.00    +0.000 A 
ENDBRANCH  11  15
BRANCH   5  21
ATOM     21  O   UNL     1     112.767 130.660 136.485  0.00  0.00    +0.000 OA
ATOM     22  C   UNL     1     113.338 131.028 136.952  0.00  0.00    +0.000 C 
ENDBRANCH   5  21
BRANCH   4  23
ATOM     23  O   UNL     1     111.372 130.148 137.203  0.00  0.00    +0.000 OA
BRANCH  23  32
ATOM     24  O   UNL     1     110.335 129.949 136.240  0.00  0.00    +0.000 OA
ATOM     25  O   UNL     1     108.647 129.983 138.050  0.00  0.00    +0.000 OA
ATOM     26  O   UNL     1     108.174 129.772 136.484  0.00  0.00    +0.000 OA
ATOM     27  O   UNL     1     110.247 130.171 138.410  0.00  0.00    +0.000 OA
ATOM     28  C   UNL     1     109.210 129.971 137.446  0.00  0.00    +0.000 C 
ATOM     29  C   UNL     1     108.974 129.866 136.663  0.00  0.00    +0.000 C 
ATOM     30  C   UNL     1     110.010 130.065 137.626  0.00  0.00    +0.000 C 
ATOM     31  C   UNL     1     109.537 129.855 136.060  0.00  0.00    +0.000 C 
ATOM     32  C   UNL     1     110.573 130.054 137.023  0.00  0.00    +0.000 C 
BRANCH  31  34
ATOM     33  O   UNL     1     109.629 130.213 134.680  0.00  0.00    +0.000 OA
ATOM     34  C   UNL     1     109.300 129.749 135.277  0.00  0.00    +0.000 C 
ENDBRANCH  31  34
ENDBRANCH  23  32
ENDBRANCH   4  23
TORSDOF 5
ENDMDL
MODEL 6
REMARK VINA RESULT:      -8.8      2.714      4.534
REMARK  Name = 120742
REMARK  5 active torsions:
REMARK  status: ('A' for Active; 'I' for Inactive)
REMARK    1  A    between atoms: O_2  and  C_17
REMARK    2  A    between atoms: O_2  and  C_19
REMARK    3  A    between atoms: O_8  and  C_20
REMARK    4  A    between atoms: C_16  and  C_18
REMARK    5  A    between atoms: C_26  and  C_28
REMARK                            x       y       z     vdW  Elec       q    Type
REMARK                         _______ _______ _______ _____ _____    ______ ____
ROOT
ATOM      1  O   UNL     1     110.022 130.872 136.066  0.00  0.00    +0.000 OA
ATOM      2  O   UNL     1     112.098 131.697 137.907  0.00  0.00    +0.000 OA
ATOM      3  O   UNL     1     110.993 132.591 137.652  0.00  0.00    +0.000 OA
ATOM      4  C   UNL     1     111.864 129.860 136.752  0.00  0.00    +0.000 A 
ATOM      5  C   UNL     1     112.178 130.422 137.268  0.00  0.00    +0.000 A 
ATOM      6  C   UNL     1     111.155 130.012 136.359  0.00  0.00    +0.000 A 
ATOM      7  C   UNL     1     110.760 130.726 136.481  0.00  0.00    +0.000 A 
ATOM      8  C   UNL     1     111.074 131.288 136.998  0.00  0.00    +0.000 A 
ATOM      9  C   UNL     1     111.783 131.136 137.391  0.00  0.00    +0.000 A 
ATOM     10  C   UNL     1     110.672 132.034 137.134  0.00  0.00    +0.000 A 
ATOM     11  C   UNL     1     109.606 131.614 136.190  0.00  0.00    +0.000 A 
ATOM     12  C   UNL     1     109.933 132.199 136.727  0.00  0.00    +0.000 A 
ENDROOT
BRANCH  11  15
ATOM     13  O   UNL     1     106.756 131.432 136.067  0.00  0.00    +0.000 OA
ATOM     14  O   UNL     1     106.770 132.211 134.612  0.00  0.00    +0.000 OA
ATOM     15  C   UNL     1     108.897 131.763 135.795  0.00  0.00    +0.000 A 
ATOM     16  C   UNL     1     108.181 131.523 136.128  0.00  0.00    +0.000 A 
ATOM     17  C   UNL     1     108.904 132.152 135.068  0.00  0.00    +0.000 A 
ATOM     18  C   UNL     1     107.472 131.672 135.734  0.00  0.00    +0.000 A 
ATOM     19  C   UNL     1     108.195 132.301 134.673  0.00  0.00    +0.000 A 
ATOM     20  C   UNL     1     107.479 132.061 135.007  0.00  0.00    +0.000 A 
ENDBRANCH  11  15
BRANCH   5  21
ATOM     21  O   UNL     1     112.888 130.270 137.661  0.00  0.00    +0.000 OA
ATOM     22  C   UNL     1     113.573 130.675 137.446  0.00  0.00    +0.000 C 
ENDBRANCH   5  21
BRANCH   4  23
ATOM     23  O   UNL     1     112.260 129.146 136.629  0.00  0.00    +0.000 OA
BRANCH  23  32
ATOM     24  O   UNL     1     111.412 128.267 137.371  0.00  0.00    +0.000 OA
ATOM     25  O   UNL     1     111.502 126.623 135.523  0.00  0.00    +0.000 OA
ATOM     26  O   UNL     1     110.625 126.292 136.879  0.00  0.00    +0.000 OA
ATOM     27  O   UNL     1     112.320 128.050 135.397  0.00  0.00    +0.000 OA
ATOM     28  C   UNL     1     111.472 127.171 136.139  0.00  0.00    +0.000 C 
ATOM     29  C   UNL     1     111.033 127.005 136.817  0.00  0.00    +0.000 C 
ATOM     30  C   UNL     1     111.881 127.885 136.076  0.00  0.00    +0.000 C 
ATOM     31  C   UNL     1     111.003 127.553 137.433  0.00  0.00    +0.000 C 
ATOM     32  C   UNL     1     111.851 128.433 136.692  0.00  0.00    +0.000 C 
BRANCH  31  34
ATOM     33  O   UNL     1     110.913 127.457 138.856  0.00  0.00    +0.000 OA
ATOM     34  C   UNL     1     110.565 127.388 138.111  0.00  0.00    +0.000 C 
ENDBRANCH  31  34
ENDBRANCH  23  32
ENDBRANCH   4  23
TORSDOF 5
ENDMDL
MODEL 7
REMARK VINA RESULT:      -8.7      2.803      4.466
REMARK  Name = 120742
REMARK  5 active torsions:
REMARK  status: ('A' for Active; 'I' for Inactive)
REMARK    1  A    between atoms: O_2  and  C_17
REMARK    2  A    between atoms: O_2  and  C_19
REMARK    3  A    between atoms: O_8  and  C_20
REMARK    4  A    between atoms: C_16  and  C_18
REMARK    5  A    between atoms: C_26  and  C_28
REMARK                            x       y       z     vdW  Elec       q    Type
REMARK                         _______ _______ _______ _____ _____    ______ ____
ROOT
ATOM      1  O   UNL     1     112.622 128.798 135.709  0.00  0.00    +0.000 OA
ATOM      2  O   UNL     1     112.022 126.135 136.672  0.00  0.00    +0.000 OA
ATOM      3  O   UNL     1     113.400 126.556 136.594  0.00  0.00    +0.000 OA
ATOM      4  C   UNL     1     110.703 127.737 135.995  0.00  0.00    +0.000 A 
ATOM      5  C   UNL     1     110.960 127.008 136.284  0.00  0.00    +0.000 A 
ATOM      6  C   UNL     1     111.253 128.323 135.808  0.00  0.00    +0.000 A 
ATOM      7  C   UNL     1     112.059 128.180 135.908  0.00  0.00    +0.000 A 
ATOM      8  C   UNL     1     112.315 127.450 136.197  0.00  0.00    +0.000 A 
ATOM      9  C   UNL     1     111.766 126.864 136.384  0.00  0.00    +0.000 A 
ATOM     10  C   UNL     1     113.152 127.289 136.306  0.00  0.00    +0.000 A 
ATOM     11  C   UNL     1     113.462 128.654 135.812  0.00  0.00    +0.000 A 
ATOM     12  C   UNL     1     113.730 127.895 136.112  0.00  0.00    +0.000 A 
ENDROOT
BRANCH  11  15
ATOM     13  O   UNL     1     114.853 131.054 136.502  0.00  0.00    +0.000 OA
ATOM     14  O   UNL     1     115.653 131.005 135.059  0.00  0.00    +0.000 OA
ATOM     15  C   UNL     1     114.010 129.242 135.624  0.00  0.00    +0.000 A 
ATOM     16  C   UNL     1     114.158 129.854 136.157  0.00  0.00    +0.000 A 
ATOM     17  C   UNL     1     114.410 129.217 134.902  0.00  0.00    +0.000 A 
ATOM     18  C   UNL     1     114.705 130.442 135.969  0.00  0.00    +0.000 A 
ATOM     19  C   UNL     1     114.957 129.805 134.714  0.00  0.00    +0.000 A 
ATOM     20  C   UNL     1     115.105 130.417 135.248  0.00  0.00    +0.000 A 
ENDBRANCH  11  15
BRANCH   5  21
ATOM     21  O   UNL     1     110.409 126.422 136.471  0.00  0.00    +0.000 OA
ATOM     22  C   UNL     1     110.335 125.757 135.989  0.00  0.00    +0.000 C 
ENDBRANCH   5  21
BRANCH   4  23
ATOM     23  O   UNL     1     109.896 127.880 135.895  0.00  0.00    +0.000 OA
BRANCH  23  32
ATOM     24  O   UNL     1     109.681 128.757 137.003  0.00  0.00    +0.000 OA
ATOM     25  O   UNL     1     108.286 130.219 135.575  0.00  0.00    +0.000 OA
ATOM     26  O   UNL     1     108.536 130.608 137.158  0.00  0.00    +0.000 OA
ATOM     27  O   UNL     1     108.966 128.855 134.943  0.00  0.00    +0.000 OA
ATOM     28  C   UNL     1     108.751 129.732 136.051  0.00  0.00    +0.000 C 
ATOM     29  C   UNL     1     108.876 129.926 136.842  0.00  0.00    +0.000 C 
ATOM     30  C   UNL     1     109.092 129.049 135.735  0.00  0.00    +0.000 C 
ATOM     31  C   UNL     1     109.341 129.438 137.319  0.00  0.00    +0.000 C 
ATOM     32  C   UNL     1     109.557 128.562 136.211  0.00  0.00    +0.000 C 
BRANCH  31  34
ATOM     33  O   UNL     1     109.319 129.076 138.701  0.00  0.00    +0.000 OA
ATOM     34  C   UNL     1     109.466 129.633 138.110  0.00  0.00    +0.000 C 
ENDBRANCH  31  34
ENDBRANCH  23  32
ENDBRANCH   4  23
TORSDOF 5
ENDMDL
MODEL 8
REMARK VINA RESULT:      -8.6      1.582      4.876
REMARK  Name = 120742
REMARK  5 active torsions:
REMARK  status: ('A' for Active; 'I' for Inactive)
REMARK    1  A    between atoms: O_2  and  C_17
REMARK    2  A    between atoms: O_2  and  C_19
REMARK    3  A    between atoms: O_8  and  C_20
REMARK    4  A    between atoms: C_16  and  C_18
REMARK    5  A    between atoms: C_26  and  C_28
REMARK                            x       y       z     vdW  Elec       q    Type
REMARK                         _______ _______ _______ _____ _____    ______ ____
ROOT
ATOM      1  O   UNL     1     111.770 126.411 139.193  0.00  0.00    +0.000 OA
ATOM      2  O   UNL     1     114.549 126.004 138.492  0.00  0.00    +0.000 OA
ATOM      3  O   UNL     1     114.227 126.541 139.792  0.00  0.00    +0.000 OA
ATOM      4  C   UNL     1     112.723 125.630 137.356  0.00  0.00    +0.000 A 
ATOM      5  C   UNL     1     113.522 125.674 137.555  0.00  0.00    +0.000 A 
ATOM      6  C   UNL     1     112.150 125.873 137.898  0.00  0.00    +0.000 A 
ATOM      7  C   UNL     1     112.376 126.160 138.638  0.00  0.00    +0.000 A 
ATOM      8  C   UNL     1     113.177 126.204 138.835  0.00  0.00    +0.000 A 
ATOM      9  C   UNL     1     113.749 125.960 138.294  0.00  0.00    +0.000 A 
ATOM     10  C   UNL     1     113.425 126.500 139.602  0.00  0.00    +0.000 A 
ATOM     11  C   UNL     1     112.001 126.710 139.965  0.00  0.00    +0.000 A 
ATOM     12  C   UNL     1     112.833 126.756 140.171  0.00  0.00    +0.000 A 
ENDROOT
BRANCH  11  15
ATOM     13  O   UNL     1     109.899 126.075 141.794  0.00  0.00    +0.000 OA
ATOM     14  O   UNL     1     109.701 127.680 142.123  0.00  0.00    +0.000 OA
ATOM     15  C   UNL     1     111.426 126.953 140.504  0.00  0.00    +0.000 A 
ATOM     16  C   UNL     1     110.949 126.393 140.879  0.00  0.00    +0.000 A 
ATOM     17  C   UNL     1     111.327 127.755 140.669  0.00  0.00    +0.000 A 
ATOM     18  C   UNL     1     110.375 126.635 141.419  0.00  0.00    +0.000 A 
ATOM     19  C   UNL     1     110.752 127.998 141.208  0.00  0.00    +0.000 A 
ATOM     20  C   UNL     1     110.276 127.437 141.583  0.00  0.00    +0.000 A 
ENDBRANCH  11  15
BRANCH   5  21
ATOM     21  O   UNL     1     114.095 125.430 137.013  0.00  0.00    +0.000 OA
ATOM     22  C   UNL     1     114.536 124.748 137.158  0.00  0.00    +0.000 C 
ENDBRANCH   5  21
BRANCH   4  23
ATOM     23  O   UNL     1     112.496 125.343 136.617  0.00  0.00    +0.000 OA
BRANCH  23  32
ATOM     24  O   UNL     1     112.005 126.557 136.046  0.00  0.00    +0.000 OA
ATOM     25  O   UNL     1     110.070 125.333 135.105  0.00  0.00    +0.000 OA
ATOM     26  O   UNL     1     110.224 126.955 134.848  0.00  0.00    +0.000 OA
ATOM     27  O   UNL     1     111.206 124.527 135.990  0.00  0.00    +0.000 OA
ATOM     28  C   UNL     1     110.715 125.741 135.419  0.00  0.00    +0.000 C 
ATOM     29  C   UNL     1     110.793 126.552 135.290  0.00  0.00    +0.000 C 
ATOM     30  C   UNL     1     111.284 125.338 135.861  0.00  0.00    +0.000 C 
ATOM     31  C   UNL     1     111.437 126.960 135.604  0.00  0.00    +0.000 C 
ATOM     32  C   UNL     1     111.929 125.746 136.175  0.00  0.00    +0.000 C 
BRANCH  31  34
ATOM     33  O   UNL     1     112.256 128.096 135.318  0.00  0.00    +0.000 OA
ATOM     34  C   UNL     1     111.514 127.771 135.475  0.00  0.00    +0.000 C 
ENDBRANCH  31  34
ENDBRANCH  23  32
ENDBRANCH   4  23
TORSDOF 5
ENDMDL
MODEL 9
REMARK VINA RESULT:      -8.5      3.127      5.044
REMARK  Name = 120742
REMARK  5 active torsions:
REMARK  status: ('A' for Active; 'I' for Inactive)
REMARK    1  A    between atoms: O_2  and  C_17
REMARK    2  A    between atoms: O_2  and  C_19
REMARK    3  A    between atoms: O_8  and  C_20
REMARK    4  A    between atoms: C_16  and  C_18
REMARK    5  A    between atoms: C_26  and  C_28
REMARK                            x       y       z     vdW  Elec       q    Type
REMARK                         _______ _______ _______ _____ _____    ______ ____
ROOT
ATOM      1  O   UNL     1     113.110 127.611 137.424  0.00  0.00    +0.000 OA
ATOM      2  O   UNL     1     113.777 130.088 136.083  0.00  0.00    +0.000 OA
ATOM      3  O   UNL     1     114.125 128.837 135.453  0.00  0.00    +0.000 OA
ATOM      4  C   UNL     1     112.783 129.723 137.991  0.00  0.00    +0.000 A 
ATOM      5  C   UNL     1     113.114 130.119 137.348  0.00  0.00    +0.000 A 
ATOM      6  C   UNL     1     112.784 128.898 138.012  0.00  0.00    +0.000 A 
ATOM      7  C   UNL     1     113.116 128.470 137.390  0.00  0.00    +0.000 A 
ATOM      8  C   UNL     1     113.447 128.867 136.747  0.00  0.00    +0.000 A 
ATOM      9  C   UNL     1     113.446 129.691 136.726  0.00  0.00    +0.000 A 
ATOM     10  C   UNL     1     113.795 128.432 136.093  0.00  0.00    +0.000 A 
ATOM     11  C   UNL     1     113.455 127.160 136.778  0.00  0.00    +0.000 A 
ATOM     12  C   UNL     1     113.800 127.573 136.108  0.00  0.00    +0.000 A 
ENDROOT
BRANCH  11  15
ATOM     13  O   UNL     1     114.746 124.703 137.460  0.00  0.00    +0.000 OA
ATOM     14  O   UNL     1     113.454 123.861 136.873  0.00  0.00    +0.000 OA
ATOM     15  C   UNL     1     113.454 126.335 136.802  0.00  0.00    +0.000 A 
ATOM     16  C   UNL     1     114.100 125.931 137.119  0.00  0.00    +0.000 A 
ATOM     17  C   UNL     1     112.808 125.914 136.508  0.00  0.00    +0.000 A 
ATOM     18  C   UNL     1     114.100 125.107 137.143  0.00  0.00    +0.000 A 
ATOM     19  C   UNL     1     112.808 125.090 136.532  0.00  0.00    +0.000 A 
ATOM     20  C   UNL     1     113.454 124.686 136.849  0.00  0.00    +0.000 A 
ENDBRANCH  11  15
BRANCH   5  21
ATOM     21  O   UNL     1     113.113 130.944 137.327  0.00  0.00    +0.000 OA
ATOM     22  C   UNL     1     112.582 131.343 136.838  0.00  0.00    +0.000 C 
ENDBRANCH   5  21
BRANCH   4  23
ATOM     23  O   UNL     1     112.451 130.151 138.613  0.00  0.00    +0.000 OA
BRANCH  23  32
ATOM     24  O   UNL     1     113.453 129.952 139.612  0.00  0.00    +0.000 OA
ATOM     25  O   UNL     1     111.691 129.492 141.288  0.00  0.00    +0.000 OA
ATOM     26  O   UNL     1     113.279 129.446 141.728  0.00  0.00    +0.000 OA
ATOM     27  O   UNL     1     111.276 129.844 139.731  0.00  0.00    +0.000 OA
ATOM     28  C   UNL     1     112.278 129.645 140.730  0.00  0.00    +0.000 C 
ATOM     29  C   UNL     1     113.073 129.622 140.949  0.00  0.00    +0.000 C 
ATOM     30  C   UNL     1     112.071 129.822 139.950  0.00  0.00    +0.000 C 
ATOM     31  C   UNL     1     113.660 129.775 140.391  0.00  0.00    +0.000 C 
ATOM     32  C   UNL     1     112.658 129.975 139.392  0.00  0.00    +0.000 C 
BRANCH  31  34
ATOM     33  O   UNL     1     114.971 130.344 140.358  0.00  0.00    +0.000 OA
ATOM     34  C   UNL     1     114.454 129.752 140.611  0.00  0.00    +0.000 C 
ENDBRANCH  31  34
ENDBRANCH  23  32
ENDBRANCH   4  23
TORSDOF 5
ENDMDL
MODEL 10
REMARK VINA RESULT:      -8.5      2.741      5.471
REMARK  Name = 120742
REMARK  5 active torsions:
REMARK  status: ('A' for Active; 'I' for Inactive)
REMARK    1  A    between atoms: O_2  and  C_17
REMARK    2  A    between atoms: O_2  and  C_19
REMARK    3  A    between atoms: O_8  and  C_20
REMARK    4  A    between atoms: C_16  and  C_18
REMARK    5  A    between atoms: C_26  and  C_28
REMARK                            x       y       z     vdW  Elec       q    Type
REMARK                         _______ _______ _______ _____ _____    ______ ____
ROOT
ATOM      1  O   UNL     1     113.295 127.232 138.465  0.00  0.00    +0.000 OA
ATOM      2  O   UNL     1     112.385 127.897 141.132  0.00  0.00    +0.000 OA
ATOM      3  O   UNL     1     112.390 126.514 140.719  0.00  0.00    +0.000 OA
ATOM      4  C   UNL     1     113.116 129.170 139.515  0.00  0.00    +0.000 A 
ATOM      5  C   UNL     1     112.821 128.932 140.248  0.00  0.00    +0.000 A 
ATOM      6  C   UNL     1     113.271 128.607 138.932  0.00  0.00    +0.000 A 
ATOM      7  C   UNL     1     113.130 127.808 139.081  0.00  0.00    +0.000 A 
ATOM      8  C   UNL     1     112.835 127.572 139.815  0.00  0.00    +0.000 A 
ATOM      9  C   UNL     1     112.681 128.133 140.398  0.00  0.00    +0.000 A 
ATOM     10  C   UNL     1     112.685 126.743 139.983  0.00  0.00    +0.000 A 
ATOM     11  C   UNL     1     113.151 126.398 138.616  0.00  0.00    +0.000 A 
ATOM     12  C   UNL     1     112.844 126.151 139.379  0.00  0.00    +0.000 A 
ENDROOT
BRANCH  11  15
ATOM     13  O   UNL     1     114.979 124.647 137.290  0.00  0.00    +0.000 OA
ATOM     14  O   UNL     1     113.774 124.157 136.275  0.00  0.00    +0.000 OA
ATOM     15  C   UNL     1     113.306 125.838 138.030  0.00  0.00    +0.000 A 
ATOM     16  C   UNL     1     114.065 125.522 137.952  0.00  0.00    +0.000 A 
ATOM     17  C   UNL     1     112.704 125.593 137.523  0.00  0.00    +0.000 A 
ATOM     18  C   UNL     1     114.221 124.962 137.368  0.00  0.00    +0.000 A 
ATOM     19  C   UNL     1     112.859 125.033 136.937  0.00  0.00    +0.000 A 
ATOM     20  C   UNL     1     113.618 124.718 136.860  0.00  0.00    +0.000 A 
ENDBRANCH  11  15
BRANCH   5  21
ATOM     21  O   UNL     1     112.666 129.495 140.832  0.00  0.00    +0.000 OA
ATOM     22  C   UNL     1     113.166 129.560 141.485  0.00  0.00    +0.000 C 
ENDBRANCH   5  21
BRANCH   4  23
ATOM     23  O   UNL     1     113.256 129.969 139.366  0.00  0.00    +0.000 OA
BRANCH  23  32
ATOM     24  O   UNL     1     112.147 130.285 138.522  0.00  0.00    +0.000 OA
ATOM     25  O   UNL     1     113.672 131.439 136.950  0.00  0.00    +0.000 OA
ATOM     26  O   UNL     1     112.056 131.370 136.631  0.00  0.00    +0.000 OA
ATOM     27  O   UNL     1     114.273 130.738 138.318  0.00  0.00    +0.000 OA
ATOM     28  C   UNL     1     113.164 131.054 137.474  0.00  0.00    +0.000 C 
ATOM     29  C   UNL     1     112.355 131.020 137.315  0.00  0.00    +0.000 C 
ATOM     30  C   UNL     1     113.464 130.703 138.159  0.00  0.00    +0.000 C 
ATOM     31  C   UNL     1     111.847 130.635 137.839  0.00  0.00    +0.000 C 
ATOM     32  C   UNL     1     112.956 130.319 138.683  0.00  0.00    +0.000 C 
BRANCH  31  34
ATOM     33  O   UNL     1     110.492 130.700 138.289  0.00  0.00    +0.000 OA
ATOM     34  C   UNL     1     111.039 130.601 137.679  0.00  0.00    +0.000 C 
ENDBRANCH  31  34
ENDBRANCH  23  32
ENDBRANCH   4  23
TORSDOF 5
ENDMDL
