MODEL 1
REMARK VINA RESULT:      -9.6      0.000      0.000
REMARK  Name = 131834204
REMARK  6 active torsions:
REMARK  status: ('A' for Active; 'I' for Inactive)
REMARK    1  A    between atoms: O_2  and  C_17
REMARK    2  A    between atoms: O_2  and  C_24
REMARK    3  A    between atoms: O_13  and  C_35
REMARK    4  A    between atoms: C_18  and  C_27
REMARK    5  A    between atoms: C_20  and  C_25
REMARK    6  A    between atoms: C_34  and  C_35
REMARK                            x       y       z     vdW  Elec       q    Type
REMARK                         _______ _______ _______ _____ _____    ______ ____
ROOT
ATOM      1  O   UNL     1     105.018 124.428 139.691  0.00  0.00    +0.000 OA
ATOM      2  O   UNL     1     103.726 122.764 140.267  0.00  0.00    +0.000 OA
ATOM      3  O   UNL     1     105.507 123.760 142.459  0.00  0.00    +0.000 OA
ATOM      4  C   UNL     1     104.291 123.364 140.310  0.00  0.00    +0.000 C 
ATOM      5  C   UNL     1     104.453 123.829 139.648  0.00  0.00    +0.000 C 
ATOM      6  C   UNL     1     104.695 123.499 141.017  0.00  0.00    +0.000 C 
ATOM      7  C   UNL     1     105.261 124.098 141.060  0.00  0.00    +0.000 A 
ATOM      8  C   UNL     1     105.422 124.562 140.398  0.00  0.00    +0.000 A 
ATOM      9  C   UNL     1     106.433 125.335 141.164  0.00  0.00    +0.000 A 
ATOM     10  C   UNL     1     106.009 125.190 140.431  0.00  0.00    +0.000 A 
ATOM     11  C   UNL     1     105.675 124.229 141.802  0.00  0.00    +0.000 A 
ATOM     12  C   UNL     1     106.265 124.852 141.854  0.00  0.00    +0.000 A 
ENDROOT
BRANCH   5  15
ATOM     13  O   UNL     1     105.187 123.003 138.422  0.00  0.00    +0.000 OA
ATOM     14  O   UNL     1     102.102 124.113 138.046  0.00  0.00    +0.000 OA
ATOM     15  C   UNL     1     104.049 123.693 138.941  0.00  0.00    +0.000 A 
ATOM     16  C   UNL     1     104.416 123.280 138.328  0.00  0.00    +0.000 A 
ATOM     17  C   UNL     1     103.278 123.971 138.847  0.00  0.00    +0.000 A 
ATOM     18  C   UNL     1     102.873 123.836 138.141  0.00  0.00    +0.000 A 
ATOM     19  C   UNL     1     104.011 123.145 137.622  0.00  0.00    +0.000 A 
ATOM     20  C   UNL     1     103.240 123.423 137.528  0.00  0.00    +0.000 A 
BRANCH  20  21
ATOM     21  C   UNL     1     102.837 123.288 136.822  0.00  0.00    +0.000 C 
BRANCH  21  22
ATOM     22  O   UNL     1     103.257 123.130 136.130  0.00  0.00    +0.000 OA
ATOM     23  C   UNL     1     102.853 122.978 135.427  0.00  0.00    +0.000 C 
ENDBRANCH  21  22
ENDBRANCH  20  21
ENDBRANCH   5  15
BRANCH   9  24
ATOM     24  O   UNL     1     106.998 125.935 141.205  0.00  0.00    +0.000 OA
BRANCH  24  32
ATOM     25  O   UNL     1     106.137 127.017 141.564  0.00  0.00    +0.000 OA
ATOM     26  O   UNL     1     107.831 127.828 143.177  0.00  0.00    +0.000 OA
ATOM     27  O   UNL     1     108.127 126.476 142.280  0.00  0.00    +0.000 OA
ATOM     28  O   UNL     1     106.406 128.640 142.999  0.00  0.00    +0.000 OA
ATOM     29  C   UNL     1     107.266 127.558 142.639  0.00  0.00    +0.000 C 
ATOM     30  C   UNL     1     107.415 126.881 142.191  0.00  0.00    +0.000 C 
ATOM     31  C   UNL     1     106.554 127.964 142.551  0.00  0.00    +0.000 C 
ATOM     32  C   UNL     1     106.850 126.611 141.654  0.00  0.00    +0.000 C 
ATOM     33  C   UNL     1     105.990 127.694 142.013  0.00  0.00    +0.000 C 
BRANCH  33  36
ATOM     34  O   UNL     1     104.636 127.918 142.411  0.00  0.00    +0.000 OA
ATOM     35  O   UNL     1     105.205 128.685 141.348  0.00  0.00    +0.000 OA
ATOM     36  C   UNL     1     105.277 128.099 141.924  0.00  0.00    +0.000 C 
ENDBRANCH  33  36
ENDBRANCH  24  32
ENDBRANCH   9  24
TORSDOF 6
ENDMDL
MODEL 2
REMARK VINA RESULT:      -9.2      6.833      7.936
REMARK  Name = 131834204
REMARK  6 active torsions:
REMARK  status: ('A' for Active; 'I' for Inactive)
REMARK    1  A    between atoms: O_2  and  C_17
REMARK    2  A    between atoms: O_2  and  C_24
REMARK    3  A    between atoms: O_13  and  C_35
REMARK    4  A    between atoms: C_18  and  C_27
REMARK    5  A    between atoms: C_20  and  C_25
REMARK    6  A    between atoms: C_34  and  C_35
REMARK                            x       y       z     vdW  Elec       q    Type
REMARK                         _______ _______ _______ _____ _____    ______ ____
ROOT
ATOM      1  O   UNL     1     110.141 128.363 136.029  0.00  0.00    +0.000 OA
ATOM      2  O   UNL     1     108.439 127.008 135.844  0.00  0.00    +0.000 OA
ATOM      3  O   UNL     1     107.714 129.914 135.808  0.00  0.00    +0.000 OA
ATOM      4  C   UNL     1     108.879 127.704 135.896  0.00  0.00    +0.000 C 
ATOM      5  C   UNL     1     109.700 127.668 135.976  0.00  0.00    +0.000 C 
ATOM      6  C   UNL     1     108.500 128.436 135.867  0.00  0.00    +0.000 C 
ATOM      7  C   UNL     1     108.941 129.131 135.919  0.00  0.00    +0.000 A 
ATOM      8  C   UNL     1     109.761 129.094 136.000  0.00  0.00    +0.000 A 
ATOM      9  C   UNL     1     109.842 130.577 136.026  0.00  0.00    +0.000 A 
ATOM     10  C   UNL     1     110.232 129.812 136.056  0.00  0.00    +0.000 A 
ATOM     11  C   UNL     1     108.534 129.887 135.889  0.00  0.00    +0.000 A 
ATOM     12  C   UNL     1     108.988 130.616 135.942  0.00  0.00    +0.000 A 
ENDROOT
BRANCH   5  15
ATOM     13  O   UNL     1     110.154 127.030 137.429  0.00  0.00    +0.000 OA
ATOM     14  O   UNL     1     110.764 125.377 134.639  0.00  0.00    +0.000 OA
ATOM     15  C   UNL     1     110.079 126.936 136.005  0.00  0.00    +0.000 A 
ATOM     16  C   UNL     1     110.306 126.617 136.731  0.00  0.00    +0.000 A 
ATOM     17  C   UNL     1     110.232 126.523 135.307  0.00  0.00    +0.000 A 
ATOM     18  C   UNL     1     110.611 125.790 135.336  0.00  0.00    +0.000 A 
ATOM     19  C   UNL     1     110.686 125.884 136.760  0.00  0.00    +0.000 A 
ATOM     20  C   UNL     1     110.838 125.471 136.062  0.00  0.00    +0.000 A 
BRANCH  20  21
ATOM     21  C   UNL     1     111.217 124.740 136.091  0.00  0.00    +0.000 C 
BRANCH  21  22
ATOM     22  O   UNL     1     111.536 124.468 136.802  0.00  0.00    +0.000 OA
ATOM     23  C   UNL     1     111.948 123.753 136.823  0.00  0.00    +0.000 C 
ENDBRANCH  21  22
ENDBRANCH  20  21
ENDBRANCH   5  15
BRANCH   9  24
ATOM     24  O   UNL     1     110.285 131.271 136.079  0.00  0.00    +0.000 OA
BRANCH  24  32
ATOM     25  O   UNL     1     110.337 131.315 137.506  0.00  0.00    +0.000 OA
ATOM     26  O   UNL     1     110.216 133.786 137.434  0.00  0.00    +0.000 OA
ATOM     27  O   UNL     1     110.205 132.919 136.031  0.00  0.00    +0.000 OA
ATOM     28  O   UNL     1     110.308 133.007 138.884  0.00  0.00    +0.000 OA
ATOM     29  C   UNL     1     110.257 132.963 137.458  0.00  0.00    +0.000 C 
ATOM     30  C   UNL     1     110.251 132.529 136.756  0.00  0.00    +0.000 C 
ATOM     31  C   UNL     1     110.303 132.574 138.183  0.00  0.00    +0.000 C 
ATOM     32  C   UNL     1     110.291 131.706 136.780  0.00  0.00    +0.000 C 
ATOM     33  C   UNL     1     110.343 131.750 138.207  0.00  0.00    +0.000 C 
BRANCH  33  36
ATOM     34  O   UNL     1     111.126 131.174 139.255  0.00  0.00    +0.000 OA
ATOM     35  O   UNL     1     109.699 131.154 139.336  0.00  0.00    +0.000 OA
ATOM     36  C   UNL     1     110.389 131.360 138.933  0.00  0.00    +0.000 C 
ENDBRANCH  33  36
ENDBRANCH  24  32
ENDBRANCH   9  24
TORSDOF 6
ENDMDL
MODEL 3
REMARK VINA RESULT:      -9.1      3.997      5.627
REMARK  Name = 131834204
REMARK  6 active torsions:
REMARK  status: ('A' for Active; 'I' for Inactive)
REMARK    1  A    between atoms: O_2  and  C_17
REMARK    2  A    between atoms: O_2  and  C_24
REMARK    3  A    between atoms: O_13  and  C_35
REMARK    4  A    between atoms: C_18  and  C_27
REMARK    5  A    between atoms: C_20  and  C_25
REMARK    6  A    between atoms: C_34  and  C_35
REMARK                            x       y       z     vdW  Elec       q    Type
REMARK                         _______ _______ _______ _____ _____    ______ ____
ROOT
ATOM      1  O   UNL     1     104.946 127.595 142.433  0.00  0.00    +0.000 OA
ATOM      2  O   UNL     1     105.890 129.329 141.502  0.00  0.00    +0.000 OA
ATOM      3  O   UNL     1     107.798 127.159 142.291  0.00  0.00    +0.000 OA
ATOM      4  C   UNL     1     105.795 128.592 141.860  0.00  0.00    +0.000 C 
ATOM      5  C   UNL     1     105.041 128.331 142.075  0.00  0.00    +0.000 C 
ATOM      6  C   UNL     1     106.452 128.115 142.005  0.00  0.00    +0.000 C 
ATOM      7  C   UNL     1     106.356 127.378 142.364  0.00  0.00    +0.000 A 
ATOM      8  C   UNL     1     105.603 127.118 142.578  0.00  0.00    +0.000 A 
ATOM      9  C   UNL     1     106.172 125.852 143.105  0.00  0.00    +0.000 A 
ATOM     10  C   UNL     1     105.490 126.352 142.952  0.00  0.00    +0.000 A 
ATOM     11  C   UNL     1     107.049 126.891 142.509  0.00  0.00    +0.000 A 
ATOM     12  C   UNL     1     106.956 126.122 142.882  0.00  0.00    +0.000 A 
ENDROOT
BRANCH   5  15
ATOM     13  O   UNL     1     104.466 129.325 143.260  0.00  0.00    +0.000 OA
ATOM     14  O   UNL     1     102.986 129.246 140.311  0.00  0.00    +0.000 OA
ATOM     15  C   UNL     1     104.384 128.808 141.930  0.00  0.00    +0.000 A 
ATOM     16  C   UNL     1     104.096 129.305 142.523  0.00  0.00    +0.000 A 
ATOM     17  C   UNL     1     104.014 128.789 141.193  0.00  0.00    +0.000 A 
ATOM     18  C   UNL     1     103.356 129.266 141.048  0.00  0.00    +0.000 A 
ATOM     19  C   UNL     1     103.439 129.782 142.378  0.00  0.00    +0.000 A 
ATOM     20  C   UNL     1     103.069 129.762 141.641  0.00  0.00    +0.000 A 
BRANCH  20  21
ATOM     21  C   UNL     1     102.412 130.239 141.497  0.00  0.00    +0.000 C 
BRANCH  21  22
ATOM     22  O   UNL     1     102.262 130.892 141.979  0.00  0.00    +0.000 OA
ATOM     23  C   UNL     1     101.623 131.388 141.815  0.00  0.00    +0.000 C 
ENDBRANCH  21  22
ENDBRANCH  20  21
ENDBRANCH   5  15
BRANCH   9  24
ATOM     24  O   UNL     1     106.073 125.115 143.464  0.00  0.00    +0.000 OA
BRANCH  24  32
ATOM     25  O   UNL     1     106.389 125.538 144.792  0.00  0.00    +0.000 OA
ATOM     26  O   UNL     1     104.694 123.976 145.693  0.00  0.00    +0.000 OA
ATOM     27  O   UNL     1     104.943 124.074 144.064  0.00  0.00    +0.000 OA
ATOM     28  O   UNL     1     105.574 124.919 146.719  0.00  0.00    +0.000 OA
ATOM     29  C   UNL     1     105.259 124.497 145.392  0.00  0.00    +0.000 C 
ATOM     30  C   UNL     1     105.383 124.545 144.578  0.00  0.00    +0.000 C 
ATOM     31  C   UNL     1     105.699 124.968 145.906  0.00  0.00    +0.000 C 
ATOM     32  C   UNL     1     105.948 125.066 144.278  0.00  0.00    +0.000 C 
ATOM     33  C   UNL     1     106.264 125.489 145.606  0.00  0.00    +0.000 C 
BRANCH  33  36
ATOM     34  O   UNL     1     106.416 126.699 146.349  0.00  0.00    +0.000 OA
ATOM     35  O   UNL     1     107.433 125.695 146.402  0.00  0.00    +0.000 OA
ATOM     36  C   UNL     1     106.705 125.961 146.119  0.00  0.00    +0.000 C 
ENDBRANCH  33  36
ENDBRANCH  24  32
ENDBRANCH   9  24
TORSDOF 6
ENDMDL
MODEL 4
REMARK VINA RESULT:      -9.0      6.664      7.802
REMARK  Name = 131834204
REMARK  6 active torsions:
REMARK  status: ('A' for Active; 'I' for Inactive)
REMARK    1  A    between atoms: O_2  and  C_17
REMARK    2  A    between atoms: O_2  and  C_24
REMARK    3  A    between atoms: O_13  and  C_35
REMARK    4  A    between atoms: C_18  and  C_27
REMARK    5  A    between atoms: C_20  and  C_25
REMARK    6  A    between atoms: C_34  and  C_35
REMARK                            x       y       z     vdW  Elec       q    Type
REMARK                         _______ _______ _______ _____ _____    ______ ____
ROOT
ATOM      1  O   UNL     1     112.343 126.519 139.233  0.00  0.00    +0.000 OA
ATOM      2  O   UNL     1     113.916 125.879 137.861  0.00  0.00    +0.000 OA
ATOM      3  O   UNL     1     114.915 126.906 140.492  0.00  0.00    +0.000 OA
ATOM      4  C   UNL     1     113.541 126.174 138.534  0.00  0.00    +0.000 C 
ATOM      5  C   UNL     1     112.718 126.225 138.559  0.00  0.00    +0.000 C 
ATOM      6  C   UNL     1     113.990 126.417 139.183  0.00  0.00    +0.000 C 
ATOM      7  C   UNL     1     113.615 126.711 139.856  0.00  0.00    +0.000 A 
ATOM      8  C   UNL     1     112.792 126.762 139.881  0.00  0.00    +0.000 A 
ATOM      9  C   UNL     1     112.851 127.322 141.256  0.00  0.00    +0.000 A 
ATOM     10  C   UNL     1     112.389 127.067 140.577  0.00  0.00    +0.000 A 
ATOM     11  C   UNL     1     114.092 126.961 140.525  0.00  0.00    +0.000 A 
ATOM     12  C   UNL     1     113.708 127.268 141.230  0.00  0.00    +0.000 A 
ENDROOT
BRANCH   5  15
ATOM     13  O   UNL     1     112.163 127.339 137.476  0.00  0.00    +0.000 OA
ATOM     14  O   UNL     1     111.480 124.139 137.047  0.00  0.00    +0.000 OA
ATOM     15  C   UNL     1     112.270 125.982 137.911  0.00  0.00    +0.000 A 
ATOM     16  C   UNL     1     111.992 126.539 137.369  0.00  0.00    +0.000 A 
ATOM     17  C   UNL     1     112.099 125.182 137.803  0.00  0.00    +0.000 A 
ATOM     18  C   UNL     1     111.651 124.939 137.155  0.00  0.00    +0.000 A 
ATOM     19  C   UNL     1     111.544 126.296 136.720  0.00  0.00    +0.000 A 
ATOM     20  C   UNL     1     111.374 125.496 136.613  0.00  0.00    +0.000 A 
BRANCH  20  21
ATOM     21  C   UNL     1     110.926 125.254 135.964  0.00  0.00    +0.000 C 
BRANCH  21  22
ATOM     22  O   UNL     1     110.603 125.815 135.453  0.00  0.00    +0.000 OA
ATOM     23  C   UNL     1     110.115 125.575 134.832  0.00  0.00    +0.000 C 
ENDBRANCH  21  22
ENDBRANCH  20  21
ENDBRANCH   5  15
BRANCH   9  24
ATOM     24  O   UNL     1     112.473 127.615 141.928  0.00  0.00    +0.000 OA
BRANCH  24  32
ATOM     25  O   UNL     1     112.638 128.997 141.604  0.00  0.00    +0.000 OA
ATOM     26  O   UNL     1     110.442 129.500 142.627  0.00  0.00    +0.000 OA
ATOM     27  O   UNL     1     111.009 127.950 142.610  0.00  0.00    +0.000 OA
ATOM     28  O   UNL     1     111.339 130.713 141.962  0.00  0.00    +0.000 OA
ATOM     29  C   UNL     1     111.174 129.332 142.286  0.00  0.00    +0.000 C 
ATOM     30  C   UNL     1     111.457 128.557 142.278  0.00  0.00    +0.000 C 
ATOM     31  C   UNL     1     111.622 129.939 141.953  0.00  0.00    +0.000 C 
ATOM     32  C   UNL     1     112.189 128.390 141.936  0.00  0.00    +0.000 C 
ATOM     33  C   UNL     1     112.354 129.772 141.612  0.00  0.00    +0.000 C 
BRANCH  33  36
ATOM     34  O   UNL     1     112.696 130.583 140.487  0.00  0.00    +0.000 OA
ATOM     35  O   UNL     1     113.359 130.780 141.738  0.00  0.00    +0.000 OA
ATOM     36  C   UNL     1     112.803 130.378 141.280  0.00  0.00    +0.000 C 
ENDBRANCH  33  36
ENDBRANCH  24  32
ENDBRANCH   9  24
TORSDOF 6
ENDMDL
MODEL 5
REMARK VINA RESULT:      -8.9      7.475      9.833
REMARK  Name = 131834204
REMARK  6 active torsions:
REMARK  status: ('A' for Active; 'I' for Inactive)
REMARK    1  A    between atoms: O_2  and  C_17
REMARK    2  A    between atoms: O_2  and  C_24
REMARK    3  A    between atoms: O_13  and  C_35
REMARK    4  A    between atoms: C_18  and  C_27
REMARK    5  A    between atoms: C_20  and  C_25
REMARK    6  A    between atoms: C_34  and  C_35
REMARK                            x       y       z     vdW  Elec       q    Type
REMARK                         _______ _______ _______ _____ _____    ______ ____
ROOT
ATOM      1  O   UNL     1     112.264 128.648 138.453  0.00  0.00    +0.000 OA
ATOM      2  O   UNL     1     113.398 130.210 139.474  0.00  0.00    +0.000 OA
ATOM      3  O   UNL     1     113.935 127.438 140.475  0.00  0.00    +0.000 OA
ATOM      4  C   UNL     1     113.110 129.465 139.266  0.00  0.00    +0.000 C 
ATOM      5  C   UNL     1     112.552 129.392 138.661  0.00  0.00    +0.000 C 
ATOM      6  C   UNL     1     113.379 128.793 139.661  0.00  0.00    +0.000 C 
ATOM      7  C   UNL     1     113.090 128.049 139.453  0.00  0.00    +0.000 A 
ATOM      8  C   UNL     1     112.533 127.977 138.848  0.00  0.00    +0.000 A 
ATOM      9  C   UNL     1     112.502 126.503 139.031  0.00  0.00    +0.000 A 
ATOM     10  C   UNL     1     112.225 127.206 138.622  0.00  0.00    +0.000 A 
ATOM     11  C   UNL     1     113.378 127.357 139.872  0.00  0.00    +0.000 A 
ATOM     12  C   UNL     1     113.082 126.578 139.659  0.00  0.00    +0.000 A 
ENDROOT
BRANCH   5  15
ATOM     13  O   UNL     1     111.094 130.055 139.058  0.00  0.00    +0.000 OA
ATOM     14  O   UNL     1     112.934 131.420 136.682  0.00  0.00    +0.000 OA
ATOM     15  C   UNL     1     112.283 130.065 138.266  0.00  0.00    +0.000 A 
ATOM     16  C   UNL     1     111.554 130.396 138.464  0.00  0.00    +0.000 A 
ATOM     17  C   UNL     1     112.743 130.406 137.672  0.00  0.00    +0.000 A 
ATOM     18  C   UNL     1     112.474 131.078 137.276  0.00  0.00    +0.000 A 
ATOM     19  C   UNL     1     111.285 131.068 138.068  0.00  0.00    +0.000 A 
ATOM     20  C   UNL     1     111.745 131.409 137.475  0.00  0.00    +0.000 A 
BRANCH  20  21
ATOM     21  C   UNL     1     111.476 132.081 137.080  0.00  0.00    +0.000 C 
BRANCH  21  22
ATOM     22  O   UNL     1     110.820 132.493 137.365  0.00  0.00    +0.000 OA
ATOM     23  C   UNL     1     110.536 133.151 136.956  0.00  0.00    +0.000 C 
ENDBRANCH  21  22
ENDBRANCH  20  21
ENDBRANCH   5  15
BRANCH   9  24
ATOM     24  O   UNL     1     112.212 125.760 138.820  0.00  0.00    +0.000 OA
BRANCH  24  32
ATOM     25  O   UNL     1     113.311 125.410 137.977  0.00  0.00    +0.000 OA
ATOM     26  O   UNL     1     111.774 124.162 136.491  0.00  0.00    +0.000 OA
ATOM     27  O   UNL     1     111.187 124.928 137.830  0.00  0.00    +0.000 OA
ATOM     28  O   UNL     1     113.384 124.228 136.143  0.00  0.00    +0.000 OA
ATOM     29  C   UNL     1     112.286 124.578 136.986  0.00  0.00    +0.000 C 
ATOM     30  C   UNL     1     111.992 124.961 137.656  0.00  0.00    +0.000 C 
ATOM     31  C   UNL     1     113.091 124.611 136.812  0.00  0.00    +0.000 C 
ATOM     32  C   UNL     1     112.504 125.377 138.151  0.00  0.00    +0.000 C 
ATOM     33  C   UNL     1     113.603 125.027 137.307  0.00  0.00    +0.000 C 
BRANCH  33  36
ATOM     34  O   UNL     1     114.927 124.515 137.475  0.00  0.00    +0.000 OA
ATOM     35  O   UNL     1     114.697 125.637 136.619  0.00  0.00    +0.000 OA
ATOM     36  C   UNL     1     114.409 125.060 137.134  0.00  0.00    +0.000 C 
ENDBRANCH  33  36
ENDBRANCH  24  32
ENDBRANCH   9  24
TORSDOF 6
ENDMDL
MODEL 6
REMARK VINA RESULT:      -8.9      7.590      9.005
REMARK  Name = 131834204
REMARK  6 active torsions:
REMARK  status: ('A' for Active; 'I' for Inactive)
REMARK    1  A    between atoms: O_2  and  C_17
REMARK    2  A    between atoms: O_2  and  C_24
REMARK    3  A    between atoms: O_13  and  C_35
REMARK    4  A    between atoms: C_18  and  C_27
REMARK    5  A    between atoms: C_20  and  C_25
REMARK    6  A    between atoms: C_34  and  C_35
REMARK                            x       y       z     vdW  Elec       q    Type
REMARK                         _______ _______ _______ _____ _____    ______ ____
ROOT
ATOM      1  O   UNL     1     112.313 128.523 137.328  0.00  0.00    +0.000 OA
ATOM      2  O   UNL     1     113.679 127.913 135.737  0.00  0.00    +0.000 OA
ATOM      3  O   UNL     1     113.930 130.786 136.547  0.00  0.00    +0.000 OA
ATOM      4  C   UNL     1     113.293 128.381 136.296  0.00  0.00    +0.000 C 
ATOM      5  C   UNL     1     112.699 128.055 136.769  0.00  0.00    +0.000 C 
ATOM      6  C   UNL     1     113.499 129.175 136.383  0.00  0.00    +0.000 C 
ATOM      7  C   UNL     1     113.112 129.643 136.942  0.00  0.00    +0.000 A 
ATOM      8  C   UNL     1     112.520 129.316 137.414  0.00  0.00    +0.000 A 
ATOM      9  C   UNL     1     112.321 130.621 138.095  0.00  0.00    +0.000 A 
ATOM     10  C   UNL     1     112.110 129.794 138.000  0.00  0.00    +0.000 A 
ATOM     11  C   UNL     1     113.337 130.468 137.023  0.00  0.00    +0.000 A 
ATOM     12  C   UNL     1     112.938 130.961 137.604  0.00  0.00    +0.000 A 
ENDROOT
BRANCH   5  15
ATOM     13  O   UNL     1     113.362 126.917 137.762  0.00  0.00    +0.000 OA
ATOM     14  O   UNL     1     111.211 126.016 135.427  0.00  0.00    +0.000 OA
ATOM     15  C   UNL     1     112.493 127.261 136.681  0.00  0.00    +0.000 A 
ATOM     16  C   UNL     1     112.824 126.692 137.178  0.00  0.00    +0.000 A 
ATOM     17  C   UNL     1     111.955 127.036 136.098  0.00  0.00    +0.000 A 
ATOM     18  C   UNL     1     111.748 126.242 136.011  0.00  0.00    +0.000 A 
ATOM     19  C   UNL     1     112.618 125.898 137.091  0.00  0.00    +0.000 A 
ATOM     20  C   UNL     1     112.080 125.673 136.507  0.00  0.00    +0.000 A 
BRANCH  20  21
ATOM     21  C   UNL     1     111.874 124.879 136.421  0.00  0.00    +0.000 C 
BRANCH  21  22
ATOM     22  O   UNL     1     112.153 124.319 136.959  0.00  0.00    +0.000 OA
ATOM     23  C   UNL     1     111.960 123.523 136.862  0.00  0.00    +0.000 C 
ENDBRANCH  21  22
ENDBRANCH  20  21
ENDBRANCH   5  15
BRANCH   9  24
ATOM     24  O   UNL     1     111.933 131.087 138.655  0.00  0.00    +0.000 OA
BRANCH  24  32
ATOM     25  O   UNL     1     111.124 131.863 137.768  0.00  0.00    +0.000 OA
ATOM     26  O   UNL     1     109.208 131.639 139.319  0.00  0.00    +0.000 OA
ATOM     27  O   UNL     1     110.655 130.938 139.689  0.00  0.00    +0.000 OA
ATOM     28  O   UNL     1     109.039 132.489 137.916  0.00  0.00    +0.000 OA
ATOM     29  C   UNL     1     109.847 131.714 138.802  0.00  0.00    +0.000 C 
ATOM     30  C   UNL     1     110.570 131.363 138.988  0.00  0.00    +0.000 C 
ATOM     31  C   UNL     1     109.762 132.139 138.101  0.00  0.00    +0.000 C 
ATOM     32  C   UNL     1     111.209 131.437 138.471  0.00  0.00    +0.000 C 
ATOM     33  C   UNL     1     110.400 132.213 137.584  0.00  0.00    +0.000 C 
BRANCH  33  36
ATOM     34  O   UNL     1     110.031 132.262 136.204  0.00  0.00    +0.000 OA
ATOM     35  O   UNL     1     110.517 133.438 136.857  0.00  0.00    +0.000 OA
ATOM     36  C   UNL     1     110.316 132.638 136.882  0.00  0.00    +0.000 C 
ENDBRANCH  33  36
ENDBRANCH  24  32
ENDBRANCH   9  24
TORSDOF 6
ENDMDL
MODEL 7
REMARK VINA RESULT:      -8.9      2.100      3.311
REMARK  Name = 131834204
REMARK  6 active torsions:
REMARK  status: ('A' for Active; 'I' for Inactive)
REMARK    1  A    between atoms: O_2  and  C_17
REMARK    2  A    between atoms: O_2  and  C_24
REMARK    3  A    between atoms: O_13  and  C_35
REMARK    4  A    between atoms: C_18  and  C_27
REMARK    5  A    between atoms: C_20  and  C_25
REMARK    6  A    between atoms: C_34  and  C_35
REMARK                            x       y       z     vdW  Elec       q    Type
REMARK                         _______ _______ _______ _____ _____    ______ ____
ROOT
ATOM      1  O   UNL     1     105.555 125.622 141.479  0.00  0.00    +0.000 OA
ATOM      2  O   UNL     1     106.898 124.960 139.890  0.00  0.00    +0.000 OA
ATOM      3  O   UNL     1     108.227 126.562 142.044  0.00  0.00    +0.000 OA
ATOM      4  C   UNL     1     106.625 125.318 140.582  0.00  0.00    +0.000 C 
ATOM      5  C   UNL     1     105.828 125.264 140.788  0.00  0.00    +0.000 C 
ATOM      6  C   UNL     1     107.149 125.730 141.068  0.00  0.00    +0.000 C 
ATOM      7  C   UNL     1     106.876 126.088 141.759  0.00  0.00    +0.000 A 
ATOM      8  C   UNL     1     106.079 126.033 141.965  0.00  0.00    +0.000 A 
ATOM      9  C   UNL     1     106.324 126.833 143.193  0.00  0.00    +0.000 A 
ATOM     10  C   UNL     1     105.783 126.402 142.683  0.00  0.00    +0.000 A 
ATOM     11  C   UNL     1     107.432 126.513 142.257  0.00  0.00    +0.000 A 
ATOM     12  C   UNL     1     107.154 126.889 142.979  0.00  0.00    +0.000 A 
ENDROOT
BRANCH   5  15
ATOM     13  O   UNL     1     104.771 126.090 139.827  0.00  0.00    +0.000 OA
ATOM     14  O   UNL     1     104.787 122.790 139.804  0.00  0.00    +0.000 OA
ATOM     15  C   UNL     1     105.304 124.852 140.302  0.00  0.00    +0.000 A 
ATOM     16  C   UNL     1     104.775 125.265 139.821  0.00  0.00    +0.000 A 
ATOM     17  C   UNL     1     105.308 124.027 140.296  0.00  0.00    +0.000 A 
ATOM     18  C   UNL     1     104.784 123.615 139.810  0.00  0.00    +0.000 A 
ATOM     19  C   UNL     1     104.251 124.853 139.335  0.00  0.00    +0.000 A 
ATOM     20  C   UNL     1     104.255 124.028 139.330  0.00  0.00    +0.000 A 
BRANCH  20  21
ATOM     21  C   UNL     1     103.731 123.617 138.844  0.00  0.00    +0.000 C 
BRANCH  21  22
ATOM     22  O   UNL     1     103.014 123.962 138.624  0.00  0.00    +0.000 OA
ATOM     23  C   UNL     1     102.534 123.593 138.064  0.00  0.00    +0.000 C 
ENDBRANCH  21  22
ENDBRANCH  20  21
ENDBRANCH   5  15
BRANCH   9  24
ATOM     24  O   UNL     1     106.048 127.189 143.883  0.00  0.00    +0.000 OA
BRANCH  24  32
ATOM     25  O   UNL     1     105.957 126.016 144.694  0.00  0.00    +0.000 OA
ATOM     26  O   UNL     1     106.840 127.283 146.628  0.00  0.00    +0.000 OA
ATOM     27  O   UNL     1     106.637 128.034 145.173  0.00  0.00    +0.000 OA
ATOM     28  O   UNL     1     106.454 125.688 146.793  0.00  0.00    +0.000 OA
ATOM     29  C   UNL     1     106.546 126.860 145.983  0.00  0.00    +0.000 C 
ATOM     30  C   UNL     1     106.445 127.237 145.256  0.00  0.00    +0.000 C 
ATOM     31  C   UNL     1     106.353 126.063 146.066  0.00  0.00    +0.000 C 
ATOM     32  C   UNL     1     106.150 126.814 144.611  0.00  0.00    +0.000 C 
ATOM     33  C   UNL     1     106.059 125.641 145.421  0.00  0.00    +0.000 C 
BRANCH  33  36
ATOM     34  O   UNL     1     105.099 124.625 145.719  0.00  0.00    +0.000 OA
ATOM     35  O   UNL     1     106.438 124.264 145.370  0.00  0.00    +0.000 OA
ATOM     36  C   UNL     1     105.866 124.843 145.503  0.00  0.00    +0.000 C 
ENDBRANCH  33  36
ENDBRANCH  24  32
ENDBRANCH   9  24
TORSDOF 6
ENDMDL
MODEL 8
REMARK VINA RESULT:      -8.8      7.760     10.536
REMARK  Name = 131834204
REMARK  6 active torsions:
REMARK  status: ('A' for Active; 'I' for Inactive)
REMARK    1  A    between atoms: O_2  and  C_17
REMARK    2  A    between atoms: O_2  and  C_24
REMARK    3  A    between atoms: O_13  and  C_35
REMARK    4  A    between atoms: C_18  and  C_27
REMARK    5  A    between atoms: C_20  and  C_25
REMARK    6  A    between atoms: C_34  and  C_35
REMARK                            x       y       z     vdW  Elec       q    Type
REMARK                         _______ _______ _______ _____ _____    ______ ____
ROOT
ATOM      1  O   UNL     1     112.744 128.604 138.260  0.00  0.00    +0.000 OA
ATOM      2  O   UNL     1     113.880 130.462 138.110  0.00  0.00    +0.000 OA
ATOM      3  O   UNL     1     113.605 128.971 135.527  0.00  0.00    +0.000 OA
ATOM      4  C   UNL     1     113.511 129.755 137.899  0.00  0.00    +0.000 C 
ATOM      5  C   UNL     1     113.113 129.311 138.470  0.00  0.00    +0.000 C 
ATOM      6  C   UNL     1     113.539 129.492 137.118  0.00  0.00    +0.000 C 
ATOM      7  C   UNL     1     113.169 128.785 136.908  0.00  0.00    +0.000 A 
ATOM      8  C   UNL     1     112.772 128.342 137.479  0.00  0.00    +0.000 A 
ATOM      9  C   UNL     1     112.408 127.324 136.459  0.00  0.00    +0.000 A 
ATOM     10  C   UNL     1     112.383 127.603 137.272  0.00  0.00    +0.000 A 
ATOM     11  C   UNL     1     113.205 128.522 136.091  0.00  0.00    +0.000 A 
ATOM     12  C   UNL     1     112.822 127.786 135.865  0.00  0.00    +0.000 A 
ENDROOT
BRANCH   5  15
ATOM     13  O   UNL     1     111.784 130.118 139.022  0.00  0.00    +0.000 OA
ATOM     14  O   UNL     1     114.331 129.559 141.044  0.00  0.00    +0.000 OA
ATOM     15  C   UNL     1     113.085 129.575 139.251  0.00  0.00    +0.000 A 
ATOM     16  C   UNL     1     112.421 129.978 139.527  0.00  0.00    +0.000 A 
ATOM     17  C   UNL     1     113.722 129.435 139.757  0.00  0.00    +0.000 A 
ATOM     18  C   UNL     1     113.695 129.698 140.538  0.00  0.00    +0.000 A 
ATOM     19  C   UNL     1     112.393 130.241 140.309  0.00  0.00    +0.000 A 
ATOM     20  C   UNL     1     113.030 130.102 140.814  0.00  0.00    +0.000 A 
BRANCH  20  21
ATOM     21  C   UNL     1     113.001 130.365 141.595  0.00  0.00    +0.000 C 
BRANCH  21  22
ATOM     22  O   UNL     1     112.471 130.959 141.812  0.00  0.00    +0.000 OA
ATOM     23  C   UNL     1     112.396 131.176 142.604  0.00  0.00    +0.000 C 
ENDBRANCH  21  22
ENDBRANCH  20  21
ENDBRANCH   5  15
BRANCH   9  24
ATOM     24  O   UNL     1     112.038 126.617 136.252  0.00  0.00    +0.000 OA
BRANCH  24  32
ATOM     25  O   UNL     1     113.209 125.831 136.479  0.00  0.00    +0.000 OA
ATOM     26  O   UNL     1     111.793 123.860 136.964  0.00  0.00    +0.000 OA
ATOM     27  O   UNL     1     111.094 125.303 136.575  0.00  0.00    +0.000 OA
ATOM     28  O   UNL     1     113.436 123.731 137.030  0.00  0.00    +0.000 OA
ATOM     29  C   UNL     1     112.265 124.517 136.803  0.00  0.00    +0.000 C 
ATOM     30  C   UNL     1     111.915 125.238 136.608  0.00  0.00    +0.000 C 
ATOM     31  C   UNL     1     113.086 124.452 136.836  0.00  0.00    +0.000 C 
ATOM     32  C   UNL     1     112.387 125.895 136.446  0.00  0.00    +0.000 C 
ATOM     33  C   UNL     1     113.558 125.109 136.674  0.00  0.00    +0.000 C 
BRANCH  33  36
ATOM     34  O   UNL     1     114.768 125.092 137.434  0.00  0.00    +0.000 OA
ATOM     35  O   UNL     1     114.814 124.934 136.014  0.00  0.00    +0.000 OA
ATOM     36  C   UNL     1     114.380 125.045 136.707  0.00  0.00    +0.000 C 
ENDBRANCH  33  36
ENDBRANCH  24  32
ENDBRANCH   9  24
TORSDOF 6
ENDMDL
MODEL 9
REMARK VINA RESULT:      -8.8      6.993      8.257
REMARK  Name = 131834204
REMARK  6 active torsions:
REMARK  status: ('A' for Active; 'I' for Inactive)
REMARK    1  A    between atoms: O_2  and  C_17
REMARK    2  A    between atoms: O_2  and  C_24
REMARK    3  A    between atoms: O_13  and  C_35
REMARK    4  A    between atoms: C_18  and  C_27
REMARK    5  A    between atoms: C_20  and  C_25
REMARK    6  A    between atoms: C_34  and  C_35
REMARK                            x       y       z     vdW  Elec       q    Type
REMARK                         _______ _______ _______ _____ _____    ______ ____
ROOT
ATOM      1  O   UNL     1     110.549 127.953 136.616  0.00  0.00    +0.000 OA
ATOM      2  O   UNL     1     111.196 127.373 134.613  0.00  0.00    +0.000 OA
ATOM      3  O   UNL     1     109.221 129.624 134.669  0.00  0.00    +0.000 OA
ATOM      4  C   UNL     1     110.805 127.770 135.221  0.00  0.00    +0.000 C 
ATOM      5  C   UNL     1     110.939 127.556 136.007  0.00  0.00    +0.000 C 
ATOM      6  C   UNL     1     110.282 128.383 135.045  0.00  0.00    +0.000 C 
ATOM      7  C   UNL     1     109.891 128.780 135.653  0.00  0.00    +0.000 A 
ATOM      8  C   UNL     1     110.025 128.565 136.438  0.00  0.00    +0.000 A 
ATOM      9  C   UNL     1     109.078 129.611 136.903  0.00  0.00    +0.000 A 
ATOM     10  C   UNL     1     109.625 128.972 137.082  0.00  0.00    +0.000 A 
ATOM     11  C   UNL     1     109.349 129.416 135.456  0.00  0.00    +0.000 A 
ATOM     12  C   UNL     1     108.939 129.834 136.086  0.00  0.00    +0.000 A 
ENDROOT
BRANCH   5  15
ATOM     13  O   UNL     1     112.489 127.899 136.455  0.00  0.00    +0.000 OA
ATOM     14  O   UNL     1     111.485 124.762 136.266  0.00  0.00    +0.000 OA
ATOM     15  C   UNL     1     111.463 126.943 136.184  0.00  0.00    +0.000 A 
ATOM     16  C   UNL     1     112.238 127.115 136.407  0.00  0.00    +0.000 A 
ATOM     17  C   UNL     1     111.211 126.159 136.136  0.00  0.00    +0.000 A 
ATOM     18  C   UNL     1     111.735 125.546 136.313  0.00  0.00    +0.000 A 
ATOM     19  C   UNL     1     112.762 126.503 136.584  0.00  0.00    +0.000 A 
ATOM     20  C   UNL     1     112.510 125.718 136.537  0.00  0.00    +0.000 A 
BRANCH  20  21
ATOM     21  C   UNL     1     113.035 125.107 136.713  0.00  0.00    +0.000 C 
BRANCH  21  22
ATOM     22  O   UNL     1     113.821 125.277 136.898  0.00  0.00    +0.000 OA
ATOM     23  C   UNL     1     114.319 124.678 137.169  0.00  0.00    +0.000 C 
ENDBRANCH  21  22
ENDBRANCH  20  21
ENDBRANCH   5  15
BRANCH   9  24
ATOM     24  O   UNL     1     108.689 130.006 137.514  0.00  0.00    +0.000 OA
BRANCH  24  32
ATOM     25  O   UNL     1     109.560 131.139 137.552  0.00  0.00    +0.000 OA
ATOM     26  O   UNL     1     109.307 131.251 140.011  0.00  0.00    +0.000 OA
ATOM     27  O   UNL     1     108.520 130.081 139.154  0.00  0.00    +0.000 OA
ATOM     28  O   UNL     1     110.262 132.345 139.230  0.00  0.00    +0.000 OA
ATOM     29  C   UNL     1     109.391 131.213 139.192  0.00  0.00    +0.000 C 
ATOM     30  C   UNL     1     108.998 130.628 138.763  0.00  0.00    +0.000 C 
ATOM     31  C   UNL     1     109.869 131.760 138.801  0.00  0.00    +0.000 C 
ATOM     32  C   UNL     1     109.082 130.591 137.943  0.00  0.00    +0.000 C 
ATOM     33  C   UNL     1     109.953 131.723 137.981  0.00  0.00    +0.000 C 
BRANCH  33  36
ATOM     34  O   UNL     1     110.099 132.961 137.282  0.00  0.00    +0.000 OA
ATOM     35  O   UNL     1     111.239 132.127 137.506  0.00  0.00    +0.000 OA
ATOM     36  C   UNL     1     110.430 132.270 137.590  0.00  0.00    +0.000 C 
ENDBRANCH  33  36
ENDBRANCH  24  32
ENDBRANCH   9  24
TORSDOF 6
ENDMDL
MODEL 10
REMARK VINA RESULT:      -8.7      4.184      6.533
REMARK  Name = 131834204
REMARK  6 active torsions:
REMARK  status: ('A' for Active; 'I' for Inactive)
REMARK    1  A    between atoms: O_2  and  C_17
REMARK    2  A    between atoms: O_2  and  C_24
REMARK    3  A    between atoms: O_13  and  C_35
REMARK    4  A    between atoms: C_18  and  C_27
REMARK    5  A    between atoms: C_20  and  C_25
REMARK    6  A    between atoms: C_34  and  C_35
REMARK                            x       y       z     vdW  Elec       q    Type
REMARK                         _______ _______ _______ _____ _____    ______ ____
ROOT
ATOM      1  O   UNL     1     104.534 125.478 145.837  0.00  0.00    +0.000 OA
ATOM      2  O   UNL     1     105.260 124.201 147.453  0.00  0.00    +0.000 OA
ATOM      3  O   UNL     1     107.379 125.871 146.152  0.00  0.00    +0.000 OA
ATOM      4  C   UNL     1     105.251 124.751 146.838  0.00  0.00    +0.000 C 
ATOM      5  C   UNL     1     104.543 124.929 146.453  0.00  0.00    +0.000 C 
ATOM      6  C   UNL     1     105.950 125.124 146.608  0.00  0.00    +0.000 C 
ATOM      7  C   UNL     1     105.941 125.673 145.993  0.00  0.00    +0.000 A 
ATOM      8  C   UNL     1     105.233 125.850 145.608  0.00  0.00    +0.000 A 
ATOM      9  C   UNL     1     105.937 126.813 144.721  0.00  0.00    +0.000 A 
ATOM     10  C   UNL     1     105.211 126.422 144.965  0.00  0.00    +0.000 A 
ATOM     11  C   UNL     1     106.676 126.054 145.762  0.00  0.00    +0.000 A 
ATOM     12  C   UNL     1     106.673 126.628 145.122  0.00  0.00    +0.000 A 
ENDROOT
BRANCH   5  15
ATOM     13  O   UNL     1     103.573 125.626 147.590  0.00  0.00    +0.000 OA
ATOM     14  O   UNL     1     102.716 122.741 146.237  0.00  0.00    +0.000 OA
ATOM     15  C   UNL     1     103.844 124.556 146.683  0.00  0.00    +0.000 A 
ATOM     16  C   UNL     1     103.359 124.905 147.252  0.00  0.00    +0.000 A 
ATOM     17  C   UNL     1     103.630 123.835 146.345  0.00  0.00    +0.000 A 
ATOM     18  C   UNL     1     102.931 123.462 146.575  0.00  0.00    +0.000 A 
ATOM     19  C   UNL     1     102.659 124.532 147.482  0.00  0.00    +0.000 A 
ATOM     20  C   UNL     1     102.446 123.811 147.144  0.00  0.00    +0.000 A 
BRANCH  20  21
ATOM     21  C   UNL     1     101.747 123.439 147.375  0.00  0.00    +0.000 C 
BRANCH  21  22
ATOM     22  O   UNL     1     101.354 123.685 148.057  0.00  0.00    +0.000 OA
ATOM     23  C   UNL     1     100.710 123.253 148.340  0.00  0.00    +0.000 C 
ENDBRANCH  21  22
ENDBRANCH  20  21
ENDBRANCH   5  15
BRANCH   9  24
ATOM     24  O   UNL     1     105.925 127.362 144.106  0.00  0.00    +0.000 OA
BRANCH  24  32
ATOM     25  O   UNL     1     106.463 126.517 143.086  0.00  0.00    +0.000 OA
ATOM     26  O   UNL     1     104.897 127.503 141.443  0.00  0.00    +0.000 OA
ATOM     27  O   UNL     1     104.881 128.019 143.010  0.00  0.00    +0.000 OA
ATOM     28  O   UNL     1     105.957 126.330 140.972  0.00  0.00    +0.000 OA
ATOM     29  C   UNL     1     105.419 127.174 141.991  0.00  0.00    +0.000 C 
ATOM     30  C   UNL     1     105.410 127.433 142.774  0.00  0.00    +0.000 C 
ATOM     31  C   UNL     1     105.949 126.588 141.755  0.00  0.00    +0.000 C 
ATOM     32  C   UNL     1     105.933 127.104 143.322  0.00  0.00    +0.000 C 
ATOM     33  C   UNL     1     106.471 126.260 142.303  0.00  0.00    +0.000 C 
BRANCH  33  36
ATOM     34  O   UNL     1     106.775 124.880 142.090  0.00  0.00    +0.000 OA
ATOM     35  O   UNL     1     107.758 125.880 141.811  0.00  0.00    +0.000 OA
ATOM     36  C   UNL     1     107.002 125.674 142.068  0.00  0.00    +0.000 C 
ENDBRANCH  33  36
ENDBRANCH  24  32
ENDBRANCH   9  24
TORSDOF 6
ENDMDL
