MODEL 1
REMARK VINA RESULT:      -7.8      0.000      0.000
REMARK  Name = 10495608
REMARK  4 active torsions:
REMARK  status: ('A' for Active; 'I' for Inactive)
REMARK    1  A    between atoms: O_2  and  C_12
REMARK    2  A    between atoms: O_3  and  C_17
REMARK    3  A    between atoms: O_4  and  C_18
REMARK    4  A    between atoms: C_6  and  C_11
REMARK                            x       y       z     vdW  Elec       q    Type
REMARK                         _______ _______ _______ _____ _____    ______ ____
ROOT
ATOM      1  O   UNL     1     105.107 124.238 146.953  0.00  0.00    +0.000 OA
ATOM      2  C   UNL     1     105.393 124.834 147.449  0.00  0.00    +0.000 C 
ATOM      3  C   UNL     1     104.865 125.305 147.874  0.00  0.00    +0.000 C 
ATOM      4  C   UNL     1     104.053 125.180 147.804  0.00  0.00    +0.000 C 
ATOM      5  C   UNL     1     103.767 124.586 147.309  0.00  0.00    +0.000 A 
ATOM      6  C   UNL     1     104.295 124.115 146.884  0.00  0.00    +0.000 A 
ATOM      7  C   UNL     1     102.918 124.466 147.244  0.00  0.00    +0.000 A 
ATOM      8  C   UNL     1     104.010 123.492 146.364  0.00  0.00    +0.000 A 
ATOM      9  C   UNL     1     102.616 123.848 146.730  0.00  0.00    +0.000 A 
ATOM     10  C   UNL     1     103.165 123.358 146.287  0.00  0.00    +0.000 A 
ENDROOT
BRANCH   2  12
ATOM     11  O   UNL     1     108.644 125.329 147.726  0.00  0.00    +0.000 OA
ATOM     12  C   UNL     1     106.205 124.957 147.519  0.00  0.00    +0.000 A 
ATOM     13  C   UNL     1     106.621 124.625 148.150  0.00  0.00    +0.000 A 
ATOM     14  C   UNL     1     106.603 125.413 146.957  0.00  0.00    +0.000 A 
ATOM     15  C   UNL     1     107.434 124.750 148.219  0.00  0.00    +0.000 A 
ATOM     16  C   UNL     1     107.415 125.537 147.027  0.00  0.00    +0.000 A 
ATOM     17  C   UNL     1     107.831 125.205 147.658  0.00  0.00    +0.000 A 
BRANCH  15  18
ATOM     18  O   UNL     1     107.849 124.418 148.849  0.00  0.00    +0.000 OA
ATOM     19  C   UNL     1     107.471 124.293 149.573  0.00  0.00    +0.000 C 
ENDBRANCH  15  18
ENDBRANCH   2  12
BRANCH   7  20
ATOM     20  O   UNL     1     102.399 124.942 147.673  0.00  0.00    +0.000 OA
ATOM     21  C   UNL     1     101.584 124.842 147.590  0.00  0.00    +0.000 C 
ENDBRANCH   7  20
BRANCH  10  22
ATOM     22  O   UNL     1     102.882 122.763 145.791  0.00  0.00    +0.000 OA
ATOM     23  C   UNL     1     103.114 122.739 145.000  0.00  0.00    +0.000 C 
ENDBRANCH  10  22
TORSDOF 4
ENDMDL
MODEL 2
REMARK VINA RESULT:      -7.5     12.954     13.807
REMARK  Name = 10495608
REMARK  4 active torsions:
REMARK  status: ('A' for Active; 'I' for Inactive)
REMARK    1  A    between atoms: O_2  and  C_12
REMARK    2  A    between atoms: O_3  and  C_17
REMARK    3  A    between atoms: O_4  and  C_18
REMARK    4  A    between atoms: C_6  and  C_11
REMARK                            x       y       z     vdW  Elec       q    Type
REMARK                         _______ _______ _______ _____ _____    ______ ____
ROOT
ATOM      1  O   UNL     1     112.289 127.303 136.003  0.00  0.00    +0.000 OA
ATOM      2  C   UNL     1     113.037 127.433 136.327  0.00  0.00    +0.000 C 
ATOM      3  C   UNL     1     113.455 126.806 136.663  0.00  0.00    +0.000 C 
ATOM      4  C   UNL     1     113.125 126.050 136.675  0.00  0.00    +0.000 C 
ATOM      5  C   UNL     1     112.378 125.920 136.352  0.00  0.00    +0.000 A 
ATOM      6  C   UNL     1     111.959 126.547 136.016  0.00  0.00    +0.000 A 
ATOM      7  C   UNL     1     112.045 125.128 136.371  0.00  0.00    +0.000 A 
ATOM      8  C   UNL     1     111.180 126.425 135.675  0.00  0.00    +0.000 A 
ATOM      9  C   UNL     1     111.266 124.987 136.035  0.00  0.00    +0.000 A 
ATOM     10  C   UNL     1     110.831 125.640 135.685  0.00  0.00    +0.000 A 
ENDROOT
BRANCH   2  12
ATOM     11  O   UNL     1     114.355 130.458 136.274  0.00  0.00    +0.000 OA
ATOM     12  C   UNL     1     113.366 128.189 136.315  0.00  0.00    +0.000 A 
ATOM     13  C   UNL     1     113.206 128.719 136.926  0.00  0.00    +0.000 A 
ATOM     14  C   UNL     1     113.856 128.415 135.690  0.00  0.00    +0.000 A 
ATOM     15  C   UNL     1     113.535 129.476 136.912  0.00  0.00    +0.000 A 
ATOM     16  C   UNL     1     114.185 129.171 135.677  0.00  0.00    +0.000 A 
ATOM     17  C   UNL     1     114.025 129.701 136.288  0.00  0.00    +0.000 A 
BRANCH  15  18
ATOM     18  O   UNL     1     113.375 130.006 137.523  0.00  0.00    +0.000 OA
ATOM     19  C   UNL     1     112.619 130.039 137.854  0.00  0.00    +0.000 C 
ENDBRANCH  15  18
ENDBRANCH   2  12
BRANCH   7  20
ATOM     20  O   UNL     1     112.470 124.507 136.709  0.00  0.00    +0.000 OA
ATOM     21  C   UNL     1     112.122 123.763 136.788  0.00  0.00    +0.000 C 
ENDBRANCH   7  20
BRANCH  10  22
ATOM     22  O   UNL     1     110.083 125.513 135.361  0.00  0.00    +0.000 OA
ATOM     23  C   UNL     1     109.893 125.833 134.625  0.00  0.00    +0.000 C 
ENDBRANCH  10  22
TORSDOF 4
ENDMDL
MODEL 3
REMARK VINA RESULT:      -7.4      0.838      1.881
REMARK  Name = 10495608
REMARK  4 active torsions:
REMARK  status: ('A' for Active; 'I' for Inactive)
REMARK    1  A    between atoms: O_2  and  C_12
REMARK    2  A    between atoms: O_3  and  C_17
REMARK    3  A    between atoms: O_4  and  C_18
REMARK    4  A    between atoms: C_6  and  C_11
REMARK                            x       y       z     vdW  Elec       q    Type
REMARK                         _______ _______ _______ _____ _____    ______ ____
ROOT
ATOM      1  O   UNL     1     104.219 125.024 147.449  0.00  0.00    +0.000 OA
ATOM      2  C   UNL     1     104.788 124.693 146.951  0.00  0.00    +0.000 C 
ATOM      3  C   UNL     1     104.560 124.180 146.347  0.00  0.00    +0.000 C 
ATOM      4  C   UNL     1     103.763 123.998 146.241  0.00  0.00    +0.000 C 
ATOM      5  C   UNL     1     103.194 124.328 146.737  0.00  0.00    +0.000 A 
ATOM      6  C   UNL     1     103.422 124.841 147.342  0.00  0.00    +0.000 A 
ATOM      7  C   UNL     1     102.366 124.130 146.616  0.00  0.00    +0.000 A 
ATOM      8  C   UNL     1     102.838 125.192 147.866  0.00  0.00    +0.000 A 
ATOM      9  C   UNL     1     101.769 124.471 147.131  0.00  0.00    +0.000 A 
ATOM     10  C   UNL     1     102.006 125.006 147.760  0.00  0.00    +0.000 A 
ENDROOT
BRANCH   2  12
ATOM     11  O   UNL     1     107.977 125.426 147.379  0.00  0.00    +0.000 OA
ATOM     12  C   UNL     1     105.586 124.876 147.059  0.00  0.00    +0.000 A 
ATOM     13  C   UNL     1     105.987 124.599 147.724  0.00  0.00    +0.000 A 
ATOM     14  C   UNL     1     105.982 125.337 146.500  0.00  0.00    +0.000 A 
ATOM     15  C   UNL     1     106.784 124.783 147.831  0.00  0.00    +0.000 A 
ATOM     16  C   UNL     1     106.779 125.520 146.607  0.00  0.00    +0.000 A 
ATOM     17  C   UNL     1     107.180 125.243 147.273  0.00  0.00    +0.000 A 
BRANCH  15  18
ATOM     18  O   UNL     1     107.186 124.505 148.496  0.00  0.00    +0.000 OA
ATOM     19  C   UNL     1     106.772 124.355 149.195  0.00  0.00    +0.000 C 
ENDBRANCH  15  18
ENDBRANCH   2  12
BRANCH   7  20
ATOM     20  O   UNL     1     102.147 123.616 146.009  0.00  0.00    +0.000 OA
ATOM     21  C   UNL     1     101.350 123.441 145.884  0.00  0.00    +0.000 C 
ENDBRANCH   7  20
BRANCH  10  22
ATOM     22  O   UNL     1     101.439 125.338 148.258  0.00  0.00    +0.000 OA
ATOM     23  C   UNL     1     101.366 125.072 149.036  0.00  0.00    +0.000 C 
ENDBRANCH  10  22
TORSDOF 4
ENDMDL
MODEL 4
REMARK VINA RESULT:      -7.4      0.907      4.604
REMARK  Name = 10495608
REMARK  4 active torsions:
REMARK  status: ('A' for Active; 'I' for Inactive)
REMARK    1  A    between atoms: O_2  and  C_12
REMARK    2  A    between atoms: O_3  and  C_17
REMARK    3  A    between atoms: O_4  and  C_18
REMARK    4  A    between atoms: C_6  and  C_11
REMARK                            x       y       z     vdW  Elec       q    Type
REMARK                         _______ _______ _______ _____ _____    ______ ____
ROOT
ATOM      1  O   UNL     1     104.918 124.275 147.270  0.00  0.00    +0.000 OA
ATOM      2  C   UNL     1     104.561 124.363 146.530  0.00  0.00    +0.000 C 
ATOM      3  C   UNL     1     104.902 124.857 145.964  0.00  0.00    +0.000 C 
ATOM      4  C   UNL     1     105.600 125.262 146.137  0.00  0.00    +0.000 C 
ATOM      5  C   UNL     1     105.957 125.174 146.875  0.00  0.00    +0.000 A 
ATOM      6  C   UNL     1     105.616 124.680 147.441  0.00  0.00    +0.000 A 
ATOM      7  C   UNL     1     106.684 125.601 147.042  0.00  0.00    +0.000 A 
ATOM      8  C   UNL     1     105.978 124.580 148.214  0.00  0.00    +0.000 A 
ATOM      9  C   UNL     1     107.060 125.513 147.810  0.00  0.00    +0.000 A 
ATOM     10  C   UNL     1     106.705 124.999 148.399  0.00  0.00    +0.000 A 
ENDROOT
BRANCH   2  12
ATOM     11  O   UNL     1     101.772 122.739 145.843  0.00  0.00    +0.000 OA
ATOM     12  C   UNL     1     103.864 123.958 146.359  0.00  0.00    +0.000 A 
ATOM     13  C   UNL     1     103.139 124.258 146.613  0.00  0.00    +0.000 A 
ATOM     14  C   UNL     1     103.892 123.251 145.933  0.00  0.00    +0.000 A 
ATOM     15  C   UNL     1     102.441 123.851 146.441  0.00  0.00    +0.000 A 
ATOM     16  C   UNL     1     103.195 122.846 145.761  0.00  0.00    +0.000 A 
ATOM     17  C   UNL     1     102.469 123.146 146.015  0.00  0.00    +0.000 A 
BRANCH  15  18
ATOM     18  O   UNL     1     101.716 124.151 146.695  0.00  0.00    +0.000 OA
ATOM     19  C   UNL     1     101.659 124.529 147.427  0.00  0.00    +0.000 C 
ENDBRANCH  15  18
ENDBRANCH   2  12
BRANCH   7  20
ATOM     20  O   UNL     1     107.017 126.092 146.469  0.00  0.00    +0.000 OA
ATOM     21  C   UNL     1     107.423 126.774 146.697  0.00  0.00    +0.000 C 
ENDBRANCH   7  20
BRANCH  10  22
ATOM     22  O   UNL     1     107.059 124.909 149.139  0.00  0.00    +0.000 OA
ATOM     23  C   UNL     1     107.577 124.282 149.275  0.00  0.00    +0.000 C 
ENDBRANCH  10  22
TORSDOF 4
ENDMDL
MODEL 5
REMARK VINA RESULT:      -7.3      2.622      3.237
REMARK  Name = 10495608
REMARK  4 active torsions:
REMARK  status: ('A' for Active; 'I' for Inactive)
REMARK    1  A    between atoms: O_2  and  C_12
REMARK    2  A    between atoms: O_3  and  C_17
REMARK    3  A    between atoms: O_4  and  C_18
REMARK    4  A    between atoms: C_6  and  C_11
REMARK                            x       y       z     vdW  Elec       q    Type
REMARK                         _______ _______ _______ _____ _____    ______ ____
ROOT
ATOM      1  O   UNL     1     106.562 125.261 146.260  0.00  0.00    +0.000 OA
ATOM      2  C   UNL     1     106.856 125.692 146.900  0.00  0.00    +0.000 C 
ATOM      3  C   UNL     1     106.892 126.516 146.860  0.00  0.00    +0.000 C 
ATOM      4  C   UNL     1     106.634 126.907 146.181  0.00  0.00    +0.000 C 
ATOM      5  C   UNL     1     106.340 126.476 145.542  0.00  0.00    +0.000 A 
ATOM      6  C   UNL     1     106.304 125.653 145.582  0.00  0.00    +0.000 A 
ATOM      7  C   UNL     1     106.074 126.896 144.841  0.00  0.00    +0.000 A 
ATOM      8  C   UNL     1     106.000 125.193 144.923  0.00  0.00    +0.000 A 
ATOM      9  C   UNL     1     105.767 126.453 144.173  0.00  0.00    +0.000 A 
ATOM     10  C   UNL     1     105.730 125.595 144.214  0.00  0.00    +0.000 A 
ENDROOT
BRANCH   2  12
ATOM     11  O   UNL     1     107.891 124.123 149.612  0.00  0.00    +0.000 OA
ATOM     12  C   UNL     1     107.114 125.300 147.578  0.00  0.00    +0.000 A 
ATOM     13  C   UNL     1     106.565 124.997 148.113  0.00  0.00    +0.000 A 
ATOM     14  C   UNL     1     107.923 125.211 147.720  0.00  0.00    +0.000 A 
ATOM     15  C   UNL     1     106.824 124.604 148.791  0.00  0.00    +0.000 A 
ATOM     16  C   UNL     1     108.181 124.818 148.398  0.00  0.00    +0.000 A 
ATOM     17  C   UNL     1     107.632 124.515 148.934  0.00  0.00    +0.000 A 
BRANCH  15  18
ATOM     18  O   UNL     1     106.275 124.301 149.327  0.00  0.00    +0.000 OA
ATOM     19  C   UNL     1     105.582 124.720 149.490  0.00  0.00    +0.000 C 
ENDBRANCH  15  18
ENDBRANCH   2  12
BRANCH   7  20
ATOM     20  O   UNL     1     106.114 127.720 144.811  0.00  0.00    +0.000 OA
ATOM     21  C   UNL     1     105.741 128.128 144.197  0.00  0.00    +0.000 C 
ENDBRANCH   7  20
BRANCH  10  22
ATOM     22  O   UNL     1     105.436 125.162 143.576  0.00  0.00    +0.000 OA
ATOM     23  C   UNL     1     105.955 124.840 143.022  0.00  0.00    +0.000 C 
ENDBRANCH  10  22
TORSDOF 4
ENDMDL
MODEL 6
REMARK VINA RESULT:      -7.3     12.540     13.649
REMARK  Name = 10495608
REMARK  4 active torsions:
REMARK  status: ('A' for Active; 'I' for Inactive)
REMARK    1  A    between atoms: O_2  and  C_12
REMARK    2  A    between atoms: O_3  and  C_17
REMARK    3  A    between atoms: O_4  and  C_18
REMARK    4  A    between atoms: C_6  and  C_11
REMARK                            x       y       z     vdW  Elec       q    Type
REMARK                         _______ _______ _______ _____ _____    ______ ____
ROOT
ATOM      1  O   UNL     1     112.184 126.266 136.068  0.00  0.00    +0.000 OA
ATOM      2  C   UNL     1     111.377 126.365 135.925  0.00  0.00    +0.000 C 
ATOM      3  C   UNL     1     110.855 125.739 136.054  0.00  0.00    +0.000 C 
ATOM      4  C   UNL     1     111.141 125.014 136.327  0.00  0.00    +0.000 C 
ATOM      5  C   UNL     1     111.947 124.915 136.470  0.00  0.00    +0.000 A 
ATOM      6  C   UNL     1     112.468 125.541 136.341  0.00  0.00    +0.000 A 
ATOM      7  C   UNL     1     112.231 124.155 136.754  0.00  0.00    +0.000 A 
ATOM      8  C   UNL     1     113.311 125.450 136.486  0.00  0.00    +0.000 A 
ATOM      9  C   UNL     1     113.070 124.047 136.905  0.00  0.00    +0.000 A 
ATOM     10  C   UNL     1     113.613 124.698 136.770  0.00  0.00    +0.000 A 
ENDROOT
BRANCH   2  12
ATOM     11  O   UNL     1     110.240 129.264 134.832  0.00  0.00    +0.000 OA
ATOM     12  C   UNL     1     111.093 127.090 135.652  0.00  0.00    +0.000 A 
ATOM     13  C   UNL     1     111.106 127.750 136.146  0.00  0.00    +0.000 A 
ATOM     14  C   UNL     1     110.796 127.153 134.885  0.00  0.00    +0.000 A 
ATOM     15  C   UNL     1     110.821 128.475 135.872  0.00  0.00    +0.000 A 
ATOM     16  C   UNL     1     110.512 127.878 134.612  0.00  0.00    +0.000 A 
ATOM     17  C   UNL     1     110.524 128.539 135.106  0.00  0.00    +0.000 A 
BRANCH  15  18
ATOM     18  O   UNL     1     110.834 129.136 136.366  0.00  0.00    +0.000 OA
ATOM     19  C   UNL     1     110.657 129.055 137.168  0.00  0.00    +0.000 C 
ENDBRANCH  15  18
ENDBRANCH   2  12
BRANCH   7  20
ATOM     20  O   UNL     1     111.702 123.535 136.881  0.00  0.00    +0.000 OA
ATOM     21  C   UNL     1     111.968 122.828 137.212  0.00  0.00    +0.000 C 
ENDBRANCH   7  20
BRANCH  10  22
ATOM     22  O   UNL     1     114.420 124.602 136.912  0.00  0.00    +0.000 OA
ATOM     23  C   UNL     1     114.771 124.966 137.564  0.00  0.00    +0.000 C 
ENDBRANCH  10  22
TORSDOF 4
ENDMDL
MODEL 7
REMARK VINA RESULT:      -7.3     12.937     14.408
REMARK  Name = 10495608
REMARK  4 active torsions:
REMARK  status: ('A' for Active; 'I' for Inactive)
REMARK    1  A    between atoms: O_2  and  C_12
REMARK    2  A    between atoms: O_3  and  C_17
REMARK    3  A    between atoms: O_4  and  C_18
REMARK    4  A    between atoms: C_6  and  C_11
REMARK                            x       y       z     vdW  Elec       q    Type
REMARK                         _______ _______ _______ _____ _____    ______ ____
ROOT
ATOM      1  O   UNL     1     113.817 127.609 136.494  0.00  0.00    +0.000 OA
ATOM      2  C   UNL     1     113.441 128.224 136.092  0.00  0.00    +0.000 C 
ATOM      3  C   UNL     1     112.675 128.122 135.803  0.00  0.00    +0.000 C 
ATOM      4  C   UNL     1     112.285 127.403 135.916  0.00  0.00    +0.000 C 
ATOM      5  C   UNL     1     112.660 126.788 136.317  0.00  0.00    +0.000 A 
ATOM      6  C   UNL     1     113.426 126.891 136.606  0.00  0.00    +0.000 A 
ATOM      7  C   UNL     1     112.243 126.045 136.429  0.00  0.00    +0.000 A 
ATOM      8  C   UNL     1     113.828 126.257 137.026  0.00  0.00    +0.000 A 
ATOM      9  C   UNL     1     112.628 125.401 136.846  0.00  0.00    +0.000 A 
ATOM     10  C   UNL     1     113.426 125.508 137.146  0.00  0.00    +0.000 A 
ENDROOT
BRANCH   2  12
ATOM     11  O   UNL     1     115.007 131.094 135.640  0.00  0.00    +0.000 OA
ATOM     12  C   UNL     1     113.833 128.942 135.979  0.00  0.00    +0.000 A 
ATOM     13  C   UNL     1     113.777 129.536 136.549  0.00  0.00    +0.000 A 
ATOM     14  C   UNL     1     114.280 129.065 135.296  0.00  0.00    +0.000 A 
ATOM     15  C   UNL     1     114.169 130.254 136.435  0.00  0.00    +0.000 A 
ATOM     16  C   UNL     1     114.671 129.782 135.184  0.00  0.00    +0.000 A 
ATOM     17  C   UNL     1     114.615 130.377 135.753  0.00  0.00    +0.000 A 
BRANCH  15  18
ATOM     18  O   UNL     1     114.113 130.848 137.004  0.00  0.00    +0.000 OA
ATOM     19  C   UNL     1     114.026 130.650 137.801  0.00  0.00    +0.000 C 
ENDBRANCH  15  18
ENDBRANCH   2  12
BRANCH   7  20
ATOM     20  O   UNL     1     111.477 125.952 136.136  0.00  0.00    +0.000 OA
ATOM     21  C   UNL     1     111.106 125.216 136.178  0.00  0.00    +0.000 C 
ENDBRANCH   7  20
BRANCH  10  22
ATOM     22  O   UNL     1     113.804 124.894 137.548  0.00  0.00    +0.000 OA
ATOM     23  C   UNL     1     114.540 124.625 137.293  0.00  0.00    +0.000 C 
ENDBRANCH  10  22
TORSDOF 4
ENDMDL
MODEL 8
REMARK VINA RESULT:      -7.2      9.593     10.424
REMARK  Name = 10495608
REMARK  4 active torsions:
REMARK  status: ('A' for Active; 'I' for Inactive)
REMARK    1  A    between atoms: O_2  and  C_12
REMARK    2  A    between atoms: O_3  and  C_17
REMARK    3  A    between atoms: O_4  and  C_18
REMARK    4  A    between atoms: C_6  and  C_11
REMARK                            x       y       z     vdW  Elec       q    Type
REMARK                         _______ _______ _______ _____ _____    ______ ____
ROOT
ATOM      1  O   UNL     1     102.904 132.036 141.236  0.00  0.00    +0.000 OA
ATOM      2  C   UNL     1     102.516 131.385 141.562  0.00  0.00    +0.000 C 
ATOM      3  C   UNL     1     101.814 131.491 141.982  0.00  0.00    +0.000 C 
ATOM      4  C   UNL     1     101.500 132.248 142.076  0.00  0.00    +0.000 C 
ATOM      5  C   UNL     1     101.888 132.899 141.751  0.00  0.00    +0.000 A 
ATOM      6  C   UNL     1     102.590 132.793 141.331  0.00  0.00    +0.000 A 
ATOM      7  C   UNL     1     101.551 133.683 141.857  0.00  0.00    +0.000 A 
ATOM      8  C   UNL     1     103.004 133.464 140.988  0.00  0.00    +0.000 A 
ATOM      9  C   UNL     1     101.951 134.365 141.521  0.00  0.00    +0.000 A 
ATOM     10  C   UNL     1     102.682 134.254 141.083  0.00  0.00    +0.000 A 
ENDROOT
BRANCH   2  12
ATOM     11  O   UNL     1     103.774 128.357 141.183  0.00  0.00    +0.000 OA
ATOM     12  C   UNL     1     102.830 130.628 141.466  0.00  0.00    +0.000 A 
ATOM     13  C   UNL     1     102.719 130.221 140.757  0.00  0.00    +0.000 A 
ATOM     14  C   UNL     1     103.255 130.278 142.081  0.00  0.00    +0.000 A 
ATOM     15  C   UNL     1     103.034 129.464 140.663  0.00  0.00    +0.000 A 
ATOM     16  C   UNL     1     103.569 129.521 141.986  0.00  0.00    +0.000 A 
ATOM     17  C   UNL     1     103.459 129.114 141.277  0.00  0.00    +0.000 A 
BRANCH  15  18
ATOM     18  O   UNL     1     102.924 129.057 139.954  0.00  0.00    +0.000 OA
ATOM     19  C   UNL     1     102.238 129.179 139.510  0.00  0.00    +0.000 C 
ENDBRANCH  15  18
ENDBRANCH   2  12
BRANCH   7  20
ATOM     20  O   UNL     1     100.849 133.779 142.279  0.00  0.00    +0.000 OA
ATOM     21  C   UNL     1     100.710 134.478 142.696  0.00  0.00    +0.000 C 
ENDBRANCH   7  20
BRANCH  10  22
ATOM     22  O   UNL     1     103.072 134.904 140.757  0.00  0.00    +0.000 OA
ATOM     23  C   UNL     1     102.936 135.116 139.972  0.00  0.00    +0.000 C 
ENDBRANCH  10  22
TORSDOF 4
ENDMDL
MODEL 9
REMARK VINA RESULT:      -7.2     12.252     13.334
REMARK  Name = 10495608
REMARK  4 active torsions:
REMARK  status: ('A' for Active; 'I' for Inactive)
REMARK    1  A    between atoms: O_2  and  C_12
REMARK    2  A    between atoms: O_3  and  C_17
REMARK    3  A    between atoms: O_4  and  C_18
REMARK    4  A    between atoms: C_6  and  C_11
REMARK                            x       y       z     vdW  Elec       q    Type
REMARK                         _______ _______ _______ _____ _____    ______ ____
ROOT
ATOM      1  O   UNL     1     112.234 126.555 136.083  0.00  0.00    +0.000 OA
ATOM      2  C   UNL     1     112.320 125.801 136.407  0.00  0.00    +0.000 C 
ATOM      3  C   UNL     1     111.713 125.248 136.333  0.00  0.00    +0.000 C 
ATOM      4  C   UNL     1     111.019 125.449 135.935  0.00  0.00    +0.000 C 
ATOM      5  C   UNL     1     110.932 126.202 135.611  0.00  0.00    +0.000 A 
ATOM      6  C   UNL     1     111.540 126.755 135.685  0.00  0.00    +0.000 A 
ATOM      7  C   UNL     1     110.205 126.400 135.198  0.00  0.00    +0.000 A 
ATOM      8  C   UNL     1     111.462 127.544 135.351  0.00  0.00    +0.000 A 
ATOM      9  C   UNL     1     110.109 127.183 134.858  0.00  0.00    +0.000 A 
ATOM     10  C   UNL     1     110.742 127.759 134.935  0.00  0.00    +0.000 A 
ENDROOT
BRANCH   2  12
ATOM     11  O   UNL     1     115.098 124.998 137.999  0.00  0.00    +0.000 OA
ATOM     12  C   UNL     1     113.014 125.600 136.806  0.00  0.00    +0.000 A 
ATOM     13  C   UNL     1     113.139 125.866 137.577  0.00  0.00    +0.000 A 
ATOM     14  C   UNL     1     113.584 125.134 136.432  0.00  0.00    +0.000 A 
ATOM     15  C   UNL     1     113.834 125.665 137.974  0.00  0.00    +0.000 A 
ATOM     16  C   UNL     1     114.278 124.934 136.830  0.00  0.00    +0.000 A 
ATOM     17  C   UNL     1     114.403 125.199 137.601  0.00  0.00    +0.000 A 
BRANCH  15  18
ATOM     18  O   UNL     1     113.959 125.930 138.745  0.00  0.00    +0.000 OA
ATOM     19  C   UNL     1     113.482 126.526 139.059  0.00  0.00    +0.000 C 
ENDBRANCH  15  18
ENDBRANCH   2  12
BRANCH   7  20
ATOM     20  O   UNL     1     109.602 125.840 135.129  0.00  0.00    +0.000 OA
ATOM     21  C   UNL     1     108.830 126.084 134.970  0.00  0.00    +0.000 C 
ENDBRANCH   7  20
BRANCH  10  22
ATOM     22  O   UNL     1     110.659 128.513 134.612  0.00  0.00    +0.000 OA
ATOM     23  C   UNL     1     110.780 129.180 135.082  0.00  0.00    +0.000 C 
ENDBRANCH  10  22
TORSDOF 4
ENDMDL
MODEL 10
REMARK VINA RESULT:      -7.2      9.981     12.105
REMARK  Name = 10495608
REMARK  4 active torsions:
REMARK  status: ('A' for Active; 'I' for Inactive)
REMARK    1  A    between atoms: O_2  and  C_12
REMARK    2  A    between atoms: O_3  and  C_17
REMARK    3  A    between atoms: O_4  and  C_18
REMARK    4  A    between atoms: C_6  and  C_11
REMARK                            x       y       z     vdW  Elec       q    Type
REMARK                         _______ _______ _______ _____ _____    ______ ____
ROOT
ATOM      1  O   UNL     1     111.905 126.149 138.872  0.00  0.00    +0.000 OA
ATOM      2  C   UNL     1     112.357 126.005 138.196  0.00  0.00    +0.000 C 
ATOM      3  C   UNL     1     113.170 126.145 138.205  0.00  0.00    +0.000 C 
ATOM      4  C   UNL     1     113.531 126.430 138.891  0.00  0.00    +0.000 C 
ATOM      5  C   UNL     1     113.081 126.574 139.565  0.00  0.00    +0.000 A 
ATOM      6  C   UNL     1     112.268 126.434 139.556  0.00  0.00    +0.000 A 
ATOM      7  C   UNL     1     113.469 126.871 140.273  0.00  0.00    +0.000 A 
ATOM      8  C   UNL     1     111.787 126.580 140.254  0.00  0.00    +0.000 A 
ATOM      9  C   UNL     1     113.004 127.023 140.979  0.00  0.00    +0.000 A 
ATOM     10  C   UNL     1     112.158 126.877 140.969  0.00  0.00    +0.000 A 
ENDROOT
BRANCH   2  12
ATOM     11  O   UNL     1     110.908 124.869 135.458  0.00  0.00    +0.000 OA
ATOM     12  C   UNL     1     111.995 125.720 137.512  0.00  0.00    +0.000 A 
ATOM     13  C   UNL     1     111.982 124.910 137.358  0.00  0.00    +0.000 A 
ATOM     14  C   UNL     1     111.645 126.247 136.981  0.00  0.00    +0.000 A 
ATOM     15  C   UNL     1     111.620 124.626 136.673  0.00  0.00    +0.000 A 
ATOM     16  C   UNL     1     111.283 125.963 136.297  0.00  0.00    +0.000 A 
ATOM     17  C   UNL     1     111.270 125.152 136.143  0.00  0.00    +0.000 A 
BRANCH  15  18
ATOM     18  O   UNL     1     111.607 123.816 136.518  0.00  0.00    +0.000 OA
ATOM     19  C   UNL     1     112.019 123.296 137.010  0.00  0.00    +0.000 C 
ENDBRANCH  15  18
ENDBRANCH   2  12
BRANCH   7  20
ATOM     20  O   UNL     1     114.282 127.008 140.273  0.00  0.00    +0.000 OA
ATOM     21  C   UNL     1     114.663 127.229 140.971  0.00  0.00    +0.000 C 
ENDBRANCH   7  20
BRANCH  10  22
ATOM     22  O   UNL     1     111.704 127.020 141.643  0.00  0.00    +0.000 OA
ATOM     23  C   UNL     1     111.149 127.630 141.645  0.00  0.00    +0.000 C 
ENDBRANCH  10  22
TORSDOF 4
ENDMDL
