MODEL 1
REMARK VINA RESULT:      -8.4      0.000      0.000
REMARK  Name = 131835083
REMARK  9 active torsions:
REMARK  status: ('A' for Active; 'I' for Inactive)
REMARK    1  A    between atoms: O_2  and  C_19
REMARK    2  A    between atoms: O_2  and  C_21
REMARK    3  A    between atoms: O_8  and  C_22
REMARK    4  A    between atoms: O_11  and  C_34
REMARK    5  A    between atoms: C_18  and  C_20
REMARK    6  A    between atoms: C_24  and  C_27
REMARK    7  A    between atoms: C_27  and  C_28
REMARK    8  A    between atoms: C_28  and  C_29
REMARK    9  A    between atoms: C_29  and  C_31
REMARK                            x       y       z     vdW  Elec       q    Type
REMARK                         _______ _______ _______ _____ _____    ______ ____
ROOT
ATOM      1  C   UNL     1     112.695 125.755 137.722  0.00  0.00    +0.000 A 
ATOM      2  C   UNL     1     113.490 125.831 137.928  0.00  0.00    +0.000 A 
ATOM      3  C   UNL     1     112.107 126.018 138.237  0.00  0.00    +0.000 A 
ATOM      4  C   UNL     1     113.109 126.434 139.167  0.00  0.00    +0.000 A 
ATOM      5  C   UNL     1     113.697 126.171 138.651  0.00  0.00    +0.000 A 
ATOM      6  C   UNL     1     112.314 126.357 138.959  0.00  0.00    +0.000 A 
ENDROOT
BRANCH   2   7
ATOM      7  O   UNL     1     114.077 125.568 137.413  0.00  0.00    +0.000 OA
ATOM      8  C   UNL     1     114.721 125.142 137.704  0.00  0.00    +0.000 C 
ENDBRANCH   2   7
BRANCH   1   9
ATOM      9  O   UNL     1     112.488 125.416 136.999  0.00  0.00    +0.000 OA
BRANCH   9  18
ATOM     10  O   UNL     1     112.022 126.608 136.364  0.00  0.00    +0.000 OA
ATOM     11  O   UNL     1     110.202 125.324 135.285  0.00  0.00    +0.000 OA
ATOM     12  O   UNL     1     110.343 126.944 135.011  0.00  0.00    +0.000 OA
ATOM     13  O   UNL     1     111.274 124.559 136.279  0.00  0.00    +0.000 OA
ATOM     14  C   UNL     1     110.809 125.752 135.645  0.00  0.00    +0.000 C 
ATOM     15  C   UNL     1     110.879 126.562 135.508  0.00  0.00    +0.000 C 
ATOM     16  C   UNL     1     111.345 125.369 136.142  0.00  0.00    +0.000 C 
ATOM     17  C   UNL     1     111.486 126.990 135.867  0.00  0.00    +0.000 C 
ATOM     18  C   UNL     1     111.951 125.797 136.502  0.00  0.00    +0.000 C 
BRANCH  17  21
ATOM     19  O   UNL     1     111.092 128.333 136.158  0.00  0.00    +0.000 OA
ATOM     20  O   UNL     1     112.091 128.079 135.167  0.00  0.00    +0.000 OA
ATOM     21  C   UNL     1     111.557 127.800 135.730  0.00  0.00    +0.000 C 
ENDBRANCH  17  21
ENDBRANCH   9  18
ENDBRANCH   1   9
BRANCH   4  22
ATOM     22  C   UNL     1     113.316 126.773 139.890  0.00  0.00    +0.000 C 
BRANCH  22  24
ATOM     23  O   UNL     1     113.011 128.081 139.400  0.00  0.00    +0.000 OA
ATOM     24  C   UNL     1     113.371 127.594 139.959  0.00  0.00    +0.000 C 
BRANCH  24  26
ATOM     25  O   UNL     1     114.403 127.507 140.945  0.00  0.00    +0.000 OA
ATOM     26  C   UNL     1     113.788 127.927 140.589  0.00  0.00    +0.000 C 
BRANCH  26  30
ATOM     27  O   UNL     1     114.593 129.249 140.018  0.00  0.00    +0.000 OA
ATOM     28  O   UNL     1     112.588 128.110 141.707  0.00  0.00    +0.000 OA
ATOM     29  O   UNL     1     112.998 130.939 141.683  0.00  0.00    +0.000 OA
ATOM     30  C   UNL     1     113.590 128.679 140.863  0.00  0.00    +0.000 A 
ATOM     31  C   UNL     1     113.993 129.341 140.577  0.00  0.00    +0.000 A 
ATOM     32  C   UNL     1     112.990 128.771 141.421  0.00  0.00    +0.000 A 
ATOM     33  C   UNL     1     113.795 130.094 140.851  0.00  0.00    +0.000 A 
ATOM     34  C   UNL     1     112.793 129.525 141.695  0.00  0.00    +0.000 A 
ATOM     35  C   UNL     1     113.195 130.185 141.410  0.00  0.00    +0.000 A 
BRANCH  33  36
ATOM     36  O   UNL     1     114.198 130.755 140.565  0.00  0.00    +0.000 OA
ATOM     37  C   UNL     1     114.863 131.036 140.964  0.00  0.00    +0.000 C 
ENDBRANCH  33  36
ENDBRANCH  26  30
ENDBRANCH  24  26
ENDBRANCH  22  24
ENDBRANCH   4  22
TORSDOF 9
ENDMDL
MODEL 2
REMARK VINA RESULT:      -8.3      7.924     10.515
REMARK  Name = 131835083
REMARK  9 active torsions:
REMARK  status: ('A' for Active; 'I' for Inactive)
REMARK    1  A    between atoms: O_2  and  C_19
REMARK    2  A    between atoms: O_2  and  C_21
REMARK    3  A    between atoms: O_8  and  C_22
REMARK    4  A    between atoms: O_11  and  C_34
REMARK    5  A    between atoms: C_18  and  C_20
REMARK    6  A    between atoms: C_24  and  C_27
REMARK    7  A    between atoms: C_27  and  C_28
REMARK    8  A    between atoms: C_28  and  C_29
REMARK    9  A    between atoms: C_29  and  C_31
REMARK                            x       y       z     vdW  Elec       q    Type
REMARK                         _______ _______ _______ _____ _____    ______ ____
ROOT
ATOM      1  C   UNL     1     105.971 126.557 143.863  0.00  0.00    +0.000 A 
ATOM      2  C   UNL     1     105.540 127.031 143.343  0.00  0.00    +0.000 A 
ATOM      3  C   UNL     1     106.425 125.933 143.573  0.00  0.00    +0.000 A 
ATOM      4  C   UNL     1     106.017 126.255 142.241  0.00  0.00    +0.000 A 
ATOM      5  C   UNL     1     105.563 126.880 142.532  0.00  0.00    +0.000 A 
ATOM      6  C   UNL     1     106.448 125.782 142.762  0.00  0.00    +0.000 A 
ENDROOT
BRANCH   2   7
ATOM      7  O   UNL     1     105.086 127.655 143.633  0.00  0.00    +0.000 OA
ATOM      8  C   UNL     1     104.949 128.320 143.164  0.00  0.00    +0.000 C 
ENDBRANCH   2   7
BRANCH   1   9
ATOM      9  O   UNL     1     105.947 126.708 144.673  0.00  0.00    +0.000 OA
BRANCH   9  18
ATOM     10  O   UNL     1     105.233 125.562 145.140  0.00  0.00    +0.000 OA
ATOM     11  O   UNL     1     106.899 125.256 146.944  0.00  0.00    +0.000 OA
ATOM     12  O   UNL     1     105.629 124.212 146.808  0.00  0.00    +0.000 OA
ATOM     13  O   UNL     1     107.059 126.504 145.876  0.00  0.00    +0.000 OA
ATOM     14  C   UNL     1     106.344 125.358 146.342  0.00  0.00    +0.000 C 
ATOM     15  C   UNL     1     105.709 124.836 146.275  0.00  0.00    +0.000 C 
ATOM     16  C   UNL     1     106.424 125.982 145.809  0.00  0.00    +0.000 C 
ATOM     17  C   UNL     1     105.153 124.938 145.674  0.00  0.00    +0.000 C 
ATOM     18  C   UNL     1     105.868 126.084 145.207  0.00  0.00    +0.000 C 
BRANCH  17  21
ATOM     19  O   UNL     1     104.619 123.692 145.221  0.00  0.00    +0.000 OA
ATOM     20  O   UNL     1     103.783 124.617 145.921  0.00  0.00    +0.000 OA
ATOM     21  C   UNL     1     104.518 124.416 145.606  0.00  0.00    +0.000 C 
ENDBRANCH  17  21
ENDBRANCH   9  18
ENDBRANCH   1   9
BRANCH   4  22
ATOM     22  C   UNL     1     106.041 126.104 141.430  0.00  0.00    +0.000 C 
BRANCH  22  24
ATOM     23  O   UNL     1     105.290 124.899 141.594  0.00  0.00    +0.000 OA
ATOM     24  C   UNL     1     105.787 125.375 141.140  0.00  0.00    +0.000 C 
BRANCH  24  26
ATOM     25  O   UNL     1     106.738 125.403 140.073  0.00  0.00    +0.000 OA
ATOM     26  C   UNL     1     106.032 125.121 140.394  0.00  0.00    +0.000 C 
BRANCH  26  30
ATOM     27  O   UNL     1     104.808 125.670 139.433  0.00  0.00    +0.000 OA
ATOM     28  O   UNL     1     106.333 123.503 140.502  0.00  0.00    +0.000 OA
ATOM     29  O   UNL     1     104.186 122.982 138.689  0.00  0.00    +0.000 OA
ATOM     30  C   UNL     1     105.571 124.586 139.968  0.00  0.00    +0.000 A 
ATOM     31  C   UNL     1     104.958 124.861 139.487  0.00  0.00    +0.000 A 
ATOM     32  C   UNL     1     105.721 123.777 140.022  0.00  0.00    +0.000 A 
ATOM     33  C   UNL     1     104.497 124.326 139.061  0.00  0.00    +0.000 A 
ATOM     34  C   UNL     1     105.259 123.242 139.595  0.00  0.00    +0.000 A 
ATOM     35  C   UNL     1     104.648 123.516 139.115  0.00  0.00    +0.000 A 
BRANCH  33  36
ATOM     36  O   UNL     1     103.885 124.601 138.580  0.00  0.00    +0.000 OA
ATOM     37  C   UNL     1     103.104 124.393 138.749  0.00  0.00    +0.000 C 
ENDBRANCH  33  36
ENDBRANCH  26  30
ENDBRANCH  24  26
ENDBRANCH  22  24
ENDBRANCH   4  22
TORSDOF 9
ENDMDL
MODEL 3
REMARK VINA RESULT:      -8.2      1.494      2.913
REMARK  Name = 131835083
REMARK  9 active torsions:
REMARK  status: ('A' for Active; 'I' for Inactive)
REMARK    1  A    between atoms: O_2  and  C_19
REMARK    2  A    between atoms: O_2  and  C_21
REMARK    3  A    between atoms: O_8  and  C_22
REMARK    4  A    between atoms: O_11  and  C_34
REMARK    5  A    between atoms: C_18  and  C_20
REMARK    6  A    between atoms: C_24  and  C_27
REMARK    7  A    between atoms: C_27  and  C_28
REMARK    8  A    between atoms: C_28  and  C_29
REMARK    9  A    between atoms: C_29  and  C_31
REMARK                            x       y       z     vdW  Elec       q    Type
REMARK                         _______ _______ _______ _____ _____    ______ ____
ROOT
ATOM      1  C   UNL     1     111.851 127.169 136.534  0.00  0.00    +0.000 A 
ATOM      2  C   UNL     1     112.004 127.902 136.186  0.00  0.00    +0.000 A 
ATOM      3  C   UNL     1     111.736 127.114 137.348  0.00  0.00    +0.000 A 
ATOM      4  C   UNL     1     111.926 128.525 137.471  0.00  0.00    +0.000 A 
ATOM      5  C   UNL     1     112.041 128.580 136.655  0.00  0.00    +0.000 A 
ATOM      6  C   UNL     1     111.773 127.792 137.816  0.00  0.00    +0.000 A 
ENDROOT
BRANCH   2   7
ATOM      7  O   UNL     1     112.119 127.957 135.372  0.00  0.00    +0.000 OA
ATOM      8  C   UNL     1     111.996 128.675 134.985  0.00  0.00    +0.000 C 
ENDBRANCH   2   7
BRANCH   1   9
ATOM      9  O   UNL     1     111.813 126.491 136.065  0.00  0.00    +0.000 OA
BRANCH   9  18
ATOM     10  O   UNL     1     113.030 125.863 136.474  0.00  0.00    +0.000 OA
ATOM     11  O   UNL     1     111.869 123.679 136.574  0.00  0.00    +0.000 OA
ATOM     12  O   UNL     1     113.472 123.780 136.950  0.00  0.00    +0.000 OA
ATOM     13  O   UNL     1     111.039 125.035 136.131  0.00  0.00    +0.000 OA
ATOM     14  C   UNL     1     112.256 124.407 136.541  0.00  0.00    +0.000 C 
ATOM     15  C   UNL     1     113.057 124.457 136.729  0.00  0.00    +0.000 C 
ATOM     16  C   UNL     1     111.841 125.085 136.319  0.00  0.00    +0.000 C 
ATOM     17  C   UNL     1     113.444 125.185 136.695  0.00  0.00    +0.000 C 
ATOM     18  C   UNL     1     112.227 125.813 136.286  0.00  0.00    +0.000 C 
BRANCH  17  21
ATOM     19  O   UNL     1     114.810 125.252 136.281  0.00  0.00    +0.000 OA
ATOM     20  O   UNL     1     114.484 125.269 137.673  0.00  0.00    +0.000 OA
ATOM     21  C   UNL     1     114.246 125.235 136.883  0.00  0.00    +0.000 C 
ENDBRANCH  17  21
ENDBRANCH   9  18
ENDBRANCH   1   9
BRANCH   4  22
ATOM     22  C   UNL     1     111.963 129.203 137.939  0.00  0.00    +0.000 C 
BRANCH  22  24
ATOM     23  O   UNL     1     113.276 128.845 138.375  0.00  0.00    +0.000 OA
ATOM     24  C   UNL     1     112.664 129.395 138.331  0.00  0.00    +0.000 C 
BRANCH  24  26
ATOM     25  O   UNL     1     112.271 130.765 138.439  0.00  0.00    +0.000 OA
ATOM     26  C   UNL     1     112.751 130.138 138.679  0.00  0.00    +0.000 C 
BRANCH  26  30
ATOM     27  O   UNL     1     112.367 129.862 140.260  0.00  0.00    +0.000 OA
ATOM     28  O   UNL     1     114.267 130.647 138.274  0.00  0.00    +0.000 OA
ATOM     29  O   UNL     1     115.017 130.605 141.032  0.00  0.00    +0.000 OA
ATOM     30  C   UNL     1     113.318 130.255 139.266  0.00  0.00    +0.000 A 
ATOM     31  C   UNL     1     113.126 130.117 140.058  0.00  0.00    +0.000 A 
ATOM     32  C   UNL     1     114.076 130.510 139.064  0.00  0.00    +0.000 A 
ATOM     33  C   UNL     1     113.692 130.234 140.645  0.00  0.00    +0.000 A 
ATOM     34  C   UNL     1     114.642 130.626 139.653  0.00  0.00    +0.000 A 
ATOM     35  C   UNL     1     114.451 130.488 140.443  0.00  0.00    +0.000 A 
BRANCH  33  36
ATOM     36  O   UNL     1     113.500 130.096 141.436  0.00  0.00    +0.000 OA
ATOM     37  C   UNL     1     113.179 130.702 141.894  0.00  0.00    +0.000 C 
ENDBRANCH  33  36
ENDBRANCH  26  30
ENDBRANCH  24  26
ENDBRANCH  22  24
ENDBRANCH   4  22
TORSDOF 9
ENDMDL
MODEL 4
REMARK VINA RESULT:      -8.2      3.141      5.018
REMARK  Name = 131835083
REMARK  9 active torsions:
REMARK  status: ('A' for Active; 'I' for Inactive)
REMARK    1  A    between atoms: O_2  and  C_19
REMARK    2  A    between atoms: O_2  and  C_21
REMARK    3  A    between atoms: O_8  and  C_22
REMARK    4  A    between atoms: O_11  and  C_34
REMARK    5  A    between atoms: C_18  and  C_20
REMARK    6  A    between atoms: C_24  and  C_27
REMARK    7  A    between atoms: C_27  and  C_28
REMARK    8  A    between atoms: C_28  and  C_29
REMARK    9  A    between atoms: C_29  and  C_31
REMARK                            x       y       z     vdW  Elec       q    Type
REMARK                         _______ _______ _______ _____ _____    ______ ____
ROOT
ATOM      1  C   UNL     1     110.494 125.753 136.981  0.00  0.00    +0.000 A 
ATOM      2  C   UNL     1     110.015 126.158 137.518  0.00  0.00    +0.000 A 
ATOM      3  C   UNL     1     110.472 125.948 136.180  0.00  0.00    +0.000 A 
ATOM      4  C   UNL     1     109.493 126.953 136.450  0.00  0.00    +0.000 A 
ATOM      5  C   UNL     1     109.514 126.758 137.252  0.00  0.00    +0.000 A 
ATOM      6  C   UNL     1     109.972 126.547 135.915  0.00  0.00    +0.000 A 
ENDROOT
BRANCH   2   7
ATOM      7  O   UNL     1     110.037 125.964 138.319  0.00  0.00    +0.000 OA
ATOM      8  C   UNL     1     109.435 126.220 138.822  0.00  0.00    +0.000 C 
ENDBRANCH   2   7
BRANCH   1   9
ATOM      9  O   UNL     1     110.994 125.154 137.247  0.00  0.00    +0.000 OA
BRANCH   9  18
ATOM     10  O   UNL     1     112.225 125.876 137.166  0.00  0.00    +0.000 OA
ATOM     11  O   UNL     1     113.360 123.848 136.316  0.00  0.00    +0.000 OA
ATOM     12  O   UNL     1     114.211 125.246 136.519  0.00  0.00    +0.000 OA
ATOM     13  O   UNL     1     111.751 123.802 136.680  0.00  0.00    +0.000 OA
ATOM     14  C   UNL     1     112.981 124.524 136.600  0.00  0.00    +0.000 C 
ATOM     15  C   UNL     1     113.407 125.222 136.701  0.00  0.00    +0.000 C 
ATOM     16  C   UNL     1     112.177 124.500 136.781  0.00  0.00    +0.000 C 
ATOM     17  C   UNL     1     113.029 125.899 136.984  0.00  0.00    +0.000 C 
ATOM     18  C   UNL     1     111.799 125.176 137.065  0.00  0.00    +0.000 C 
BRANCH  17  21
ATOM     19  O   UNL     1     113.727 126.809 137.836  0.00  0.00    +0.000 OA
ATOM     20  O   UNL     1     113.607 127.086 136.439  0.00  0.00    +0.000 OA
ATOM     21  C   UNL     1     113.454 126.598 137.086  0.00  0.00    +0.000 C 
ENDBRANCH  17  21
ENDBRANCH   9  18
ENDBRANCH   1   9
BRANCH   4  22
ATOM     22  C   UNL     1     108.992 127.552 136.184  0.00  0.00    +0.000 C 
BRANCH  22  24
ATOM     23  O   UNL     1     110.067 128.490 136.261  0.00  0.00    +0.000 OA
ATOM     24  C   UNL     1     109.270 128.327 136.131  0.00  0.00    +0.000 C 
BRANCH  24  26
ATOM     25  O   UNL     1     107.967 128.770 135.743  0.00  0.00    +0.000 OA
ATOM     26  C   UNL     1     108.749 128.940 135.948  0.00  0.00    +0.000 C 
BRANCH  26  30
ATOM     27  O   UNL     1     108.573 129.829 137.327  0.00  0.00    +0.000 OA
ATOM     28  O   UNL     1     109.441 129.617 134.613  0.00  0.00    +0.000 OA
ATOM     29  O   UNL     1     109.784 132.072 136.035  0.00  0.00    +0.000 OA
ATOM     30  C   UNL     1     109.007 129.723 135.969  0.00  0.00    +0.000 A 
ATOM     31  C   UNL     1     108.920 130.167 136.659  0.00  0.00    +0.000 A 
ATOM     32  C   UNL     1     109.354 130.062 135.301  0.00  0.00    +0.000 A 
ATOM     33  C   UNL     1     109.179 130.950 136.681  0.00  0.00    +0.000 A 
ATOM     34  C   UNL     1     109.613 130.845 135.324  0.00  0.00    +0.000 A 
ATOM     35  C   UNL     1     109.525 131.289 136.013  0.00  0.00    +0.000 A 
BRANCH  33  36
ATOM     36  O   UNL     1     109.091 131.395 137.371  0.00  0.00    +0.000 OA
ATOM     37  C   UNL     1     108.476 131.941 137.433  0.00  0.00    +0.000 C 
ENDBRANCH  33  36
ENDBRANCH  26  30
ENDBRANCH  24  26
ENDBRANCH  22  24
ENDBRANCH   4  22
TORSDOF 9
ENDMDL
MODEL 5
REMARK VINA RESULT:      -8.1      8.846     10.265
REMARK  Name = 131835083
REMARK  9 active torsions:
REMARK  status: ('A' for Active; 'I' for Inactive)
REMARK    1  A    between atoms: O_2  and  C_19
REMARK    2  A    between atoms: O_2  and  C_21
REMARK    3  A    between atoms: O_8  and  C_22
REMARK    4  A    between atoms: O_11  and  C_34
REMARK    5  A    between atoms: C_18  and  C_20
REMARK    6  A    between atoms: C_24  and  C_27
REMARK    7  A    between atoms: C_27  and  C_28
REMARK    8  A    between atoms: C_28  and  C_29
REMARK    9  A    between atoms: C_29  and  C_31
REMARK                            x       y       z     vdW  Elec       q    Type
REMARK                         _______ _______ _______ _____ _____    ______ ____
ROOT
ATOM      1  C   UNL     1     102.713 130.371 141.137  0.00  0.00    +0.000 A 
ATOM      2  C   UNL     1     102.814 129.743 140.611  0.00  0.00    +0.000 A 
ATOM      3  C   UNL     1     103.073 130.352 141.878  0.00  0.00    +0.000 A 
ATOM      4  C   UNL     1     103.635 129.074 141.571  0.00  0.00    +0.000 A 
ATOM      5  C   UNL     1     103.274 129.094 140.829  0.00  0.00    +0.000 A 
ATOM      6  C   UNL     1     103.533 129.703 142.096  0.00  0.00    +0.000 A 
ENDROOT
BRANCH   2   7
ATOM      7  O   UNL     1     102.454 129.763 139.870  0.00  0.00    +0.000 OA
ATOM      8  C   UNL     1     102.299 129.060 139.467  0.00  0.00    +0.000 C 
ENDBRANCH   2   7
BRANCH   1   9
ATOM      9  O   UNL     1     102.252 131.020 140.919  0.00  0.00    +0.000 OA
BRANCH   9  18
ATOM     10  O   UNL     1     103.295 131.947 140.609  0.00  0.00    +0.000 OA
ATOM     11  O   UNL     1     102.053 133.737 141.785  0.00  0.00    +0.000 OA
ATOM     12  O   UNL     1     103.508 134.067 141.083  0.00  0.00    +0.000 OA
ATOM     13  O   UNL     1     101.424 132.213 141.703  0.00  0.00    +0.000 OA
ATOM     14  C   UNL     1     102.467 133.140 141.393  0.00  0.00    +0.000 C 
ATOM     15  C   UNL     1     103.194 133.306 141.042  0.00  0.00    +0.000 C 
ATOM     16  C   UNL     1     102.152 132.378 141.352  0.00  0.00    +0.000 C 
ATOM     17  C   UNL     1     103.608 132.709 140.651  0.00  0.00    +0.000 C 
ATOM     18  C   UNL     1     102.566 131.782 140.960  0.00  0.00    +0.000 C 
BRANCH  17  21
ATOM     19  O   UNL     1     104.381 133.006 139.486  0.00  0.00    +0.000 OA
ATOM     20  O   UNL     1     105.019 132.907 140.761  0.00  0.00    +0.000 OA
ATOM     21  C   UNL     1     104.336 132.874 140.300  0.00  0.00    +0.000 C 
ENDBRANCH  17  21
ENDBRANCH   9  18
ENDBRANCH   1   9
BRANCH   4  22
ATOM     22  C   UNL     1     104.096 128.425 141.789  0.00  0.00    +0.000 C 
BRANCH  22  24
ATOM     23  O   UNL     1     105.287 129.160 141.500  0.00  0.00    +0.000 OA
ATOM     24  C   UNL     1     104.914 128.448 141.687  0.00  0.00    +0.000 C 
BRANCH  24  26
ATOM     25  O   UNL     1     105.189 127.097 141.308  0.00  0.00    +0.000 OA
ATOM     26  C   UNL     1     105.360 127.759 141.772  0.00  0.00    +0.000 C 
BRANCH  26  30
ATOM     27  O   UNL     1     105.079 127.200 143.299  0.00  0.00    +0.000 OA
ATOM     28  O   UNL     1     106.872 128.260 141.341  0.00  0.00    +0.000 OA
ATOM     29  O   UNL     1     107.823 127.643 143.965  0.00  0.00    +0.000 OA
ATOM     30  C   UNL     1     105.976 127.730 142.319  0.00  0.00    +0.000 A 
ATOM     31  C   UNL     1     105.835 127.451 143.083  0.00  0.00    +0.000 A 
ATOM     32  C   UNL     1     106.732 127.981 142.104  0.00  0.00    +0.000 A 
ATOM     33  C   UNL     1     106.452 127.422 143.631  0.00  0.00    +0.000 A 
ATOM     34  C   UNL     1     107.347 127.952 142.653  0.00  0.00    +0.000 A 
ATOM     35  C   UNL     1     107.208 127.672 143.416  0.00  0.00    +0.000 A 
BRANCH  33  36
ATOM     36  O   UNL     1     106.311 127.142 144.395  0.00  0.00    +0.000 OA
ATOM     37  C   UNL     1     106.395 126.338 144.561  0.00  0.00    +0.000 C 
ENDBRANCH  33  36
ENDBRANCH  26  30
ENDBRANCH  24  26
ENDBRANCH  22  24
ENDBRANCH   4  22
TORSDOF 9
ENDMDL
MODEL 6
REMARK VINA RESULT:      -8.0      9.709     11.594
REMARK  Name = 131835083
REMARK  9 active torsions:
REMARK  status: ('A' for Active; 'I' for Inactive)
REMARK    1  A    between atoms: O_2  and  C_19
REMARK    2  A    between atoms: O_2  and  C_21
REMARK    3  A    between atoms: O_8  and  C_22
REMARK    4  A    between atoms: O_11  and  C_34
REMARK    5  A    between atoms: C_18  and  C_20
REMARK    6  A    between atoms: C_24  and  C_27
REMARK    7  A    between atoms: C_27  and  C_28
REMARK    8  A    between atoms: C_28  and  C_29
REMARK    9  A    between atoms: C_29  and  C_31
REMARK                            x       y       z     vdW  Elec       q    Type
REMARK                         _______ _______ _______ _____ _____    ______ ____
ROOT
ATOM      1  C   UNL     1     105.186 125.427 147.117  0.00  0.00    +0.000 A 
ATOM      2  C   UNL     1     105.961 125.266 146.885  0.00  0.00    +0.000 A 
ATOM      3  C   UNL     1     104.732 125.969 146.692  0.00  0.00    +0.000 A 
ATOM      4  C   UNL     1     105.828 126.189 145.802  0.00  0.00    +0.000 A 
ATOM      5  C   UNL     1     106.282 125.647 146.227  0.00  0.00    +0.000 A 
ATOM      6  C   UNL     1     105.053 126.350 146.035  0.00  0.00    +0.000 A 
ENDROOT
BRANCH   2   7
ATOM      7  O   UNL     1     106.415 124.724 147.310  0.00  0.00    +0.000 OA
ATOM      8  C   UNL     1     107.203 124.893 147.486  0.00  0.00    +0.000 C 
ENDBRANCH   2   7
BRANCH   1   9
ATOM      9  O   UNL     1     104.865 125.046 147.774  0.00  0.00    +0.000 OA
BRANCH   9  18
ATOM     10  O   UNL     1     103.889 124.283 147.062  0.00  0.00    +0.000 OA
ATOM     11  O   UNL     1     102.298 124.567 148.936  0.00  0.00    +0.000 OA
ATOM     12  O   UNL     1     101.853 123.710 147.600  0.00  0.00    +0.000 OA
ATOM     13  O   UNL     1     103.804 125.236 149.024  0.00  0.00    +0.000 OA
ATOM     14  C   UNL     1     102.828 124.472 148.311  0.00  0.00    +0.000 C 
ATOM     15  C   UNL     1     102.606 124.044 147.643  0.00  0.00    +0.000 C 
ATOM     16  C   UNL     1     103.581 124.807 148.356  0.00  0.00    +0.000 C 
ATOM     17  C   UNL     1     103.136 123.949 147.019  0.00  0.00    +0.000 C 
ATOM     18  C   UNL     1     104.112 124.712 147.731  0.00  0.00    +0.000 C 
BRANCH  17  21
ATOM     19  O   UNL     1     103.169 122.740 146.257  0.00  0.00    +0.000 OA
ATOM     20  O   UNL     1     102.438 123.869 145.774  0.00  0.00    +0.000 OA
ATOM     21  C   UNL     1     102.914 123.520 146.350  0.00  0.00    +0.000 C 
ENDBRANCH  17  21
ENDBRANCH   9  18
ENDBRANCH   1   9
BRANCH   4  22
ATOM     22  C   UNL     1     106.150 126.570 145.144  0.00  0.00    +0.000 C 
BRANCH  22  24
ATOM     23  O   UNL     1     105.285 125.856 144.258  0.00  0.00    +0.000 OA
ATOM     24  C   UNL     1     105.963 126.308 144.384  0.00  0.00    +0.000 C 
BRANCH  24  26
ATOM     25  O   UNL     1     107.248 126.685 143.885  0.00  0.00    +0.000 OA
ATOM     26  C   UNL     1     106.455 126.500 143.750  0.00  0.00    +0.000 C 
BRANCH  26  30
ATOM     27  O   UNL     1     105.871 127.901 143.105  0.00  0.00    +0.000 OA
ATOM     28  O   UNL     1     106.439 125.111 142.859  0.00  0.00    +0.000 OA
ATOM     29  O   UNL     1     105.254 126.526 140.676  0.00  0.00    +0.000 OA
ATOM     30  C   UNL     1     106.155 126.505 142.982  0.00  0.00    +0.000 A 
ATOM     31  C   UNL     1     105.863 127.207 142.659  0.00  0.00    +0.000 A 
ATOM     32  C   UNL     1     106.147 125.811 142.536  0.00  0.00    +0.000 A 
ATOM     33  C   UNL     1     105.563 127.213 141.891  0.00  0.00    +0.000 A 
ATOM     34  C   UNL     1     105.847 125.819 141.768  0.00  0.00    +0.000 A 
ATOM     35  C   UNL     1     105.555 126.519 141.445  0.00  0.00    +0.000 A 
BRANCH  33  36
ATOM     36  O   UNL     1     105.271 127.914 141.568  0.00  0.00    +0.000 OA
ATOM     37  C   UNL     1     104.459 128.062 141.570  0.00  0.00    +0.000 C 
ENDBRANCH  33  36
ENDBRANCH  26  30
ENDBRANCH  24  26
ENDBRANCH  22  24
ENDBRANCH   4  22
TORSDOF 9
ENDMDL
MODEL 7
REMARK VINA RESULT:      -8.0      2.994      5.668
REMARK  Name = 131835083
REMARK  9 active torsions:
REMARK  status: ('A' for Active; 'I' for Inactive)
REMARK    1  A    between atoms: O_2  and  C_19
REMARK    2  A    between atoms: O_2  and  C_21
REMARK    3  A    between atoms: O_8  and  C_22
REMARK    4  A    between atoms: O_11  and  C_34
REMARK    5  A    between atoms: C_18  and  C_20
REMARK    6  A    between atoms: C_24  and  C_27
REMARK    7  A    between atoms: C_27  and  C_28
REMARK    8  A    between atoms: C_28  and  C_29
REMARK    9  A    between atoms: C_29  and  C_31
REMARK                            x       y       z     vdW  Elec       q    Type
REMARK                         _______ _______ _______ _____ _____    ______ ____
ROOT
ATOM      1  C   UNL     1     111.930 130.611 138.117  0.00  0.00    +0.000 A 
ATOM      2  C   UNL     1     112.579 130.254 138.481  0.00  0.00    +0.000 A 
ATOM      3  C   UNL     1     111.626 130.300 137.417  0.00  0.00    +0.000 A 
ATOM      4  C   UNL     1     112.621 129.274 137.441  0.00  0.00    +0.000 A 
ATOM      5  C   UNL     1     112.925 129.586 138.142  0.00  0.00    +0.000 A 
ATOM      6  C   UNL     1     111.972 129.631 137.078  0.00  0.00    +0.000 A 
ENDROOT
BRANCH   2   7
ATOM      7  O   UNL     1     112.883 130.566 139.181  0.00  0.00    +0.000 OA
ATOM      8  C   UNL     1     113.658 130.395 139.408  0.00  0.00    +0.000 C 
ENDBRANCH   2   7
BRANCH   1   9
ATOM      9  O   UNL     1     111.584 131.279 138.456  0.00  0.00    +0.000 OA
BRANCH   9  18
ATOM     10  O   UNL     1     110.369 130.697 138.932  0.00  0.00    +0.000 OA
ATOM     11  O   UNL     1     109.105 132.657 138.103  0.00  0.00    +0.000 OA
ATOM     12  O   UNL     1     108.312 131.422 138.855  0.00  0.00    +0.000 OA
ATOM     13  O   UNL     1     110.741 132.586 137.903  0.00  0.00    +0.000 OA
ATOM     14  C   UNL     1     109.526 132.003 138.379  0.00  0.00    +0.000 C 
ATOM     15  C   UNL     1     109.130 131.386 138.755  0.00  0.00    +0.000 C 
ATOM     16  C   UNL     1     110.345 131.968 138.279  0.00  0.00    +0.000 C 
ATOM     17  C   UNL     1     109.551 130.733 139.031  0.00  0.00    +0.000 C 
ATOM     18  C   UNL     1     110.766 131.315 138.555  0.00  0.00    +0.000 C 
BRANCH  17  21
ATOM     19  O   UNL     1     109.128 130.084 140.232  0.00  0.00    +0.000 OA
ATOM     20  O   UNL     1     108.785 129.528 138.960  0.00  0.00    +0.000 OA
ATOM     21  C   UNL     1     109.155 130.115 139.408  0.00  0.00    +0.000 C 
ENDBRANCH  17  21
ENDBRANCH   9  18
ENDBRANCH   1   9
BRANCH   4  22
ATOM     22  C   UNL     1     112.967 128.606 137.102  0.00  0.00    +0.000 C 
BRANCH  22  24
ATOM     23  O   UNL     1     111.939 127.788 137.664  0.00  0.00    +0.000 OA
ATOM     24  C   UNL     1     112.637 127.861 137.231  0.00  0.00    +0.000 C 
BRANCH  24  26
ATOM     25  O   UNL     1     113.762 127.244 136.601  0.00  0.00    +0.000 OA
ATOM     26  C   UNL     1     113.006 127.189 136.927  0.00  0.00    +0.000 C 
BRANCH  26  30
ATOM     27  O   UNL     1     112.084 126.706 135.647  0.00  0.00    +0.000 OA
ATOM     28  O   UNL     1     113.154 126.214 138.250  0.00  0.00    +0.000 OA
ATOM     29  O   UNL     1     111.459 124.275 137.012  0.00  0.00    +0.000 OA
ATOM     30  C   UNL     1     112.619 126.460 136.949  0.00  0.00    +0.000 A 
ATOM     31  C   UNL     1     112.158 126.219 136.308  0.00  0.00    +0.000 A 
ATOM     32  C   UNL     1     112.693 125.973 137.611  0.00  0.00    +0.000 A 
ATOM     33  C   UNL     1     111.772 125.491 136.330  0.00  0.00    +0.000 A 
ATOM     34  C   UNL     1     112.306 125.244 137.631  0.00  0.00    +0.000 A 
ATOM     35  C   UNL     1     111.846 125.003 136.991  0.00  0.00    +0.000 A 
BRANCH  33  36
ATOM     36  O   UNL     1     111.310 125.249 135.689  0.00  0.00    +0.000 OA
ATOM     37  C   UNL     1     110.496 125.383 135.694  0.00  0.00    +0.000 C 
ENDBRANCH  33  36
ENDBRANCH  26  30
ENDBRANCH  24  26
ENDBRANCH  22  24
ENDBRANCH   4  22
TORSDOF 9
ENDMDL
MODEL 8
REMARK VINA RESULT:      -8.0      2.264      4.767
REMARK  Name = 131835083
REMARK  9 active torsions:
REMARK  status: ('A' for Active; 'I' for Inactive)
REMARK    1  A    between atoms: O_2  and  C_19
REMARK    2  A    between atoms: O_2  and  C_21
REMARK    3  A    between atoms: O_8  and  C_22
REMARK    4  A    between atoms: O_11  and  C_34
REMARK    5  A    between atoms: C_18  and  C_20
REMARK    6  A    between atoms: C_24  and  C_27
REMARK    7  A    between atoms: C_27  and  C_28
REMARK    8  A    between atoms: C_28  and  C_29
REMARK    9  A    between atoms: C_29  and  C_31
REMARK                            x       y       z     vdW  Elec       q    Type
REMARK                         _______ _______ _______ _____ _____    ______ ____
ROOT
ATOM      1  C   UNL     1     113.102 127.257 138.130  0.00  0.00    +0.000 A 
ATOM      2  C   UNL     1     112.633 127.716 138.630  0.00  0.00    +0.000 A 
ATOM      3  C   UNL     1     113.202 127.477 137.342  0.00  0.00    +0.000 A 
ATOM      4  C   UNL     1     112.364 128.615 137.551  0.00  0.00    +0.000 A 
ATOM      5  C   UNL     1     112.264 128.395 138.341  0.00  0.00    +0.000 A 
ATOM      6  C   UNL     1     112.833 128.155 137.052  0.00  0.00    +0.000 A 
ENDROOT
BRANCH   2   7
ATOM      7  O   UNL     1     112.532 127.496 139.418  0.00  0.00    +0.000 OA
ATOM      8  C   UNL     1     112.356 128.068 139.987  0.00  0.00    +0.000 C 
ENDBRANCH   2   7
BRANCH   1   9
ATOM      9  O   UNL     1     113.471 126.578 138.419  0.00  0.00    +0.000 OA
BRANCH   9  18
ATOM     10  O   UNL     1     112.713 125.601 137.703  0.00  0.00    +0.000 OA
ATOM     11  O   UNL     1     114.782 124.312 137.273  0.00  0.00    +0.000 OA
ATOM     12  O   UNL     1     113.335 123.765 136.701  0.00  0.00    +0.000 OA
ATOM     13  O   UNL     1     114.850 125.719 138.132  0.00  0.00    +0.000 OA
ATOM     14  C   UNL     1     114.092 124.742 137.416  0.00  0.00    +0.000 C 
ATOM     15  C   UNL     1     113.369 124.468 137.130  0.00  0.00    +0.000 C 
ATOM     16  C   UNL     1     114.127 125.445 137.846  0.00  0.00    +0.000 C 
ATOM     17  C   UNL     1     112.680 124.898 137.274  0.00  0.00    +0.000 C 
ATOM     18  C   UNL     1     113.438 125.875 137.990  0.00  0.00    +0.000 C 
BRANCH  17  21
ATOM     19  O   UNL     1     111.440 124.221 137.491  0.00  0.00    +0.000 OA
ATOM     20  O   UNL     1     111.747 124.755 136.201  0.00  0.00    +0.000 OA
ATOM     21  C   UNL     1     111.956 124.625 136.988  0.00  0.00    +0.000 C 
ENDBRANCH  17  21
ENDBRANCH   9  18
ENDBRANCH   1   9
BRANCH   4  22
ATOM     22  C   UNL     1     111.995 129.293 137.262  0.00  0.00    +0.000 C 
BRANCH  22  24
ATOM     23  O   UNL     1     110.863 128.522 136.854  0.00  0.00    +0.000 OA
ATOM     24  C   UNL     1     111.284 129.231 136.847  0.00  0.00    +0.000 C 
BRANCH  24  26
ATOM     25  O   UNL     1     111.517 130.446 136.131  0.00  0.00    +0.000 OA
ATOM     26  C   UNL     1     110.995 129.878 136.426  0.00  0.00    +0.000 C 
BRANCH  26  30
ATOM     27  O   UNL     1     110.068 130.701 137.516  0.00  0.00    +0.000 OA
ATOM     28  O   UNL     1     110.299 129.220 135.082  0.00  0.00    +0.000 OA
ATOM     29  O   UNL     1     107.750 130.205 135.919  0.00  0.00    +0.000 OA
ATOM     30  C   UNL     1     110.184 129.960 136.299  0.00  0.00    +0.000 A 
ATOM     31  C   UNL     1     109.720 130.371 136.844  0.00  0.00    +0.000 A 
ATOM     32  C   UNL     1     109.836 129.630 135.627  0.00  0.00    +0.000 A 
ATOM     33  C   UNL     1     108.910 130.453 136.717  0.00  0.00    +0.000 A 
ATOM     34  C   UNL     1     109.025 129.712 135.501  0.00  0.00    +0.000 A 
ATOM     35  C   UNL     1     108.562 130.123 136.045  0.00  0.00    +0.000 A 
BRANCH  33  36
ATOM     36  O   UNL     1     108.446 130.864 137.262  0.00  0.00    +0.000 OA
ATOM     37  C   UNL     1     108.273 131.661 137.137  0.00  0.00    +0.000 C 
ENDBRANCH  33  36
ENDBRANCH  26  30
ENDBRANCH  24  26
ENDBRANCH  22  24
ENDBRANCH   4  22
TORSDOF 9
ENDMDL
MODEL 9
REMARK VINA RESULT:      -8.0      3.001      5.869
REMARK  Name = 131835083
REMARK  9 active torsions:
REMARK  status: ('A' for Active; 'I' for Inactive)
REMARK    1  A    between atoms: O_2  and  C_19
REMARK    2  A    between atoms: O_2  and  C_21
REMARK    3  A    between atoms: O_8  and  C_22
REMARK    4  A    between atoms: O_11  and  C_34
REMARK    5  A    between atoms: C_18  and  C_20
REMARK    6  A    between atoms: C_24  and  C_27
REMARK    7  A    between atoms: C_27  and  C_28
REMARK    8  A    between atoms: C_28  and  C_29
REMARK    9  A    between atoms: C_29  and  C_31
REMARK                            x       y       z     vdW  Elec       q    Type
REMARK                         _______ _______ _______ _____ _____    ______ ____
ROOT
ATOM      1  C   UNL     1     109.632 129.086 137.668  0.00  0.00    +0.000 A 
ATOM      2  C   UNL     1     109.478 128.803 136.908  0.00  0.00    +0.000 A 
ATOM      3  C   UNL     1     110.344 128.901 138.041  0.00  0.00    +0.000 A 
ATOM      4  C   UNL     1     110.750 128.150 136.895  0.00  0.00    +0.000 A 
ATOM      5  C   UNL     1     110.037 128.336 136.521  0.00  0.00    +0.000 A 
ATOM      6  C   UNL     1     110.903 128.434 137.654  0.00  0.00    +0.000 A 
ENDROOT
BRANCH   2   7
ATOM      7  O   UNL     1     108.767 128.988 136.535  0.00  0.00    +0.000 OA
ATOM      8  C   UNL     1     108.586 128.655 135.802  0.00  0.00    +0.000 C 
ENDBRANCH   2   7
BRANCH   1   9
ATOM      9  O   UNL     1     109.073 129.553 138.055  0.00  0.00    +0.000 OA
BRANCH   9  18
ATOM     10  O   UNL     1     109.767 130.802 138.021  0.00  0.00    +0.000 OA
ATOM     11  O   UNL     1     109.082 131.246 140.358  0.00  0.00    +0.000 OA
ATOM     12  O   UNL     1     110.004 132.346 139.545  0.00  0.00    +0.000 OA
ATOM     13  O   UNL     1     108.617 129.849 139.612  0.00  0.00    +0.000 OA
ATOM     14  C   UNL     1     109.311 131.098 139.579  0.00  0.00    +0.000 C 
ATOM     15  C   UNL     1     109.772 131.648 139.173  0.00  0.00    +0.000 C 
ATOM     16  C   UNL     1     109.077 130.399 139.207  0.00  0.00    +0.000 C 
ATOM     17  C   UNL     1     110.000 131.500 138.394  0.00  0.00    +0.000 C 
ATOM     18  C   UNL     1     109.306 130.251 138.428  0.00  0.00    +0.000 C 
BRANCH  17  21
ATOM     19  O   UNL     1     110.100 132.611 137.501  0.00  0.00    +0.000 OA
ATOM     20  O   UNL     1     111.282 132.040 138.067  0.00  0.00    +0.000 OA
ATOM     21  C   UNL     1     110.461 132.050 137.988  0.00  0.00    +0.000 C 
ENDBRANCH  17  21
ENDBRANCH   9  18
ENDBRANCH   1   9
BRANCH   4  22
ATOM     22  C   UNL     1     111.309 127.683 136.508  0.00  0.00    +0.000 C 
BRANCH  22  24
ATOM     23  O   UNL     1     111.080 126.573 137.379  0.00  0.00    +0.000 OA
ATOM     24  C   UNL     1     111.341 126.872 136.656  0.00  0.00    +0.000 C 
BRANCH  24  26
ATOM     25  O   UNL     1     111.537 126.538 135.280  0.00  0.00    +0.000 OA
ATOM     26  C   UNL     1     111.634 126.359 136.080  0.00  0.00    +0.000 C 
BRANCH  26  30
ATOM     27  O   UNL     1     113.259 126.387 136.369  0.00  0.00    +0.000 OA
ATOM     28  O   UNL     1     110.793 124.948 136.237  0.00  0.00    +0.000 OA
ATOM     29  O   UNL     1     113.200 123.594 136.972  0.00  0.00    +0.000 OA
ATOM     30  C   UNL     1     112.025 125.668 136.303  0.00  0.00    +0.000 A 
ATOM     31  C   UNL     1     112.838 125.682 136.448  0.00  0.00    +0.000 A 
ATOM     32  C   UNL     1     111.604 124.962 136.381  0.00  0.00    +0.000 A 
ATOM     33  C   UNL     1     113.229 124.991 136.671  0.00  0.00    +0.000 A 
ATOM     34  C   UNL     1     111.997 124.271 136.604  0.00  0.00    +0.000 A 
ATOM     35  C   UNL     1     112.808 124.285 136.749  0.00  0.00    +0.000 A 
BRANCH  33  36
ATOM     36  O   UNL     1     114.042 125.005 136.815  0.00  0.00    +0.000 OA
ATOM     37  C   UNL     1     114.321 125.058 137.590  0.00  0.00    +0.000 C 
ENDBRANCH  33  36
ENDBRANCH  26  30
ENDBRANCH  24  26
ENDBRANCH  22  24
ENDBRANCH   4  22
TORSDOF 9
ENDMDL
MODEL 10
REMARK VINA RESULT:      -7.9      2.763      3.423
REMARK  Name = 131835083
REMARK  9 active torsions:
REMARK  status: ('A' for Active; 'I' for Inactive)
REMARK    1  A    between atoms: O_2  and  C_19
REMARK    2  A    between atoms: O_2  and  C_21
REMARK    3  A    between atoms: O_8  and  C_22
REMARK    4  A    between atoms: O_11  and  C_34
REMARK    5  A    between atoms: C_18  and  C_20
REMARK    6  A    between atoms: C_24  and  C_27
REMARK    7  A    between atoms: C_27  and  C_28
REMARK    8  A    between atoms: C_28  and  C_29
REMARK    9  A    between atoms: C_29  and  C_31
REMARK                            x       y       z     vdW  Elec       q    Type
REMARK                         _______ _______ _______ _____ _____    ______ ____
ROOT
ATOM      1  C   UNL     1     113.246 127.354 136.915  0.00  0.00    +0.000 A 
ATOM      2  C   UNL     1     113.241 128.108 136.580  0.00  0.00    +0.000 A 
ATOM      3  C   UNL     1     112.975 127.243 137.686  0.00  0.00    +0.000 A 
ATOM      4  C   UNL     1     112.695 128.641 137.788  0.00  0.00    +0.000 A 
ATOM      5  C   UNL     1     112.966 128.751 137.016  0.00  0.00    +0.000 A 
ATOM      6  C   UNL     1     112.699 127.887 138.122  0.00  0.00    +0.000 A 
ENDROOT
BRANCH   2   7
ATOM      7  O   UNL     1     113.512 128.219 135.809  0.00  0.00    +0.000 OA
ATOM      8  C   UNL     1     113.853 128.937 135.590  0.00  0.00    +0.000 C 
ENDBRANCH   2   7
BRANCH   1   9
ATOM      9  O   UNL     1     113.521 126.710 136.479  0.00  0.00    +0.000 OA
BRANCH   9  18
ATOM     10  O   UNL     1     112.278 126.046 136.245  0.00  0.00    +0.000 OA
ATOM     11  O   UNL     1     113.349 123.869 136.736  0.00  0.00    +0.000 OA
ATOM     12  O   UNL     1     111.749 123.931 136.338  0.00  0.00    +0.000 OA
ATOM     13  O   UNL     1     114.235 125.259 136.806  0.00  0.00    +0.000 OA
ATOM     14  C   UNL     1     112.992 124.595 136.572  0.00  0.00    +0.000 C 
ATOM     15  C   UNL     1     112.192 124.625 136.373  0.00  0.00    +0.000 C 
ATOM     16  C   UNL     1     113.436 125.290 136.607  0.00  0.00    +0.000 C 
ATOM     17  C   UNL     1     111.835 125.351 136.210  0.00  0.00    +0.000 C 
ATOM     18  C   UNL     1     113.079 126.015 136.444  0.00  0.00    +0.000 C 
BRANCH  17  21
ATOM     19  O   UNL     1     110.808 125.393 135.217  0.00  0.00    +0.000 OA
ATOM     20  O   UNL     1     110.463 125.402 136.604  0.00  0.00    +0.000 OA
ATOM     21  C   UNL     1     111.036 125.382 136.011  0.00  0.00    +0.000 C 
ENDBRANCH  17  21
ENDBRANCH   9  18
ENDBRANCH   1   9
BRANCH   4  22
ATOM     22  C   UNL     1     112.419 129.285 138.225  0.00  0.00    +0.000 C 
BRANCH  22  24
ATOM     23  O   UNL     1     111.078 129.096 137.768  0.00  0.00    +0.000 OA
ATOM     24  C   UNL     1     111.608 129.399 138.322  0.00  0.00    +0.000 C 
BRANCH  24  26
ATOM     25  O   UNL     1     111.672 129.708 139.717  0.00  0.00    +0.000 OA
ATOM     26  C   UNL     1     111.326 129.818 138.975  0.00  0.00    +0.000 C 
BRANCH  26  30
ATOM     27  O   UNL     1     111.627 131.400 138.614  0.00  0.00    +0.000 OA
ATOM     28  O   UNL     1     109.772 129.295 139.161  0.00  0.00    +0.000 OA
ATOM     29  O   UNL     1     108.820 131.936 138.625  0.00  0.00    +0.000 OA
ATOM     30  C   UNL     1     110.699 130.347 138.888  0.00  0.00    +0.000 A 
ATOM     31  C   UNL     1     110.850 131.138 138.707  0.00  0.00    +0.000 A 
ATOM     32  C   UNL     1     109.922 130.085 138.981  0.00  0.00    +0.000 A 
ATOM     33  C   UNL     1     110.223 131.667 138.620  0.00  0.00    +0.000 A 
ATOM     34  C   UNL     1     109.296 130.616 138.893  0.00  0.00    +0.000 A 
ATOM     35  C   UNL     1     109.446 131.406 138.713  0.00  0.00    +0.000 A 
BRANCH  33  36
ATOM     36  O   UNL     1     110.374 132.459 138.439  0.00  0.00    +0.000 OA
ATOM     37  C   UNL     1     110.266 132.733 137.669  0.00  0.00    +0.000 C 
ENDBRANCH  33  36
ENDBRANCH  26  30
ENDBRANCH  24  26
ENDBRANCH  22  24
ENDBRANCH   4  22
TORSDOF 9
ENDMDL
