MODEL 1
REMARK VINA RESULT:      -9.4      0.000      0.000
REMARK  Name = 131752855
REMARK  4 active torsions:
REMARK  status: ('A' for Active; 'I' for Inactive)
REMARK    1  A    between atoms: O_2  and  C_15
REMARK    2  A    between atoms: O_2  and  C_18
REMARK    3  A    between atoms: O_10  and  C_31
REMARK    4  A    between atoms: C_17  and  C_25
REMARK                            x       y       z     vdW  Elec       q    Type
REMARK                         _______ _______ _______ _____ _____    ______ ____
ROOT
ATOM      1  O   UNL     1     110.242 128.137 136.185  0.00  0.00    +0.000 OA
ATOM      2  O   UNL     1     108.559 126.849 135.666  0.00  0.00    +0.000 OA
ATOM      3  O   UNL     1     107.854 129.746 135.955  0.00  0.00    +0.000 OA
ATOM      4  O   UNL     1     107.816 128.320 135.737  0.00  0.00    +0.000 OA
ATOM      5  C   UNL     1     109.806 127.462 136.000  0.00  0.00    +0.000 C 
ATOM      6  C   UNL     1     109.957 130.337 136.454  0.00  0.00    +0.000 A 
ATOM      7  C   UNL     1     108.997 127.523 135.851  0.00  0.00    +0.000 C 
ATOM      8  C   UNL     1     109.872 128.872 136.221  0.00  0.00    +0.000 A 
ATOM      9  C   UNL     1     109.063 128.934 136.072  0.00  0.00    +0.000 A 
ATOM     10  C   UNL     1     110.338 129.567 136.415  0.00  0.00    +0.000 A 
ATOM     11  C   UNL     1     108.625 128.259 135.887  0.00  0.00    +0.000 C 
ATOM     12  C   UNL     1     109.114 130.400 136.298  0.00  0.00    +0.000 A 
ATOM     13  C   UNL     1     108.664 129.694 136.106  0.00  0.00    +0.000 A 
ENDROOT
BRANCH   5  14
ATOM     14  C   UNL     1     110.177 126.726 135.965  0.00  0.00    +0.000 A 
ATOM     15  C   UNL     1     110.421 126.422 135.238  0.00  0.00    +0.000 A 
ATOM     16  C   UNL     1     110.303 126.294 136.657  0.00  0.00    +0.000 A 
ATOM     17  C   UNL     1     110.792 125.686 135.203  0.00  0.00    +0.000 A 
ATOM     18  C   UNL     1     110.675 125.558 136.621  0.00  0.00    +0.000 A 
ATOM     19  C   UNL     1     110.919 125.254 135.894  0.00  0.00    +0.000 A 
BRANCH  19  20
ATOM     20  O   UNL     1     111.291 124.518 135.858  0.00  0.00    +0.000 OA
ATOM     21  C   UNL     1     111.800 124.284 136.463  0.00  0.00    +0.000 C 
ENDBRANCH  19  20
ENDBRANCH   5  14
BRANCH   6  22
ATOM     22  O   UNL     1     110.397 131.009 136.640  0.00  0.00    +0.000 OA
BRANCH  22  31
ATOM     23  O   UNL     1     110.340 130.862 138.060  0.00  0.00    +0.000 OA
ATOM     24  O   UNL     1     110.168 133.319 138.307  0.00  0.00    +0.000 OA
ATOM     25  O   UNL     1     110.168 132.353 139.645  0.00  0.00    +0.000 OA
ATOM     26  O   UNL     1     110.283 132.647 136.804  0.00  0.00    +0.000 OA
ATOM     27  C   UNL     1     110.226 132.500 138.225  0.00  0.00    +0.000 C 
ATOM     28  C   UNL     1     110.226 132.017 138.893  0.00  0.00    +0.000 C 
ATOM     29  C   UNL     1     110.283 132.164 137.474  0.00  0.00    +0.000 C 
ATOM     30  C   UNL     1     110.283 131.198 138.811  0.00  0.00    +0.000 C 
ATOM     31  C   UNL     1     110.340 131.345 137.391  0.00  0.00    +0.000 C 
ATOM     32  C   UNL     1     110.283 130.715 139.480  0.00  0.00    +0.000 C 
ENDBRANCH  22  31
ENDBRANCH   6  22
TORSDOF 4
ENDMDL
MODEL 2
REMARK VINA RESULT:      -9.2      6.699      7.697
REMARK  Name = 131752855
REMARK  4 active torsions:
REMARK  status: ('A' for Active; 'I' for Inactive)
REMARK    1  A    between atoms: O_2  and  C_15
REMARK    2  A    between atoms: O_2  and  C_18
REMARK    3  A    between atoms: O_10  and  C_31
REMARK    4  A    between atoms: C_17  and  C_25
REMARK                            x       y       z     vdW  Elec       q    Type
REMARK                         _______ _______ _______ _____ _____    ______ ____
ROOT
ATOM      1  O   UNL     1     104.915 124.470 139.540  0.00  0.00    +0.000 OA
ATOM      2  O   UNL     1     103.701 122.739 140.080  0.00  0.00    +0.000 OA
ATOM      3  O   UNL     1     105.571 123.656 142.233  0.00  0.00    +0.000 OA
ATOM      4  O   UNL     1     104.576 122.950 141.462  0.00  0.00    +0.000 OA
ATOM      5  C   UNL     1     104.364 123.858 139.489  0.00  0.00    +0.000 C 
ATOM      6  C   UNL     1     106.383 125.332 140.987  0.00  0.00    +0.000 A 
ATOM      7  C   UNL     1     104.251 123.352 140.130  0.00  0.00    +0.000 C 
ATOM      8  C   UNL     1     105.353 124.576 140.230  0.00  0.00    +0.000 A 
ATOM      9  C   UNL     1     105.240 124.069 140.871  0.00  0.00    +0.000 A 
ATOM     10  C   UNL     1     105.923 125.217 140.270  0.00  0.00    +0.000 A 
ATOM     11  C   UNL     1     104.689 123.457 140.821  0.00  0.00    +0.000 C 
ATOM     12  C   UNL     1     106.265 124.804 141.655  0.00  0.00    +0.000 A 
ATOM     13  C   UNL     1     105.690 124.168 141.597  0.00  0.00    +0.000 A 
ENDROOT
BRANCH   5  14
ATOM     14  C   UNL     1     103.926 123.753 138.798  0.00  0.00    +0.000 A 
ATOM     15  C   UNL     1     104.279 123.418 138.132  0.00  0.00    +0.000 A 
ATOM     16  C   UNL     1     103.133 123.983 138.773  0.00  0.00    +0.000 A 
ATOM     17  C   UNL     1     103.841 123.313 137.441  0.00  0.00    +0.000 A 
ATOM     18  C   UNL     1     102.695 123.877 138.082  0.00  0.00    +0.000 A 
ATOM     19  C   UNL     1     103.049 123.542 137.416  0.00  0.00    +0.000 A 
BRANCH  19  20
ATOM     20  O   UNL     1     102.610 123.437 136.725  0.00  0.00    +0.000 OA
ATOM     21  C   UNL     1     102.940 123.035 136.085  0.00  0.00    +0.000 C 
ENDBRANCH  19  20
ENDBRANCH   5  14
BRANCH   6  22
ATOM     22  O   UNL     1     106.933 125.946 141.034  0.00  0.00    +0.000 OA
BRANCH  22  31
ATOM     23  O   UNL     1     106.070 126.973 141.527  0.00  0.00    +0.000 OA
ATOM     24  O   UNL     1     107.845 127.715 143.085  0.00  0.00    +0.000 OA
ATOM     25  O   UNL     1     106.391 128.495 143.058  0.00  0.00    +0.000 OA
ATOM     26  O   UNL     1     108.116 126.440 142.072  0.00  0.00    +0.000 OA
ATOM     27  C   UNL     1     107.254 127.468 142.565  0.00  0.00    +0.000 C 
ATOM     28  C   UNL     1     106.527 127.857 142.552  0.00  0.00    +0.000 C 
ATOM     29  C   UNL     1     107.388 126.830 142.059  0.00  0.00    +0.000 C 
ATOM     30  C   UNL     1     105.935 127.610 142.033  0.00  0.00    +0.000 C 
ATOM     31  C   UNL     1     106.797 126.583 141.540  0.00  0.00    +0.000 C 
ATOM     32  C   UNL     1     105.208 128.000 142.020  0.00  0.00    +0.000 C 
ENDBRANCH  22  31
ENDBRANCH   6  22
TORSDOF 4
ENDMDL
MODEL 3
REMARK VINA RESULT:      -9.1     11.614     12.768
REMARK  Name = 131752855
REMARK  4 active torsions:
REMARK  status: ('A' for Active; 'I' for Inactive)
REMARK    1  A    between atoms: O_2  and  C_15
REMARK    2  A    between atoms: O_2  and  C_18
REMARK    3  A    between atoms: O_10  and  C_31
REMARK    4  A    between atoms: C_17  and  C_25
REMARK                            x       y       z     vdW  Elec       q    Type
REMARK                         _______ _______ _______ _____ _____    ______ ____
ROOT
ATOM      1  O   UNL     1     103.761 124.385 146.952  0.00  0.00    +0.000 OA
ATOM      2  O   UNL     1     102.277 123.734 148.414  0.00  0.00    +0.000 OA
ATOM      3  O   UNL     1     104.743 124.941 149.612  0.00  0.00    +0.000 OA
ATOM      4  O   UNL     1     103.455 124.325 149.407  0.00  0.00    +0.000 OA
ATOM      5  C   UNL     1     103.070 124.069 147.273  0.00  0.00    +0.000 C 
ATOM      6  C   UNL     1     105.682 125.316 147.612  0.00  0.00    +0.000 A 
ATOM      7  C   UNL     1     102.968 124.049 148.092  0.00  0.00    +0.000 C 
ATOM      8  C   UNL     1     104.350 124.680 147.448  0.00  0.00    +0.000 A 
ATOM      9  C   UNL     1     104.248 124.661 148.266  0.00  0.00    +0.000 A 
ATOM     10  C   UNL     1     105.065 125.007 147.101  0.00  0.00    +0.000 A 
ATOM     11  C   UNL     1     103.557 124.345 148.588  0.00  0.00    +0.000 C 
ATOM     12  C   UNL     1     105.576 125.295 148.465  0.00  0.00    +0.000 A 
ATOM     13  C   UNL     1     104.854 124.966 148.794  0.00  0.00    +0.000 A 
ENDROOT
BRANCH   5  14
ATOM     14  C   UNL     1     102.481 123.773 146.777  0.00  0.00    +0.000 A 
ATOM     15  C   UNL     1     102.576 123.036 146.418  0.00  0.00    +0.000 A 
ATOM     16  C   UNL     1     101.798 124.215 146.640  0.00  0.00    +0.000 A 
ATOM     17  C   UNL     1     101.987 122.741 145.922  0.00  0.00    +0.000 A 
ATOM     18  C   UNL     1     101.209 123.919 146.143  0.00  0.00    +0.000 A 
ATOM     19  C   UNL     1     101.303 123.182 145.785  0.00  0.00    +0.000 A 
BRANCH  19  20
ATOM     20  O   UNL     1     100.714 122.886 145.288  0.00  0.00    +0.000 OA
ATOM     21  C   UNL     1     100.853 122.820 144.478  0.00  0.00    +0.000 C 
ENDBRANCH  19  20
ENDBRANCH   5  14
BRANCH   6  22
ATOM     22  O   UNL     1     106.372 125.631 147.287  0.00  0.00    +0.000 OA
BRANCH  22  31
ATOM     23  O   UNL     1     105.983 127.005 147.336  0.00  0.00    +0.000 OA
ATOM     24  O   UNL     1     107.092 127.397 145.159  0.00  0.00    +0.000 OA
ATOM     25  O   UNL     1     106.333 128.641 145.934  0.00  0.00    +0.000 OA
ATOM     26  O   UNL     1     107.111 125.892 145.835  0.00  0.00    +0.000 OA
ATOM     27  C   UNL     1     106.722 127.267 145.885  0.00  0.00    +0.000 C 
ATOM     28  C   UNL     1     106.343 127.888 146.273  0.00  0.00    +0.000 C 
ATOM     29  C   UNL     1     106.732 126.515 146.223  0.00  0.00    +0.000 C 
ATOM     30  C   UNL     1     105.973 127.757 146.999  0.00  0.00    +0.000 C 
ATOM     31  C   UNL     1     106.362 126.384 146.949  0.00  0.00    +0.000 C 
ATOM     32  C   UNL     1     105.594 128.379 147.386  0.00  0.00    +0.000 C 
ENDBRANCH  22  31
ENDBRANCH   6  22
TORSDOF 4
ENDMDL
MODEL 4
REMARK VINA RESULT:      -9.0      9.440     11.130
REMARK  Name = 131752855
REMARK  4 active torsions:
REMARK  status: ('A' for Active; 'I' for Inactive)
REMARK    1  A    between atoms: O_2  and  C_15
REMARK    2  A    between atoms: O_2  and  C_18
REMARK    3  A    between atoms: O_10  and  C_31
REMARK    4  A    between atoms: C_17  and  C_25
REMARK                            x       y       z     vdW  Elec       q    Type
REMARK                         _______ _______ _______ _____ _____    ______ ____
ROOT
ATOM      1  O   UNL     1     105.368 126.517 144.130  0.00  0.00    +0.000 OA
ATOM      2  O   UNL     1     106.644 128.286 144.197  0.00  0.00    +0.000 OA
ATOM      3  O   UNL     1     107.221 126.266 146.332  0.00  0.00    +0.000 OA
ATOM      4  O   UNL     1     107.233 127.429 145.477  0.00  0.00    +0.000 OA
ATOM      5  C   UNL     1     105.695 127.250 143.938  0.00  0.00    +0.000 C 
ATOM      6  C   UNL     1     105.614 124.874 145.624  0.00  0.00    +0.000 A 
ATOM      7  C   UNL     1     106.317 127.554 144.388  0.00  0.00    +0.000 C 
ATOM      8  C   UNL     1     105.661 126.088 144.769  0.00  0.00    +0.000 A 
ATOM      9  C   UNL     1     106.283 126.392 145.219  0.00  0.00    +0.000 A 
ATOM     10  C   UNL     1     105.312 125.327 144.959  0.00  0.00    +0.000 A 
ATOM     11  C   UNL     1     106.611 127.124 145.028  0.00  0.00    +0.000 C 
ATOM     12  C   UNL     1     106.262 125.191 146.093  0.00  0.00    +0.000 A 
ATOM     13  C   UNL     1     106.599 125.955 145.888  0.00  0.00    +0.000 A 
ENDROOT
BRANCH   5  14
ATOM     14  C   UNL     1     105.401 127.679 143.298  0.00  0.00    +0.000 A 
ATOM     15  C   UNL     1     104.923 128.339 143.428  0.00  0.00    +0.000 A 
ATOM     16  C   UNL     1     105.585 127.448 142.527  0.00  0.00    +0.000 A 
ATOM     17  C   UNL     1     104.629 128.768 142.787  0.00  0.00    +0.000 A 
ATOM     18  C   UNL     1     105.291 127.878 141.887  0.00  0.00    +0.000 A 
ATOM     19  C   UNL     1     104.813 128.537 142.017  0.00  0.00    +0.000 A 
BRANCH  19  20
ATOM     20  O   UNL     1     104.519 128.966 141.377  0.00  0.00    +0.000 OA
ATOM     21  C   UNL     1     103.737 128.863 141.135  0.00  0.00    +0.000 C 
ENDBRANCH  19  20
ENDBRANCH   5  14
BRANCH   6  22
ATOM     22  O   UNL     1     105.284 124.142 145.813  0.00  0.00    +0.000 OA
BRANCH  22  31
ATOM     23  O   UNL     1     104.298 124.663 146.707  0.00  0.00    +0.000 OA
ATOM     24  O   UNL     1     102.737 122.865 146.031  0.00  0.00    +0.000 OA
ATOM     25  O   UNL     1     102.271 123.985 147.150  0.00  0.00    +0.000 OA
ATOM     26  O   UNL     1     104.243 122.943 145.363  0.00  0.00    +0.000 OA
ATOM     27  C   UNL     1     103.257 123.464 146.257  0.00  0.00    +0.000 C 
ATOM     28  C   UNL     1     103.025 124.024 146.816  0.00  0.00    +0.000 C 
ATOM     29  C   UNL     1     104.010 123.504 145.923  0.00  0.00    +0.000 C 
ATOM     30  C   UNL     1     103.545 124.624 147.041  0.00  0.00    +0.000 C 
ATOM     31  C   UNL     1     104.531 124.103 146.148  0.00  0.00    +0.000 C 
ATOM     32  C   UNL     1     103.312 125.183 147.600  0.00  0.00    +0.000 C 
ENDBRANCH  22  31
ENDBRANCH   6  22
TORSDOF 4
ENDMDL
MODEL 5
REMARK VINA RESULT:      -9.0      7.866      9.573
REMARK  Name = 131752855
REMARK  4 active torsions:
REMARK  status: ('A' for Active; 'I' for Inactive)
REMARK    1  A    between atoms: O_2  and  C_15
REMARK    2  A    between atoms: O_2  and  C_18
REMARK    3  A    between atoms: O_10  and  C_31
REMARK    4  A    between atoms: C_17  and  C_25
REMARK                            x       y       z     vdW  Elec       q    Type
REMARK                         _______ _______ _______ _____ _____    ______ ____
ROOT
ATOM      1  O   UNL     1     104.842 127.873 142.855  0.00  0.00    +0.000 OA
ATOM      2  O   UNL     1     105.784 129.127 141.337  0.00  0.00    +0.000 OA
ATOM      3  O   UNL     1     107.633 127.159 142.634  0.00  0.00    +0.000 OA
ATOM      4  O   UNL     1     107.063 128.200 141.814  0.00  0.00    +0.000 OA
ATOM      5  C   UNL     1     104.943 128.446 142.270  0.00  0.00    +0.000 C 
ATOM      6  C   UNL     1     106.025 126.331 143.958  0.00  0.00    +0.000 A 
ATOM      7  C   UNL     1     105.683 128.555 141.923  0.00  0.00    +0.000 C 
ATOM      8  C   UNL     1     105.481 127.410 143.094  0.00  0.00    +0.000 A 
ATOM      9  C   UNL     1     106.221 127.519 142.747  0.00  0.00    +0.000 A 
ATOM     10  C   UNL     1     105.364 126.817 143.704  0.00  0.00    +0.000 A 
ATOM     11  C   UNL     1     106.323 128.091 142.161  0.00  0.00    +0.000 C 
ATOM     12  C   UNL     1     106.797 126.445 143.596  0.00  0.00    +0.000 A 
ATOM     13  C   UNL     1     106.896 127.042 142.987  0.00  0.00    +0.000 A 
ENDROOT
BRANCH   5  14
ATOM     14  C   UNL     1     104.303 128.909 142.031  0.00  0.00    +0.000 A 
ATOM     15  C   UNL     1     103.898 128.727 141.336  0.00  0.00    +0.000 A 
ATOM     16  C   UNL     1     104.069 129.556 142.488  0.00  0.00    +0.000 A 
ATOM     17  C   UNL     1     103.259 129.191 141.098  0.00  0.00    +0.000 A 
ATOM     18  C   UNL     1     103.430 130.019 142.249  0.00  0.00    +0.000 A 
ATOM     19  C   UNL     1     103.025 129.837 141.554  0.00  0.00    +0.000 A 
BRANCH  19  20
ATOM     20  O   UNL     1     102.385 130.300 141.316  0.00  0.00    +0.000 OA
ATOM     21  C   UNL     1     102.514 131.059 141.018  0.00  0.00    +0.000 C 
ENDBRANCH  19  20
ENDBRANCH   5  14
BRANCH   6  22
ATOM     22  O   UNL     1     105.921 125.760 144.543  0.00  0.00    +0.000 OA
BRANCH  22  31
ATOM     23  O   UNL     1     106.148 126.670 145.622  0.00  0.00    +0.000 OA
ATOM     24  O   UNL     1     107.029 124.814 147.003  0.00  0.00    +0.000 OA
ATOM     25  O   UNL     1     106.962 126.343 147.620  0.00  0.00    +0.000 OA
ATOM     26  O   UNL     1     106.508 124.523 145.464  0.00  0.00    +0.000 OA
ATOM     27  C   UNL     1     106.735 125.433 146.542  0.00  0.00    +0.000 C 
ATOM     28  C   UNL     1     106.702 126.197 146.850  0.00  0.00    +0.000 C 
ATOM     29  C   UNL     1     106.475 125.288 145.773  0.00  0.00    +0.000 C 
ATOM     30  C   UNL     1     106.408 126.816 146.390  0.00  0.00    +0.000 C 
ATOM     31  C   UNL     1     106.181 125.906 145.313  0.00  0.00    +0.000 C 
ATOM     32  C   UNL     1     106.375 127.580 146.700  0.00  0.00    +0.000 C 
ENDBRANCH  22  31
ENDBRANCH   6  22
TORSDOF 4
ENDMDL
MODEL 6
REMARK VINA RESULT:      -9.0      1.800      3.118
REMARK  Name = 131752855
REMARK  4 active torsions:
REMARK  status: ('A' for Active; 'I' for Inactive)
REMARK    1  A    between atoms: O_2  and  C_15
REMARK    2  A    between atoms: O_2  and  C_18
REMARK    3  A    between atoms: O_10  and  C_31
REMARK    4  A    between atoms: C_17  and  C_25
REMARK                            x       y       z     vdW  Elec       q    Type
REMARK                         _______ _______ _______ _____ _____    ______ ____
ROOT
ATOM      1  O   UNL     1     111.487 127.195 136.149  0.00  0.00    +0.000 OA
ATOM      2  O   UNL     1     113.519 126.589 136.666  0.00  0.00    +0.000 OA
ATOM      3  O   UNL     1     113.284 129.406 135.675  0.00  0.00    +0.000 OA
ATOM      4  O   UNL     1     113.772 128.144 136.177  0.00  0.00    +0.000 OA
ATOM      5  C   UNL     1     112.122 126.733 136.403  0.00  0.00    +0.000 C 
ATOM      6  C   UNL     1     111.067 129.253 135.387  0.00  0.00    +0.000 A 
ATOM      7  C   UNL     1     112.883 127.050 136.412  0.00  0.00    +0.000 C 
ATOM      8  C   UNL     1     111.612 127.972 135.905  0.00  0.00    +0.000 A 
ATOM      9  C   UNL     1     112.374 128.289 135.914  0.00  0.00    +0.000 A 
ATOM     10  C   UNL     1     110.943 128.442 135.643  0.00  0.00    +0.000 A 
ATOM     11  C   UNL     1     113.009 127.828 136.168  0.00  0.00    +0.000 C 
ATOM     12  C   UNL     1     111.861 129.583 135.397  0.00  0.00    +0.000 A 
ATOM     13  C   UNL     1     112.519 129.098 135.662  0.00  0.00    +0.000 A 
ENDROOT
BRANCH   5  14
ATOM     14  C   UNL     1     111.995 125.955 136.648  0.00  0.00    +0.000 A 
ATOM     15  C   UNL     1     111.855 125.790 137.444  0.00  0.00    +0.000 A 
ATOM     16  C   UNL     1     112.010 125.342 136.095  0.00  0.00    +0.000 A 
ATOM     17  C   UNL     1     111.729 125.013 137.687  0.00  0.00    +0.000 A 
ATOM     18  C   UNL     1     111.884 124.564 136.339  0.00  0.00    +0.000 A 
ATOM     19  C   UNL     1     111.743 124.399 137.136  0.00  0.00    +0.000 A 
BRANCH  19  20
ATOM     20  O   UNL     1     111.617 123.622 137.380  0.00  0.00    +0.000 OA
ATOM     21  C   UNL     1     112.160 123.033 137.180  0.00  0.00    +0.000 C 
ENDBRANCH  19  20
ENDBRANCH   5  14
BRANCH   6  22
ATOM     22  O   UNL     1     110.430 129.711 135.134  0.00  0.00    +0.000 OA
BRANCH  22  31
ATOM     23  O   UNL     1     110.192 130.401 136.363  0.00  0.00    +0.000 OA
ATOM     24  O   UNL     1     107.752 130.226 135.988  0.00  0.00    +0.000 OA
ATOM     25  O   UNL     1     108.327 130.974 137.342  0.00  0.00    +0.000 OA
ATOM     26  O   UNL     1     108.803 129.595 134.884  0.00  0.00    +0.000 OA
ATOM     27  C   UNL     1     108.565 130.284 136.113  0.00  0.00    +0.000 C 
ATOM     28  C   UNL     1     108.853 130.658 136.789  0.00  0.00    +0.000 C 
ATOM     29  C   UNL     1     109.091 129.969 135.561  0.00  0.00    +0.000 C 
ATOM     30  C   UNL     1     109.667 130.716 136.914  0.00  0.00    +0.000 C 
ATOM     31  C   UNL     1     109.905 130.027 135.686  0.00  0.00    +0.000 C 
ATOM     32  C   UNL     1     109.954 131.090 137.592  0.00  0.00    +0.000 C 
ENDBRANCH  22  31
ENDBRANCH   6  22
TORSDOF 4
ENDMDL
MODEL 7
REMARK VINA RESULT:      -9.0      7.362      9.366
REMARK  Name = 131752855
REMARK  4 active torsions:
REMARK  status: ('A' for Active; 'I' for Inactive)
REMARK    1  A    between atoms: O_2  and  C_15
REMARK    2  A    between atoms: O_2  and  C_18
REMARK    3  A    between atoms: O_10  and  C_31
REMARK    4  A    between atoms: C_17  and  C_25
REMARK                            x       y       z     vdW  Elec       q    Type
REMARK                         _______ _______ _______ _____ _____    ______ ____
ROOT
ATOM      1  O   UNL     1     103.208 130.266 142.212  0.00  0.00    +0.000 OA
ATOM      2  O   UNL     1     102.271 130.379 140.244  0.00  0.00    +0.000 OA
ATOM      3  O   UNL     1     104.042 127.995 140.632  0.00  0.00    +0.000 OA
ATOM      4  O   UNL     1     103.141 128.986 140.095  0.00  0.00    +0.000 OA
ATOM      5  C   UNL     1     102.750 130.537 141.581  0.00  0.00    +0.000 C 
ATOM      6  C   UNL     1     104.572 128.574 142.731  0.00  0.00    +0.000 A 
ATOM      7  C   UNL     1     102.728 130.109 140.875  0.00  0.00    +0.000 C 
ATOM      8  C   UNL     1     103.643 129.570 142.138  0.00  0.00    +0.000 A 
ATOM      9  C   UNL     1     103.621 129.143 141.432  0.00  0.00    +0.000 A 
ATOM     10  C   UNL     1     104.116 129.298 142.802  0.00  0.00    +0.000 A 
ATOM     11  C   UNL     1     103.164 129.413 140.801  0.00  0.00    +0.000 C 
ATOM     12  C   UNL     1     104.549 128.129 141.995  0.00  0.00    +0.000 A 
ATOM     13  C   UNL     1     104.070 128.415 141.342  0.00  0.00    +0.000 A 
ENDROOT
BRANCH   5  14
ATOM     14  C   UNL     1     102.315 131.233 141.655  0.00  0.00    +0.000 A 
ATOM     15  C   UNL     1     102.658 131.957 141.457  0.00  0.00    +0.000 A 
ATOM     16  C   UNL     1     101.536 131.206 141.928  0.00  0.00    +0.000 A 
ATOM     17  C   UNL     1     102.222 132.653 141.531  0.00  0.00    +0.000 A 
ATOM     18  C   UNL     1     101.101 131.903 142.002  0.00  0.00    +0.000 A 
ATOM     19  C   UNL     1     101.444 132.626 141.804  0.00  0.00    +0.000 A 
BRANCH  19  20
ATOM     20  O   UNL     1     101.008 133.323 141.878  0.00  0.00    +0.000 OA
ATOM     21  C   UNL     1     101.376 134.053 141.767  0.00  0.00    +0.000 C 
ENDBRANCH  19  20
ENDBRANCH   5  14
BRANCH   6  22
ATOM     22  O   UNL     1     105.029 128.306 143.364  0.00  0.00    +0.000 OA
BRANCH  22  31
ATOM     23  O   UNL     1     106.256 128.955 143.023  0.00  0.00    +0.000 OA
ATOM     24  O   UNL     1     107.511 126.923 143.672  0.00  0.00    +0.000 OA
ATOM     25  O   UNL     1     108.319 128.249 143.115  0.00  0.00    +0.000 OA
ATOM     26  O   UNL     1     105.865 126.952 143.797  0.00  0.00    +0.000 OA
ATOM     27  C   UNL     1     107.092 127.600 143.456  0.00  0.00    +0.000 C 
ATOM     28  C   UNL     1     107.496 128.263 143.177  0.00  0.00    +0.000 C 
ATOM     29  C   UNL     1     106.270 127.615 143.518  0.00  0.00    +0.000 C 
ATOM     30  C   UNL     1     107.077 128.941 142.961  0.00  0.00    +0.000 C 
ATOM     31  C   UNL     1     105.852 128.293 143.301  0.00  0.00    +0.000 C 
ATOM     32  C   UNL     1     107.482 129.604 142.682  0.00  0.00    +0.000 C 
ENDBRANCH  22  31
ENDBRANCH   6  22
TORSDOF 4
ENDMDL
MODEL 8
REMARK VINA RESULT:      -8.9      2.608      4.445
REMARK  Name = 131752855
REMARK  4 active torsions:
REMARK  status: ('A' for Active; 'I' for Inactive)
REMARK    1  A    between atoms: O_2  and  C_15
REMARK    2  A    between atoms: O_2  and  C_18
REMARK    3  A    between atoms: O_10  and  C_31
REMARK    4  A    between atoms: C_17  and  C_25
REMARK                            x       y       z     vdW  Elec       q    Type
REMARK                         _______ _______ _______ _____ _____    ______ ____
ROOT
ATOM      1  O   UNL     1     112.158 126.925 137.521  0.00  0.00    +0.000 OA
ATOM      2  O   UNL     1     112.210 124.955 138.460  0.00  0.00    +0.000 OA
ATOM      3  O   UNL     1     110.978 124.988 135.731  0.00  0.00    +0.000 OA
ATOM      4  O   UNL     1     111.489 124.595 137.021  0.00  0.00    +0.000 OA
ATOM      5  C   UNL     1     112.296 126.329 138.074  0.00  0.00    +0.000 C 
ATOM      6  C   UNL     1     111.284 127.194 135.482  0.00  0.00    +0.000 A 
ATOM      7  C   UNL     1     112.073 125.552 137.907  0.00  0.00    +0.000 C 
ATOM      8  C   UNL     1     111.797 126.745 136.802  0.00  0.00    +0.000 A 
ATOM      9  C   UNL     1     111.574 125.969 136.635  0.00  0.00    +0.000 A 
ATOM     10  C   UNL     1     111.659 127.375 136.234  0.00  0.00    +0.000 A 
ATOM     11  C   UNL     1     111.712 125.372 137.188  0.00  0.00    +0.000 C 
ATOM     12  C   UNL     1     111.051 126.385 135.308  0.00  0.00    +0.000 A 
ATOM     13  C   UNL     1     111.197 125.768 135.888  0.00  0.00    +0.000 A 
ENDROOT
BRANCH   5  14
ATOM     14  C   UNL     1     112.657 126.508 138.794  0.00  0.00    +0.000 A 
ATOM     15  C   UNL     1     112.195 126.706 139.449  0.00  0.00    +0.000 A 
ATOM     16  C   UNL     1     113.479 126.491 138.859  0.00  0.00    +0.000 A 
ATOM     17  C   UNL     1     112.556 126.885 140.168  0.00  0.00    +0.000 A 
ATOM     18  C   UNL     1     113.840 126.670 139.579  0.00  0.00    +0.000 A 
ATOM     19  C   UNL     1     113.379 126.868 140.233  0.00  0.00    +0.000 A 
BRANCH  19  20
ATOM     20  O   UNL     1     113.739 127.048 140.953  0.00  0.00    +0.000 OA
ATOM     21  C   UNL     1     114.549 127.205 140.981  0.00  0.00    +0.000 C 
ENDBRANCH  19  20
ENDBRANCH   5  14
BRANCH   6  22
ATOM     22  O   UNL     1     111.147 127.793 134.931  0.00  0.00    +0.000 OA
BRANCH  22  31
ATOM     23  O   UNL     1     109.808 128.079 135.337  0.00  0.00    +0.000 OA
ATOM     24  O   UNL     1     110.175 130.479 134.859  0.00  0.00    +0.000 OA
ATOM     25  O   UNL     1     108.713 129.965 135.424  0.00  0.00    +0.000 OA
ATOM     26  O   UNL     1     111.392 129.393 134.612  0.00  0.00    +0.000 OA
ATOM     27  C   UNL     1     110.053 129.679 135.018  0.00  0.00    +0.000 C 
ATOM     28  C   UNL     1     109.322 129.422 135.301  0.00  0.00    +0.000 C 
ATOM     29  C   UNL     1     110.661 129.136 134.895  0.00  0.00    +0.000 C 
ATOM     30  C   UNL     1     109.199 128.622 135.460  0.00  0.00    +0.000 C 
ATOM     31  C   UNL     1     110.538 128.336 135.055  0.00  0.00    +0.000 C 
ATOM     32  C   UNL     1     108.468 128.365 135.743  0.00  0.00    +0.000 C 
ENDBRANCH  22  31
ENDBRANCH   6  22
TORSDOF 4
ENDMDL
MODEL 9
REMARK VINA RESULT:      -8.9      1.761      3.520
REMARK  Name = 131752855
REMARK  4 active torsions:
REMARK  status: ('A' for Active; 'I' for Inactive)
REMARK    1  A    between atoms: O_2  and  C_15
REMARK    2  A    between atoms: O_2  and  C_18
REMARK    3  A    between atoms: O_10  and  C_31
REMARK    4  A    between atoms: C_17  and  C_25
REMARK                            x       y       z     vdW  Elec       q    Type
REMARK                         _______ _______ _______ _____ _____    ______ ____
ROOT
ATOM      1  O   UNL     1     111.564 126.290 136.641  0.00  0.00    +0.000 OA
ATOM      2  O   UNL     1     111.854 125.011 138.385  0.00  0.00    +0.000 OA
ATOM      3  O   UNL     1     109.170 126.336 138.258  0.00  0.00    +0.000 OA
ATOM      4  O   UNL     1     110.317 125.551 138.646  0.00  0.00    +0.000 OA
ATOM      5  C   UNL     1     111.917 125.774 137.178  0.00  0.00    +0.000 C 
ATOM      6  C   UNL     1     109.640 127.383 136.333  0.00  0.00    +0.000 A 
ATOM      7  C   UNL     1     111.501 125.528 137.847  0.00  0.00    +0.000 C 
ATOM      8  C   UNL     1     110.796 126.561 136.770  0.00  0.00    +0.000 A 
ATOM      9  C   UNL     1     110.380 126.314 137.439  0.00  0.00    +0.000 A 
ATOM     10  C   UNL     1     110.440 127.098 136.203  0.00  0.00    +0.000 A 
ATOM     11  C   UNL     1     110.733 125.798 137.977  0.00  0.00    +0.000 C 
ATOM     12  C   UNL     1     109.206 127.126 137.030  0.00  0.00    +0.000 A 
ATOM     13  C   UNL     1     109.579 126.588 137.586  0.00  0.00    +0.000 A 
ENDROOT
BRANCH   5  14
ATOM     14  C   UNL     1     112.686 125.503 137.048  0.00  0.00    +0.000 A 
ATOM     15  C   UNL     1     113.329 125.940 137.324  0.00  0.00    +0.000 A 
ATOM     16  C   UNL     1     112.811 124.796 136.642  0.00  0.00    +0.000 A 
ATOM     17  C   UNL     1     114.097 125.669 137.194  0.00  0.00    +0.000 A 
ATOM     18  C   UNL     1     113.579 124.526 136.511  0.00  0.00    +0.000 A 
ATOM     19  C   UNL     1     114.222 124.962 136.787  0.00  0.00    +0.000 A 
BRANCH  19  20
ATOM     20  O   UNL     1     114.991 124.692 136.657  0.00  0.00    +0.000 OA
ATOM     21  C   UNL     1     115.466 125.056 136.089  0.00  0.00    +0.000 C 
ENDBRANCH  19  20
ENDBRANCH   5  14
BRANCH   6  22
ATOM     22  O   UNL     1     109.290 127.900 135.793  0.00  0.00    +0.000 OA
BRANCH  22  31
ATOM     23  O   UNL     1     109.998 129.092 136.139  0.00  0.00    +0.000 OA
ATOM     24  O   UNL     1     107.897 130.389 135.968  0.00  0.00    +0.000 OA
ATOM     25  O   UNL     1     109.305 131.149 136.371  0.00  0.00    +0.000 OA
ATOM     26  O   UNL     1     107.889 128.765 135.679  0.00  0.00    +0.000 OA
ATOM     27  C   UNL     1     108.597 129.957 136.025  0.00  0.00    +0.000 C 
ATOM     28  C   UNL     1     109.301 130.336 136.227  0.00  0.00    +0.000 C 
ATOM     29  C   UNL     1     108.594 129.145 135.881  0.00  0.00    +0.000 C 
ATOM     30  C   UNL     1     110.002 129.903 136.284  0.00  0.00    +0.000 C 
ATOM     31  C   UNL     1     109.294 128.712 135.938  0.00  0.00    +0.000 C 
ATOM     32  C   UNL     1     110.706 130.284 136.485  0.00  0.00    +0.000 C 
ENDBRANCH  22  31
ENDBRANCH   6  22
TORSDOF 4
ENDMDL
MODEL 10
REMARK VINA RESULT:      -8.8     10.662     12.615
REMARK  Name = 131752855
REMARK  4 active torsions:
REMARK  status: ('A' for Active; 'I' for Inactive)
REMARK    1  A    between atoms: O_2  and  C_15
REMARK    2  A    between atoms: O_2  and  C_18
REMARK    3  A    between atoms: O_10  and  C_31
REMARK    4  A    between atoms: C_17  and  C_25
REMARK                            x       y       z     vdW  Elec       q    Type
REMARK                         _______ _______ _______ _____ _____    ______ ____
ROOT
ATOM      1  O   UNL     1     105.658 126.472 146.757  0.00  0.00    +0.000 OA
ATOM      2  O   UNL     1     107.836 126.538 146.885  0.00  0.00    +0.000 OA
ATOM      3  O   UNL     1     106.596 124.136 148.174  0.00  0.00    +0.000 OA
ATOM      4  O   UNL     1     107.520 125.125 147.675  0.00  0.00    +0.000 OA
ATOM      5  C   UNL     1     106.437 126.730 146.668  0.00  0.00    +0.000 C 
ATOM      6  C   UNL     1     104.513 124.773 147.648  0.00  0.00    +0.000 A 
ATOM      7  C   UNL     1     107.057 126.281 146.974  0.00  0.00    +0.000 C 
ATOM      8  C   UNL     1     105.499 125.766 147.151  0.00  0.00    +0.000 A 
ATOM      9  C   UNL     1     106.120 125.317 147.458  0.00  0.00    +0.000 A 
ATOM     10  C   UNL     1     104.685 125.508 147.238  0.00  0.00    +0.000 A 
ATOM     11  C   UNL     1     106.899 125.574 147.369  0.00  0.00    +0.000 C 
ATOM     12  C   UNL     1     105.160 124.304 147.967  0.00  0.00    +0.000 A 
ATOM     13  C   UNL     1     105.968 124.578 147.871  0.00  0.00    +0.000 A 
ENDROOT
BRANCH   5  14
ATOM     14  C   UNL     1     106.595 127.437 146.273  0.00  0.00    +0.000 A 
ATOM     15  C   UNL     1     106.646 128.144 146.695  0.00  0.00    +0.000 A 
ATOM     16  C   UNL     1     106.703 127.436 145.454  0.00  0.00    +0.000 A 
ATOM     17  C   UNL     1     106.804 128.850 146.300  0.00  0.00    +0.000 A 
ATOM     18  C   UNL     1     106.861 128.143 145.059  0.00  0.00    +0.000 A 
ATOM     19  C   UNL     1     106.912 128.850 145.482  0.00  0.00    +0.000 A 
BRANCH  19  20
ATOM     20  O   UNL     1     107.070 129.557 145.087  0.00  0.00    +0.000 OA
ATOM     21  C   UNL     1     107.849 129.818 145.005  0.00  0.00    +0.000 C 
ENDBRANCH  19  20
ENDBRANCH   5  14
BRANCH   6  22
ATOM     22  O   UNL     1     103.733 124.517 147.735  0.00  0.00    +0.000 OA
BRANCH  22  31
ATOM     23  O   UNL     1     103.746 123.628 146.616  0.00  0.00    +0.000 OA
ATOM     24  O   UNL     1     101.367 124.151 146.174  0.00  0.00    +0.000 OA
ATOM     25  O   UNL     1     102.173 123.088 145.203  0.00  0.00    +0.000 OA
ATOM     26  O   UNL     1     102.148 124.866 147.440  0.00  0.00    +0.000 OA
ATOM     27  C   UNL     1     102.160 123.977 146.321  0.00  0.00    +0.000 C 
ATOM     28  C   UNL     1     102.563 123.445 145.836  0.00  0.00    +0.000 C 
ATOM     29  C   UNL     1     102.551 124.334 146.954  0.00  0.00    +0.000 C 
ATOM     30  C   UNL     1     103.356 123.271 145.984  0.00  0.00    +0.000 C 
ATOM     31  C   UNL     1     103.344 124.160 147.102  0.00  0.00    +0.000 C 
ATOM     32  C   UNL     1     103.758 122.739 145.498  0.00  0.00    +0.000 C 
ENDBRANCH  22  31
ENDBRANCH   6  22
TORSDOF 4
ENDMDL
