MODEL 1
REMARK VINA RESULT:      -9.1      0.000      0.000
REMARK  Name = 131752227
REMARK  6 active torsions:
REMARK  status: ('A' for Active; 'I' for Inactive)
REMARK    1  A    between atoms: O_2  and  C_18
REMARK    2  A    between atoms: O_2  and  C_20
REMARK    3  A    between atoms: O_9  and  C_27
REMARK    4  A    between atoms: O_12  and  C_34
REMARK    5  A    between atoms: C_17  and  C_19
REMARK    6  A    between atoms: C_21  and  C_25
REMARK                            x       y       z     vdW  Elec       q    Type
REMARK                         _______ _______ _______ _____ _____    ______ ____
ROOT
ATOM      1  O   UNL     1     105.684 124.476 147.725  0.00  0.00    +0.000 OA
ATOM      2  O   UNL     1     106.982 125.657 145.978  0.00  0.00    +0.000 OA
ATOM      3  O   UNL     1     108.147 125.693 146.828  0.00  0.00    +0.000 OA
ATOM      4  O   UNL     1     107.996 124.511 149.495  0.00  0.00    +0.000 OA
ATOM      5  C   UNL     1     105.763 125.056 146.420  0.00  0.00    +0.000 A 
ATOM      6  C   UNL     1     105.331 124.662 147.003  0.00  0.00    +0.000 A 
ATOM      7  C   UNL     1     106.549 125.263 146.561  0.00  0.00    +0.000 A 
ATOM      8  C   UNL     1     106.903 125.077 147.283  0.00  0.00    +0.000 A 
ATOM      9  C   UNL     1     106.470 124.684 147.864  0.00  0.00    +0.000 A 
ATOM     10  C   UNL     1     107.722 125.299 147.416  0.00  0.00    +0.000 A 
ATOM     11  C   UNL     1     106.827 124.485 148.620  0.00  0.00    +0.000 A 
ATOM     12  C   UNL     1     107.645 124.698 148.772  0.00  0.00    +0.000 A 
ATOM     13  C   UNL     1     108.096 125.108 148.166  0.00  0.00    +0.000 A 
ENDROOT
BRANCH   6  15
ATOM     14  O   UNL     1     102.541 125.087 147.455  0.00  0.00    +0.000 OA
ATOM     15  C   UNL     1     104.545 124.454 146.862  0.00  0.00    +0.000 A 
ATOM     16  C   UNL     1     103.936 124.874 147.229  0.00  0.00    +0.000 A 
ATOM     17  C   UNL     1     104.367 123.828 146.356  0.00  0.00    +0.000 A 
ATOM     18  C   UNL     1     103.150 124.667 147.089  0.00  0.00    +0.000 A 
ATOM     19  C   UNL     1     103.580 123.621 146.216  0.00  0.00    +0.000 A 
ATOM     20  C   UNL     1     102.972 124.040 146.582  0.00  0.00    +0.000 A 
BRANCH  20  21
ATOM     21  O   UNL     1     102.186 123.834 146.442  0.00  0.00    +0.000 OA
ATOM     22  C   UNL     1     101.998 123.318 145.826  0.00  0.00    +0.000 C 
ENDBRANCH  20  21
ENDBRANCH   6  15
BRANCH  11  23
ATOM     23  O   UNL     1     106.387 124.091 149.197  0.00  0.00    +0.000 OA
ATOM     24  C   UNL     1     106.719 123.458 149.608  0.00  0.00    +0.000 C 
ENDBRANCH  11  23
BRANCH   5  25
ATOM     25  O   UNL     1     105.410 125.242 145.698  0.00  0.00    +0.000 OA
BRANCH  25  34
ATOM     26  O   UNL     1     105.291 126.638 145.975  0.00  0.00    +0.000 OA
ATOM     27  O   UNL     1     105.561 127.138 143.566  0.00  0.00    +0.000 OA
ATOM     28  O   UNL     1     105.353 128.368 144.645  0.00  0.00    +0.000 OA
ATOM     29  O   UNL     1     105.590 125.575 144.092  0.00  0.00    +0.000 OA
ATOM     30  C   UNL     1     105.471 126.972 144.369  0.00  0.00    +0.000 C 
ATOM     31  C   UNL     1     105.367 127.586 144.909  0.00  0.00    +0.000 C 
ATOM     32  C   UNL     1     105.485 126.189 144.632  0.00  0.00    +0.000 C 
ATOM     33  C   UNL     1     105.277 127.420 145.712  0.00  0.00    +0.000 C 
ATOM     34  C   UNL     1     105.396 126.023 145.435  0.00  0.00    +0.000 C 
BRANCH  33  36
ATOM     35  O   UNL     1     104.488 128.071 146.709  0.00  0.00    +0.000 OA
ATOM     36  C   UNL     1     105.173 128.034 146.251  0.00  0.00    +0.000 C 
ENDBRANCH  33  36
ENDBRANCH  25  34
ENDBRANCH   5  25
TORSDOF 6
ENDMDL
MODEL 2
REMARK VINA RESULT:      -8.8     10.429     12.724
REMARK  Name = 131752227
REMARK  6 active torsions:
REMARK  status: ('A' for Active; 'I' for Inactive)
REMARK    1  A    between atoms: O_2  and  C_18
REMARK    2  A    between atoms: O_2  and  C_20
REMARK    3  A    between atoms: O_9  and  C_27
REMARK    4  A    between atoms: O_12  and  C_34
REMARK    5  A    between atoms: C_17  and  C_19
REMARK    6  A    between atoms: C_21  and  C_25
REMARK                            x       y       z     vdW  Elec       q    Type
REMARK                         _______ _______ _______ _____ _____    ______ ____
ROOT
ATOM      1  O   UNL     1     113.073 126.583 136.715  0.00  0.00    +0.000 OA
ATOM      2  O   UNL     1     110.923 126.399 135.502  0.00  0.00    +0.000 OA
ATOM      3  O   UNL     1     110.896 124.971 135.708  0.00  0.00    +0.000 OA
ATOM      4  O   UNL     1     113.087 123.707 137.169  0.00  0.00    +0.000 OA
ATOM      5  C   UNL     1     111.999 127.197 135.999  0.00  0.00    +0.000 A 
ATOM      6  C   UNL     1     112.716 127.259 136.404  0.00  0.00    +0.000 A 
ATOM      7  C   UNL     1     111.640 126.461 135.907  0.00  0.00    +0.000 A 
ATOM      8  C   UNL     1     111.997 125.785 136.218  0.00  0.00    +0.000 A 
ATOM      9  C   UNL     1     112.713 125.847 136.621  0.00  0.00    +0.000 A 
ATOM     10  C   UNL     1     111.613 125.023 136.114  0.00  0.00    +0.000 A 
ATOM     11  C   UNL     1     113.096 125.151 136.950  0.00  0.00    +0.000 A 
ATOM     12  C   UNL     1     112.727 124.380 136.857  0.00  0.00    +0.000 A 
ATOM     13  C   UNL     1     111.981 124.317 136.436  0.00  0.00    +0.000 A 
ENDROOT
BRANCH   6  15
ATOM     14  O   UNL     1     113.383 129.496 138.053  0.00  0.00    +0.000 OA
ATOM     15  C   UNL     1     113.075 127.996 136.496  0.00  0.00    +0.000 A 
ATOM     16  C   UNL     1     113.049 128.377 137.228  0.00  0.00    +0.000 A 
ATOM     17  C   UNL     1     113.458 128.352 135.859  0.00  0.00    +0.000 A 
ATOM     18  C   UNL     1     113.408 129.114 137.321  0.00  0.00    +0.000 A 
ATOM     19  C   UNL     1     113.817 129.089 135.953  0.00  0.00    +0.000 A 
ATOM     20  C   UNL     1     113.792 129.470 136.683  0.00  0.00    +0.000 A 
BRANCH  20  21
ATOM     21  O   UNL     1     114.150 130.207 136.777  0.00  0.00    +0.000 OA
ATOM     22  C   UNL     1     114.551 130.554 136.145  0.00  0.00    +0.000 C 
ENDBRANCH  20  21
ENDBRANCH   6  15
BRANCH  11  23
ATOM     23  O   UNL     1     113.813 125.221 137.353  0.00  0.00    +0.000 OA
ATOM     24  C   UNL     1     114.442 124.721 137.166  0.00  0.00    +0.000 C 
ENDBRANCH  11  23
BRANCH   5  25
ATOM     25  O   UNL     1     111.641 127.873 135.688  0.00  0.00    +0.000 OA
BRANCH  25  34
ATOM     26  O   UNL     1     110.641 127.950 136.705  0.00  0.00    +0.000 OA
ATOM     27  O   UNL     1     109.079 128.990 135.091  0.00  0.00    +0.000 OA
ATOM     28  O   UNL     1     108.600 128.720 136.646  0.00  0.00    +0.000 OA
ATOM     29  O   UNL     1     110.600 128.566 134.612  0.00  0.00    +0.000 OA
ATOM     30  C   UNL     1     109.600 128.643 135.629  0.00  0.00    +0.000 C 
ATOM     31  C   UNL     1     109.360 128.508 136.407  0.00  0.00    +0.000 C 
ATOM     32  C   UNL     1     110.361 128.431 135.390  0.00  0.00    +0.000 C 
ATOM     33  C   UNL     1     109.881 128.161 136.945  0.00  0.00    +0.000 C 
ATOM     34  C   UNL     1     110.881 128.084 135.928  0.00  0.00    +0.000 C 
BRANCH  33  36
ATOM     35  O   UNL     1     110.026 128.406 138.345  0.00  0.00    +0.000 OA
ATOM     36  C   UNL     1     109.641 128.026 137.722  0.00  0.00    +0.000 C 
ENDBRANCH  33  36
ENDBRANCH  25  34
ENDBRANCH   5  25
TORSDOF 6
ENDMDL
MODEL 3
REMARK VINA RESULT:      -8.6      9.964     12.104
REMARK  Name = 131752227
REMARK  6 active torsions:
REMARK  status: ('A' for Active; 'I' for Inactive)
REMARK    1  A    between atoms: O_2  and  C_18
REMARK    2  A    between atoms: O_2  and  C_20
REMARK    3  A    between atoms: O_9  and  C_27
REMARK    4  A    between atoms: O_12  and  C_34
REMARK    5  A    between atoms: C_17  and  C_19
REMARK    6  A    between atoms: C_21  and  C_25
REMARK                            x       y       z     vdW  Elec       q    Type
REMARK                         _______ _______ _______ _____ _____    ______ ____
ROOT
ATOM      1  O   UNL     1     113.062 128.201 138.603  0.00  0.00    +0.000 OA
ATOM      2  O   UNL     1     112.144 125.975 139.179  0.00  0.00    +0.000 OA
ATOM      3  O   UNL     1     112.536 126.139 140.558  0.00  0.00    +0.000 OA
ATOM      4  O   UNL     1     113.882 128.601 141.369  0.00  0.00    +0.000 OA
ATOM      5  C   UNL     1     112.404 126.994 138.211  0.00  0.00    +0.000 A 
ATOM      6  C   UNL     1     112.710 127.737 138.019  0.00  0.00    +0.000 A 
ATOM      7  C   UNL     1     112.450 126.718 138.987  0.00  0.00    +0.000 A 
ATOM      8  C   UNL     1     112.803 127.182 139.571  0.00  0.00    +0.000 A 
ATOM      9  C   UNL     1     113.108 127.923 139.379  0.00  0.00    +0.000 A 
ATOM     10  C   UNL     1     112.845 126.882 140.375  0.00  0.00    +0.000 A 
ATOM     11  C   UNL     1     113.478 128.417 139.977  0.00  0.00    +0.000 A 
ATOM     12  C   UNL     1     113.529 128.134 140.787  0.00  0.00    +0.000 A 
ATOM     13  C   UNL     1     113.210 127.361 140.987  0.00  0.00    +0.000 A 
ENDROOT
BRANCH   6  15
ATOM     14  O   UNL     1     113.973 128.338 135.527  0.00  0.00    +0.000 OA
ATOM     15  C   UNL     1     112.664 128.013 137.244  0.00  0.00    +0.000 A 
ATOM     16  C   UNL     1     113.342 128.037 136.773  0.00  0.00    +0.000 A 
ATOM     17  C   UNL     1     111.940 128.266 136.938  0.00  0.00    +0.000 A 
ATOM     18  C   UNL     1     113.295 128.314 135.997  0.00  0.00    +0.000 A 
ATOM     19  C   UNL     1     111.895 128.543 136.162  0.00  0.00    +0.000 A 
ATOM     20  C   UNL     1     112.572 128.566 135.692  0.00  0.00    +0.000 A 
BRANCH  20  21
ATOM     21  O   UNL     1     112.526 128.843 134.916  0.00  0.00    +0.000 OA
ATOM     22  C   UNL     1     111.805 129.105 134.613  0.00  0.00    +0.000 C 
ENDBRANCH  20  21
ENDBRANCH   6  15
BRANCH  11  23
ATOM     23  O   UNL     1     113.781 129.158 139.777  0.00  0.00    +0.000 OA
ATOM     24  C   UNL     1     113.516 129.833 140.171  0.00  0.00    +0.000 C 
ENDBRANCH  11  23
BRANCH   5  25
ATOM     25  O   UNL     1     112.052 126.530 137.627  0.00  0.00    +0.000 OA
BRANCH  25  34
ATOM     26  O   UNL     1     113.164 125.640 137.510  0.00  0.00    +0.000 OA
ATOM     27  O   UNL     1     111.631 123.810 136.857  0.00  0.00    +0.000 OA
ATOM     28  O   UNL     1     113.253 123.531 136.957  0.00  0.00    +0.000 OA
ATOM     29  O   UNL     1     111.030 125.310 137.192  0.00  0.00    +0.000 OA
ATOM     30  C   UNL     1     112.142 124.420 137.074  0.00  0.00    +0.000 C 
ATOM     31  C   UNL     1     112.953 124.281 137.125  0.00  0.00    +0.000 C 
ATOM     32  C   UNL     1     111.841 125.171 137.242  0.00  0.00    +0.000 C 
ATOM     33  C   UNL     1     113.464 124.891 137.342  0.00  0.00    +0.000 C 
ATOM     34  C   UNL     1     112.352 125.781 137.460  0.00  0.00    +0.000 C 
BRANCH  33  36
ATOM     35  O   UNL     1     114.786 125.079 136.833  0.00  0.00    +0.000 OA
ATOM     36  C   UNL     1     114.275 124.751 137.392  0.00  0.00    +0.000 C 
ENDBRANCH  33  36
ENDBRANCH  25  34
ENDBRANCH   5  25
TORSDOF 6
ENDMDL
MODEL 4
REMARK VINA RESULT:      -8.6      0.935      3.624
REMARK  Name = 131752227
REMARK  6 active torsions:
REMARK  status: ('A' for Active; 'I' for Inactive)
REMARK    1  A    between atoms: O_2  and  C_18
REMARK    2  A    between atoms: O_2  and  C_20
REMARK    3  A    between atoms: O_9  and  C_27
REMARK    4  A    between atoms: O_12  and  C_34
REMARK    5  A    between atoms: C_17  and  C_19
REMARK    6  A    between atoms: C_21  and  C_25
REMARK                            x       y       z     vdW  Elec       q    Type
REMARK                         _______ _______ _______ _____ _____    ______ ____
ROOT
ATOM      1  O   UNL     1     106.594 125.475 146.990  0.00  0.00    +0.000 OA
ATOM      2  O   UNL     1     104.572 124.712 148.198  0.00  0.00    +0.000 OA
ATOM      3  O   UNL     1     105.375 124.222 149.292  0.00  0.00    +0.000 OA
ATOM      4  O   UNL     1     108.279 124.510 149.161  0.00  0.00    +0.000 OA
ATOM      5  C   UNL     1     105.173 125.331 147.059  0.00  0.00    +0.000 A 
ATOM      6  C   UNL     1     105.847 125.586 146.657  0.00  0.00    +0.000 A 
ATOM      7  C   UNL     1     105.246 124.966 147.795  0.00  0.00    +0.000 A 
ATOM      8  C   UNL     1     105.992 124.855 148.129  0.00  0.00    +0.000 A 
ATOM      9  C   UNL     1     106.666 125.109 147.727  0.00  0.00    +0.000 A 
ATOM     10  C   UNL     1     106.055 124.473 148.896  0.00  0.00    +0.000 A 
ATOM     11  C   UNL     1     107.449 125.000 148.063  0.00  0.00    +0.000 A 
ATOM     12  C   UNL     1     107.531 124.620 148.829  0.00  0.00    +0.000 A 
ATOM     13  C   UNL     1     106.829 124.355 149.248  0.00  0.00    +0.000 A 
ENDROOT
BRANCH   6  15
ATOM     14  O   UNL     1     106.168 125.517 143.818  0.00  0.00    +0.000 OA
ATOM     15  C   UNL     1     105.774 125.951 145.921  0.00  0.00    +0.000 A 
ATOM     16  C   UNL     1     106.008 125.552 145.237  0.00  0.00    +0.000 A 
ATOM     17  C   UNL     1     105.467 126.715 145.868  0.00  0.00    +0.000 A 
ATOM     18  C   UNL     1     105.934 125.917 144.501  0.00  0.00    +0.000 A 
ATOM     19  C   UNL     1     105.395 127.080 145.131  0.00  0.00    +0.000 A 
ATOM     20  C   UNL     1     105.628 126.681 144.448  0.00  0.00    +0.000 A 
BRANCH  20  21
ATOM     21  O   UNL     1     105.555 127.046 143.711  0.00  0.00    +0.000 OA
ATOM     22  C   UNL     1     105.297 127.827 143.662  0.00  0.00    +0.000 C 
ENDBRANCH  20  21
ENDBRANCH   6  15
BRANCH  11  23
ATOM     23  O   UNL     1     108.117 125.257 147.654  0.00  0.00    +0.000 OA
ATOM     24  C   UNL     1     108.847 124.895 147.786  0.00  0.00    +0.000 C 
ENDBRANCH  11  23
BRANCH   5  25
ATOM     25  O   UNL     1     104.426 125.443 146.726  0.00  0.00    +0.000 OA
BRANCH  25  34
ATOM     26  O   UNL     1     104.223 124.105 146.267  0.00  0.00    +0.000 OA
ATOM     27  O   UNL     1     101.841 124.240 146.926  0.00  0.00    +0.000 OA
ATOM     28  O   UNL     1     102.432 122.858 146.247  0.00  0.00    +0.000 OA
ATOM     29  O   UNL     1     102.839 125.533 147.165  0.00  0.00    +0.000 OA
ATOM     30  C   UNL     1     102.635 124.195 146.706  0.00  0.00    +0.000 C 
ATOM     31  C   UNL     1     102.931 123.504 146.367  0.00  0.00    +0.000 C 
ATOM     32  C   UNL     1     103.134 124.842 146.826  0.00  0.00    +0.000 C 
ATOM     33  C   UNL     1     103.725 123.459 146.147  0.00  0.00    +0.000 C 
ATOM     34  C   UNL     1     103.928 124.797 146.606  0.00  0.00    +0.000 C 
BRANCH  33  36
ATOM     35  O   UNL     1     104.363 122.789 145.058  0.00  0.00    +0.000 OA
ATOM     36  C   UNL     1     104.020 122.768 145.808  0.00  0.00    +0.000 C 
ENDBRANCH  33  36
ENDBRANCH  25  34
ENDBRANCH   5  25
TORSDOF 6
ENDMDL
MODEL 5
REMARK VINA RESULT:      -8.5      9.974     12.305
REMARK  Name = 131752227
REMARK  6 active torsions:
REMARK  status: ('A' for Active; 'I' for Inactive)
REMARK    1  A    between atoms: O_2  and  C_18
REMARK    2  A    between atoms: O_2  and  C_20
REMARK    3  A    between atoms: O_9  and  C_27
REMARK    4  A    between atoms: O_12  and  C_34
REMARK    5  A    between atoms: C_17  and  C_19
REMARK    6  A    between atoms: C_21  and  C_25
REMARK                            x       y       z     vdW  Elec       q    Type
REMARK                         _______ _______ _______ _____ _____    ______ ____
ROOT
ATOM      1  O   UNL     1     113.466 127.742 136.850  0.00  0.00    +0.000 OA
ATOM      2  O   UNL     1     112.146 128.527 138.792  0.00  0.00    +0.000 OA
ATOM      3  O   UNL     1     112.424 129.904 138.461  0.00  0.00    +0.000 OA
ATOM      4  O   UNL     1     114.068 130.497 136.121  0.00  0.00    +0.000 OA
ATOM      5  C   UNL     1     112.660 127.457 137.997  0.00  0.00    +0.000 A 
ATOM      6  C   UNL     1     113.101 127.196 137.349  0.00  0.00    +0.000 A 
ATOM      7  C   UNL     1     112.586 128.265 138.145  0.00  0.00    +0.000 A 
ATOM      8  C   UNL     1     112.951 128.812 137.646  0.00  0.00    +0.000 A 
ATOM      9  C   UNL     1     113.390 128.550 136.999  0.00  0.00    +0.000 A 
ATOM     10  C   UNL     1     112.866 129.651 137.811  0.00  0.00    +0.000 A 
ATOM     11  C   UNL     1     113.776 129.109 136.472  0.00  0.00    +0.000 A 
ATOM     12  C   UNL     1     113.702 129.952 136.621  0.00  0.00    +0.000 A 
ATOM     13  C   UNL     1     113.244 130.224 137.295  0.00  0.00    +0.000 A 
ENDROOT
BRANCH   6  15
ATOM     14  O   UNL     1     114.665 124.805 137.402  0.00  0.00    +0.000 OA
ATOM     15  C   UNL     1     113.175 126.388 137.201  0.00  0.00    +0.000 A 
ATOM     16  C   UNL     1     113.883 126.000 137.375  0.00  0.00    +0.000 A 
ATOM     17  C   UNL     1     112.543 125.967 136.879  0.00  0.00    +0.000 A 
ATOM     18  C   UNL     1     113.957 125.192 137.228  0.00  0.00    +0.000 A 
ATOM     19  C   UNL     1     112.618 125.158 136.732  0.00  0.00    +0.000 A 
ATOM     20  C   UNL     1     113.325 124.771 136.906  0.00  0.00    +0.000 A 
BRANCH  20  21
ATOM     21  O   UNL     1     113.401 123.963 136.758  0.00  0.00    +0.000 OA
ATOM     22  C   UNL     1     112.728 123.487 136.715  0.00  0.00    +0.000 C 
ENDBRANCH  20  21
ENDBRANCH   6  15
BRANCH  11  23
ATOM     23  O   UNL     1     114.214 128.839 135.827  0.00  0.00    +0.000 OA
ATOM     24  C   UNL     1     114.087 129.162 135.078  0.00  0.00    +0.000 C 
ENDBRANCH  11  23
BRANCH   5  25
ATOM     25  O   UNL     1     112.295 126.911 138.496  0.00  0.00    +0.000 OA
BRANCH  25  34
ATOM     26  O   UNL     1     113.236 127.104 139.554  0.00  0.00    +0.000 OA
ATOM     27  O   UNL     1     111.510 126.462 141.206  0.00  0.00    +0.000 OA
ATOM     28  O   UNL     1     113.025 126.869 141.713  0.00  0.00    +0.000 OA
ATOM     29  O   UNL     1     111.144 126.483 139.597  0.00  0.00    +0.000 OA
ATOM     30  C   UNL     1     112.085 126.676 140.655  0.00  0.00    +0.000 C 
ATOM     31  C   UNL     1     112.843 126.880 140.908  0.00  0.00    +0.000 C 
ATOM     32  C   UNL     1     111.903 126.687 139.850  0.00  0.00    +0.000 C 
ATOM     33  C   UNL     1     113.419 127.093 140.357  0.00  0.00    +0.000 C 
ATOM     34  C   UNL     1     112.478 126.900 139.299  0.00  0.00    +0.000 C 
BRANCH  33  36
ATOM     35  O   UNL     1     114.818 126.811 140.428  0.00  0.00    +0.000 OA
ATOM     36  C   UNL     1     114.177 127.297 140.611  0.00  0.00    +0.000 C 
ENDBRANCH  33  36
ENDBRANCH  25  34
ENDBRANCH   5  25
TORSDOF 6
ENDMDL
MODEL 6
REMARK VINA RESULT:      -8.5      9.843     12.110
REMARK  Name = 131752227
REMARK  6 active torsions:
REMARK  status: ('A' for Active; 'I' for Inactive)
REMARK    1  A    between atoms: O_2  and  C_18
REMARK    2  A    between atoms: O_2  and  C_20
REMARK    3  A    between atoms: O_9  and  C_27
REMARK    4  A    between atoms: O_12  and  C_34
REMARK    5  A    between atoms: C_17  and  C_19
REMARK    6  A    between atoms: C_21  and  C_25
REMARK                            x       y       z     vdW  Elec       q    Type
REMARK                         _______ _______ _______ _____ _____    ______ ____
ROOT
ATOM      1  O   UNL     1     112.808 128.405 138.248  0.00  0.00    +0.000 OA
ATOM      2  O   UNL     1     112.445 127.205 136.113  0.00  0.00    +0.000 OA
ATOM      3  O   UNL     1     113.132 128.242 135.381  0.00  0.00    +0.000 OA
ATOM      4  O   UNL     1     114.205 130.535 136.836  0.00  0.00    +0.000 OA
ATOM      5  C   UNL     1     112.284 127.285 137.531  0.00  0.00    +0.000 A 
ATOM      6  C   UNL     1     112.405 127.685 138.243  0.00  0.00    +0.000 A 
ATOM      7  C   UNL     1     112.566 127.606 136.825  0.00  0.00    +0.000 A 
ATOM      8  C   UNL     1     112.969 128.326 136.830  0.00  0.00    +0.000 A 
ATOM      9  C   UNL     1     113.089 128.725 137.541  0.00  0.00    +0.000 A 
ATOM     10  C   UNL     1     113.257 128.649 136.088  0.00  0.00    +0.000 A 
ATOM     11  C   UNL     1     113.507 129.476 137.561  0.00  0.00    +0.000 A 
ATOM     12  C   UNL     1     113.803 129.815 136.828  0.00  0.00    +0.000 A 
ATOM     13  C   UNL     1     113.677 129.398 136.087  0.00  0.00    +0.000 A 
ENDROOT
BRANCH   6  15
ATOM     14  O   UNL     1     112.893 126.356 140.725  0.00  0.00    +0.000 OA
ATOM     15  C   UNL     1     112.123 127.365 138.948  0.00  0.00    +0.000 A 
ATOM     16  C   UNL     1     112.649 127.021 139.484  0.00  0.00    +0.000 A 
ATOM     17  C   UNL     1     111.316 127.387 139.119  0.00  0.00    +0.000 A 
ATOM     18  C   UNL     1     112.367 126.700 140.190  0.00  0.00    +0.000 A 
ATOM     19  C   UNL     1     111.036 127.066 139.826  0.00  0.00    +0.000 A 
ATOM     20  C   UNL     1     111.560 126.723 140.361  0.00  0.00    +0.000 A 
BRANCH  20  21
ATOM     21  O   UNL     1     111.280 126.402 141.067  0.00  0.00    +0.000 OA
ATOM     22  C   UNL     1     110.482 126.474 141.264  0.00  0.00    +0.000 C 
ENDBRANCH  20  21
ENDBRANCH   6  15
BRANCH  11  23
ATOM     23  O   UNL     1     113.624 129.869 138.276  0.00  0.00    +0.000 OA
ATOM     24  C   UNL     1     113.385 130.655 138.359  0.00  0.00    +0.000 C 
ENDBRANCH  11  23
BRANCH   5  25
ATOM     25  O   UNL     1     111.882 126.565 137.526  0.00  0.00    +0.000 OA
BRANCH  25  34
ATOM     26  O   UNL     1     113.066 125.795 137.310  0.00  0.00    +0.000 OA
ATOM     27  O   UNL     1     111.725 124.045 136.186  0.00  0.00    +0.000 OA
ATOM     28  O   UNL     1     113.356 123.859 136.346  0.00  0.00    +0.000 OA
ATOM     29  O   UNL     1     110.987 125.398 136.776  0.00  0.00    +0.000 OA
ATOM     30  C   UNL     1     112.172 124.629 136.561  0.00  0.00    +0.000 C 
ATOM     31  C   UNL     1     112.988 124.536 136.641  0.00  0.00    +0.000 C 
ATOM     32  C   UNL     1     111.803 125.306 136.856  0.00  0.00    +0.000 C 
ATOM     33  C   UNL     1     113.435 125.119 137.016  0.00  0.00    +0.000 C 
ATOM     34  C   UNL     1     112.250 125.889 137.231  0.00  0.00    +0.000 C 
BRANCH  33  36
ATOM     35  O   UNL     1     114.593 125.011 137.845  0.00  0.00    +0.000 OA
ATOM     36  C   UNL     1     114.250 125.026 137.095  0.00  0.00    +0.000 C 
ENDBRANCH  33  36
ENDBRANCH  25  34
ENDBRANCH   5  25
TORSDOF 6
ENDMDL
MODEL 7
REMARK VINA RESULT:      -8.5     10.714     12.298
REMARK  Name = 131752227
REMARK  6 active torsions:
REMARK  status: ('A' for Active; 'I' for Inactive)
REMARK    1  A    between atoms: O_2  and  C_18
REMARK    2  A    between atoms: O_2  and  C_20
REMARK    3  A    between atoms: O_9  and  C_27
REMARK    4  A    between atoms: O_12  and  C_34
REMARK    5  A    between atoms: C_17  and  C_19
REMARK    6  A    between atoms: C_21  and  C_25
REMARK                            x       y       z     vdW  Elec       q    Type
REMARK                         _______ _______ _______ _____ _____    ______ ____
ROOT
ATOM      1  O   UNL     1     111.752 126.256 136.538  0.00  0.00    +0.000 OA
ATOM      2  O   UNL     1     113.837 127.580 136.381  0.00  0.00    +0.000 OA
ATOM      3  O   UNL     1     114.637 126.381 136.446  0.00  0.00    +0.000 OA
ATOM      4  O   UNL     1     113.302 123.794 136.673  0.00  0.00    +0.000 OA
ATOM      5  C   UNL     1     112.410 127.519 136.427  0.00  0.00    +0.000 A 
ATOM      6  C   UNL     1     111.715 127.078 136.479  0.00  0.00    +0.000 A 
ATOM      7  C   UNL     1     113.142 127.138 136.434  0.00  0.00    +0.000 A 
ATOM      8  C   UNL     1     113.179 126.316 136.493  0.00  0.00    +0.000 A 
ATOM      9  C   UNL     1     112.484 125.875 136.545  0.00  0.00    +0.000 A 
ATOM     10  C   UNL     1     113.947 125.932 136.499  0.00  0.00    +0.000 A 
ATOM     11  C   UNL     1     112.508 125.019 136.607  0.00  0.00    +0.000 A 
ATOM     12  C   UNL     1     113.268 124.616 136.614  0.00  0.00    +0.000 A 
ATOM     13  C   UNL     1     113.991 125.076 136.560  0.00  0.00    +0.000 A 
ENDROOT
BRANCH   6  15
ATOM     14  O   UNL     1     109.378 127.971 137.861  0.00  0.00    +0.000 OA
ATOM     15  C   UNL     1     110.983 127.459 136.472  0.00  0.00    +0.000 A 
ATOM     16  C   UNL     1     110.546 127.525 137.170  0.00  0.00    +0.000 A 
ATOM     17  C   UNL     1     110.688 127.774 135.769  0.00  0.00    +0.000 A 
ATOM     18  C   UNL     1     109.815 127.906 137.163  0.00  0.00    +0.000 A 
ATOM     19  C   UNL     1     109.956 128.155 135.764  0.00  0.00    +0.000 A 
ATOM     20  C   UNL     1     109.520 128.221 136.460  0.00  0.00    +0.000 A 
BRANCH  20  21
ATOM     21  O   UNL     1     108.788 128.602 136.455  0.00  0.00    +0.000 OA
ATOM     22  C   UNL     1     108.600 129.124 135.844  0.00  0.00    +0.000 C 
ENDBRANCH  20  21
ENDBRANCH   6  15
BRANCH  11  23
ATOM     23  O   UNL     1     111.808 124.585 136.659  0.00  0.00    +0.000 OA
ATOM     24  C   UNL     1     111.725 124.003 137.238  0.00  0.00    +0.000 C 
ENDBRANCH  11  23
BRANCH   5  25
ATOM     25  O   UNL     1     112.373 128.342 136.368  0.00  0.00    +0.000 OA
BRANCH  25  34
ATOM     26  O   UNL     1     112.774 128.573 137.720  0.00  0.00    +0.000 OA
ATOM     27  O   UNL     1     113.829 130.707 137.042  0.00  0.00    +0.000 OA
ATOM     28  O   UNL     1     113.878 130.226 138.619  0.00  0.00    +0.000 OA
ATOM     29  O   UNL     1     113.077 129.764 135.916  0.00  0.00    +0.000 OA
ATOM     30  C   UNL     1     113.478 129.995 137.268  0.00  0.00    +0.000 C 
ATOM     31  C   UNL     1     113.502 129.755 138.057  0.00  0.00    +0.000 C 
ATOM     32  C   UNL     1     113.101 129.524 136.705  0.00  0.00    +0.000 C 
ATOM     33  C   UNL     1     113.150 129.043 138.283  0.00  0.00    +0.000 C 
ATOM     34  C   UNL     1     112.749 128.812 136.931  0.00  0.00    +0.000 C 
BRANCH  33  36
ATOM     35  O   UNL     1     112.474 128.702 139.494  0.00  0.00    +0.000 OA
ATOM     36  C   UNL     1     113.175 128.804 139.071  0.00  0.00    +0.000 C 
ENDBRANCH  33  36
ENDBRANCH  25  34
ENDBRANCH   5  25
TORSDOF 6
ENDMDL
MODEL 8
REMARK VINA RESULT:      -8.5     10.358     12.432
REMARK  Name = 131752227
REMARK  6 active torsions:
REMARK  status: ('A' for Active; 'I' for Inactive)
REMARK    1  A    between atoms: O_2  and  C_18
REMARK    2  A    between atoms: O_2  and  C_20
REMARK    3  A    between atoms: O_9  and  C_27
REMARK    4  A    between atoms: O_12  and  C_34
REMARK    5  A    between atoms: C_17  and  C_19
REMARK    6  A    between atoms: C_21  and  C_25
REMARK                            x       y       z     vdW  Elec       q    Type
REMARK                         _______ _______ _______ _____ _____    ______ ____
ROOT
ATOM      1  O   UNL     1     110.297 127.775 135.677  0.00  0.00    +0.000 OA
ATOM      2  O   UNL     1     112.507 128.352 136.631  0.00  0.00    +0.000 OA
ATOM      3  O   UNL     1     112.886 126.960 136.668  0.00  0.00    +0.000 OA
ATOM      4  O   UNL     1     110.992 124.947 135.723  0.00  0.00    +0.000 OA
ATOM      5  C   UNL     1     111.227 128.756 136.140  0.00  0.00    +0.000 A 
ATOM      6  C   UNL     1     110.490 128.564 135.822  0.00  0.00    +0.000 A 
ATOM      7  C   UNL     1     111.770 128.159 136.312  0.00  0.00    +0.000 A 
ATOM      8  C   UNL     1     111.577 127.371 136.167  0.00  0.00    +0.000 A 
ATOM      9  C   UNL     1     110.841 127.179 135.849  0.00  0.00    +0.000 A 
ATOM     10  C   UNL     1     112.151 126.759 136.351  0.00  0.00    +0.000 A 
ATOM     11  C   UNL     1     110.627 126.362 135.693  0.00  0.00    +0.000 A 
ATOM     12  C   UNL     1     111.188 125.735 135.870  0.00  0.00    +0.000 A 
ATOM     13  C   UNL     1     111.955 125.936 136.201  0.00  0.00    +0.000 A 
ENDROOT
BRANCH   6  15
ATOM     14  O   UNL     1     108.055 129.939 136.413  0.00  0.00    +0.000 OA
ATOM     15  C   UNL     1     109.947 129.161 135.650  0.00  0.00    +0.000 A 
ATOM     16  C   UNL     1     109.273 129.251 136.118  0.00  0.00    +0.000 A 
ATOM     17  C   UNL     1     110.078 129.667 135.012  0.00  0.00    +0.000 A 
ATOM     18  C   UNL     1     108.730 129.848 135.946  0.00  0.00    +0.000 A 
ATOM     19  C   UNL     1     109.535 130.263 134.841  0.00  0.00    +0.000 A 
ATOM     20  C   UNL     1     108.861 130.354 135.307  0.00  0.00    +0.000 A 
BRANCH  20  21
ATOM     21  O   UNL     1     108.317 130.951 135.136  0.00  0.00    +0.000 OA
ATOM     22  C   UNL     1     108.556 131.616 134.711  0.00  0.00    +0.000 C 
ENDBRANCH  20  21
ENDBRANCH   6  15
BRANCH  11  23
ATOM     23  O   UNL     1     109.888 126.178 135.374  0.00  0.00    +0.000 OA
ATOM     24  C   UNL     1     109.836 125.750 134.671  0.00  0.00    +0.000 C 
ENDBRANCH  11  23
BRANCH   5  25
ATOM     25  O   UNL     1     111.421 129.545 136.286  0.00  0.00    +0.000 OA
BRANCH  25  34
ATOM     26  O   UNL     1     111.249 129.447 137.701  0.00  0.00    +0.000 OA
ATOM     27  O   UNL     1     112.978 131.187 138.032  0.00  0.00    +0.000 OA
ATOM     28  O   UNL     1     112.229 130.509 139.336  0.00  0.00    +0.000 OA
ATOM     29  O   UNL     1     112.573 130.705 136.507  0.00  0.00    +0.000 OA
ATOM     30  C   UNL     1     112.401 130.607 137.922  0.00  0.00    +0.000 C 
ATOM     31  C   UNL     1     112.027 130.268 138.574  0.00  0.00    +0.000 C 
ATOM     32  C   UNL     1     112.199 130.365 137.159  0.00  0.00    +0.000 C 
ATOM     33  C   UNL     1     111.450 129.688 138.464  0.00  0.00    +0.000 C 
ATOM     34  C   UNL     1     111.623 129.786 137.048  0.00  0.00    +0.000 C 
BRANCH  33  36
ATOM     35  O   UNL     1     110.260 129.424 139.209  0.00  0.00    +0.000 OA
ATOM     36  C   UNL     1     111.077 129.349 139.116  0.00  0.00    +0.000 C 
ENDBRANCH  33  36
ENDBRANCH  25  34
ENDBRANCH   5  25
TORSDOF 6
ENDMDL
MODEL 9
REMARK VINA RESULT:      -8.5     11.186     12.998
REMARK  Name = 131752227
REMARK  6 active torsions:
REMARK  status: ('A' for Active; 'I' for Inactive)
REMARK    1  A    between atoms: O_2  and  C_18
REMARK    2  A    between atoms: O_2  and  C_20
REMARK    3  A    between atoms: O_9  and  C_27
REMARK    4  A    between atoms: O_12  and  C_34
REMARK    5  A    between atoms: C_17  and  C_19
REMARK    6  A    between atoms: C_21  and  C_25
REMARK                            x       y       z     vdW  Elec       q    Type
REMARK                         _______ _______ _______ _____ _____    ______ ____
ROOT
ATOM      1  O   UNL     1     112.427 129.760 135.931  0.00  0.00    +0.000 OA
ATOM      2  O   UNL     1     112.564 130.972 138.086  0.00  0.00    +0.000 OA
ATOM      3  O   UNL     1     113.970 131.226 137.886  0.00  0.00    +0.000 OA
ATOM      4  O   UNL     1     115.262 130.236 135.461  0.00  0.00    +0.000 OA
ATOM      5  C   UNL     1     111.800 130.247 137.120  0.00  0.00    +0.000 A 
ATOM      6  C   UNL     1     111.754 129.843 136.401  0.00  0.00    +0.000 A 
ATOM      7  C   UNL     1     112.518 130.568 137.367  0.00  0.00    +0.000 A 
ATOM      8  C   UNL     1     113.191 130.485 136.897  0.00  0.00    +0.000 A 
ATOM      9  C   UNL     1     113.146 130.081 136.179  0.00  0.00    +0.000 A 
ATOM     10  C   UNL     1     113.934 130.824 137.166  0.00  0.00    +0.000 A 
ATOM     11  C   UNL     1     113.839 129.988 135.681  0.00  0.00    +0.000 A 
ATOM     12  C   UNL     1     114.591 130.320 135.933  0.00  0.00    +0.000 A 
ATOM     13  C   UNL     1     114.638 130.741 136.681  0.00  0.00    +0.000 A 
ENDROOT
BRANCH   6  15
ATOM     14  O   UNL     1     109.472 129.919 134.683  0.00  0.00    +0.000 OA
ATOM     15  C   UNL     1     111.036 129.522 136.154  0.00  0.00    +0.000 A 
ATOM     16  C   UNL     1     110.613 129.881 135.542  0.00  0.00    +0.000 A 
ATOM     17  C   UNL     1     110.739 128.843 136.517  0.00  0.00    +0.000 A 
ATOM     18  C   UNL     1     109.895 129.560 135.294  0.00  0.00    +0.000 A 
ATOM     19  C   UNL     1     110.020 128.524 136.269  0.00  0.00    +0.000 A 
ATOM     20  C   UNL     1     109.598 128.882 135.658  0.00  0.00    +0.000 A 
BRANCH  20  21
ATOM     21  O   UNL     1     108.879 128.562 135.410  0.00  0.00    +0.000 OA
ATOM     22  C   UNL     1     108.612 127.851 135.731  0.00  0.00    +0.000 C 
ENDBRANCH  20  21
ENDBRANCH   6  15
BRANCH  11  23
ATOM     23  O   UNL     1     113.785 129.583 134.964  0.00  0.00    +0.000 OA
ATOM     24  C   UNL     1     114.370 129.043 134.750  0.00  0.00    +0.000 C 
ENDBRANCH  11  23
BRANCH   5  25
ATOM     25  O   UNL     1     111.127 130.330 137.590  0.00  0.00    +0.000 OA
BRANCH  25  34
ATOM     26  O   UNL     1     110.898 131.700 137.256  0.00  0.00    +0.000 OA
ATOM     27  O   UNL     1     109.988 132.100 139.523  0.00  0.00    +0.000 OA
ATOM     28  O   UNL     1     110.063 133.336 138.433  0.00  0.00    +0.000 OA
ATOM     29  O   UNL     1     110.520 130.596 139.101  0.00  0.00    +0.000 OA
ATOM     30  C   UNL     1     110.292 131.967 138.767  0.00  0.00    +0.000 C 
ATOM     31  C   UNL     1     110.329 132.585 138.222  0.00  0.00    +0.000 C 
ATOM     32  C   UNL     1     110.558 131.214 138.556  0.00  0.00    +0.000 C 
ATOM     33  C   UNL     1     110.633 132.451 137.466  0.00  0.00    +0.000 C 
ATOM     34  C   UNL     1     110.861 131.081 137.800  0.00  0.00    +0.000 C 
BRANCH  33  36
ATOM     35  O   UNL     1     110.207 133.048 136.240  0.00  0.00    +0.000 OA
ATOM     36  C   UNL     1     110.670 133.070 136.922  0.00  0.00    +0.000 C 
ENDBRANCH  33  36
ENDBRANCH  25  34
ENDBRANCH   5  25
TORSDOF 6
ENDMDL
MODEL 10
REMARK VINA RESULT:      -8.4      9.498     12.005
REMARK  Name = 131752227
REMARK  6 active torsions:
REMARK  status: ('A' for Active; 'I' for Inactive)
REMARK    1  A    between atoms: O_2  and  C_18
REMARK    2  A    between atoms: O_2  and  C_20
REMARK    3  A    between atoms: O_9  and  C_27
REMARK    4  A    between atoms: O_12  and  C_34
REMARK    5  A    between atoms: C_17  and  C_19
REMARK    6  A    between atoms: C_21  and  C_25
REMARK                            x       y       z     vdW  Elec       q    Type
REMARK                         _______ _______ _______ _____ _____    ______ ____
ROOT
ATOM      1  O   UNL     1     111.258 127.990 138.106  0.00  0.00    +0.000 OA
ATOM      2  O   UNL     1     112.185 125.908 139.072  0.00  0.00    +0.000 OA
ATOM      3  O   UNL     1     111.116 125.847 140.040  0.00  0.00    +0.000 OA
ATOM      4  O   UNL     1     109.071 127.933 140.029  0.00  0.00    +0.000 OA
ATOM      5  C   UNL     1     112.256 126.967 138.116  0.00  0.00    +0.000 A 
ATOM      6  C   UNL     1     111.947 127.661 137.793  0.00  0.00    +0.000 A 
ATOM      7  C   UNL     1     111.875 126.602 138.750  0.00  0.00    +0.000 A 
ATOM      8  C   UNL     1     111.186 126.931 139.063  0.00  0.00    +0.000 A 
ATOM      9  C   UNL     1     110.878 127.625 138.741  0.00  0.00    +0.000 A 
ATOM     10  C   UNL     1     110.800 126.541 139.724  0.00  0.00    +0.000 A 
ATOM     11  C   UNL     1     110.161 127.977 139.057  0.00  0.00    +0.000 A 
ATOM     12  C   UNL     1     109.760 127.602 139.718  0.00  0.00    +0.000 A 
ATOM     13  C   UNL     1     110.082 126.879 140.053  0.00  0.00    +0.000 A 
ENDROOT
BRANCH   6  15
ATOM     14  O   UNL     1     112.048 128.314 135.013  0.00  0.00    +0.000 OA
ATOM     15  C   UNL     1     112.328 128.026 137.159  0.00  0.00    +0.000 A 
ATOM     16  C   UNL     1     111.997 127.988 136.403  0.00  0.00    +0.000 A 
ATOM     17  C   UNL     1     113.038 128.428 137.279  0.00  0.00    +0.000 A 
ATOM     18  C   UNL     1     112.378 128.352 135.769  0.00  0.00    +0.000 A 
ATOM     19  C   UNL     1     113.417 128.793 136.644  0.00  0.00    +0.000 A 
ATOM     20  C   UNL     1     113.088 128.755 135.889  0.00  0.00    +0.000 A 
BRANCH  20  21
ATOM     21  O   UNL     1     113.468 129.119 135.253  0.00  0.00    +0.000 OA
ATOM     22  C   UNL     1     114.204 129.475 135.362  0.00  0.00    +0.000 C 
ENDBRANCH  20  21
ENDBRANCH   6  15
BRANCH  11  23
ATOM     23  O   UNL     1     109.859 128.672 138.729  0.00  0.00    +0.000 OA
ATOM     24  C   UNL     1     109.700 129.321 139.212  0.00  0.00    +0.000 C 
ENDBRANCH  11  23
BRANCH   5  25
ATOM     25  O   UNL     1     112.945 126.638 137.803  0.00  0.00    +0.000 OA
BRANCH  25  34
ATOM     26  O   UNL     1     112.262 125.575 137.137  0.00  0.00    +0.000 OA
ATOM     27  O   UNL     1     114.267 124.142 137.367  0.00  0.00    +0.000 OA
ATOM     28  O   UNL     1     112.915 123.557 136.624  0.00  0.00    +0.000 OA
ATOM     29  O   UNL     1     114.282 125.683 137.956  0.00  0.00    +0.000 OA
ATOM     30  C   UNL     1     113.598 124.620 137.290  0.00  0.00    +0.000 C 
ATOM     31  C   UNL     1     112.922 124.327 136.919  0.00  0.00    +0.000 C 
ATOM     32  C   UNL     1     113.606 125.391 137.585  0.00  0.00    +0.000 C 
ATOM     33  C   UNL     1     112.254 124.805 136.842  0.00  0.00    +0.000 C 
ATOM     34  C   UNL     1     112.937 125.868 137.508  0.00  0.00    +0.000 C 
BRANCH  33  36
ATOM     35  O   UNL     1     111.277 124.891 135.803  0.00  0.00    +0.000 OA
ATOM     36  C   UNL     1     111.579 124.512 136.471  0.00  0.00    +0.000 C 
ENDBRANCH  33  36
ENDBRANCH  25  34
ENDBRANCH   5  25
TORSDOF 6
ENDMDL
