MODEL 1
REMARK VINA RESULT:      -7.9      0.000      0.000
REMARK  Name = 10265122
REMARK  2 active torsions:
REMARK  status: ('A' for Active; 'I' for Inactive)
REMARK    1  A    between atoms: O_3  and  C_15
REMARK    2  A    between atoms: C_5  and  C_7
REMARK                            x       y       z     vdW  Elec       q    Type
REMARK                         _______ _______ _______ _____ _____    ______ ____
ROOT
ATOM      1  O   UNL     1     112.110 125.595 136.165  0.00  0.00    +0.000 OA
ATOM      2  O   UNL     1     111.909 123.321 137.120  0.00  0.00    +0.000 OA
ATOM      3  C   UNL     1     111.370 125.237 136.225  0.00  0.00    +0.000 C 
ATOM      4  C   UNL     1     111.303 124.479 136.544  0.00  0.00    +0.000 C 
ATOM      5  C   UNL     1     112.718 124.436 136.741  0.00  0.00    +0.000 A 
ATOM      6  C   UNL     1     111.976 124.079 136.801  0.00  0.00    +0.000 C 
ATOM      7  C   UNL     1     112.785 125.194 136.423  0.00  0.00    +0.000 A 
ATOM      8  C   UNL     1     113.411 124.009 137.013  0.00  0.00    +0.000 A 
ATOM      9  C   UNL     1     113.550 125.578 136.354  0.00  0.00    +0.000 A 
ATOM     10  C   UNL     1     114.255 125.166 136.621  0.00  0.00    +0.000 A 
ATOM     11  C   UNL     1     114.185 124.377 136.953  0.00  0.00    +0.000 A 
ENDROOT
BRANCH   3  13
ATOM     12  O   UNL     1     108.675 126.838 135.194  0.00  0.00    +0.000 OA
ATOM     13  C   UNL     1     110.696 125.637 135.967  0.00  0.00    +0.000 A 
ATOM     14  C   UNL     1     110.278 126.120 136.490  0.00  0.00    +0.000 A 
ATOM     15  C   UNL     1     110.440 125.555 135.187  0.00  0.00    +0.000 A 
ATOM     16  C   UNL     1     109.605 126.520 136.231  0.00  0.00    +0.000 A 
ATOM     17  C   UNL     1     109.767 125.955 134.930  0.00  0.00    +0.000 A 
ATOM     18  C   UNL     1     109.349 126.437 135.451  0.00  0.00    +0.000 A 
ENDBRANCH   3  13
BRANCH  10  19
ATOM     19  O   UNL     1     114.995 125.527 136.559  0.00  0.00    +0.000 OA
ATOM     20  C   UNL     1     115.411 125.493 135.848  0.00  0.00    +0.000 C 
ENDBRANCH  10  19
TORSDOF 2
ENDMDL
MODEL 2
REMARK VINA RESULT:      -7.8     12.449     13.798
REMARK  Name = 10265122
REMARK  2 active torsions:
REMARK  status: ('A' for Active; 'I' for Inactive)
REMARK    1  A    between atoms: O_3  and  C_15
REMARK    2  A    between atoms: C_5  and  C_7
REMARK                            x       y       z     vdW  Elec       q    Type
REMARK                         _______ _______ _______ _____ _____    ______ ____
ROOT
ATOM      1  O   UNL     1     105.254 124.341 147.187  0.00  0.00    +0.000 OA
ATOM      2  O   UNL     1     103.705 125.664 148.593  0.00  0.00    +0.000 OA
ATOM      3  C   UNL     1     105.547 124.794 147.811  0.00  0.00    +0.000 C 
ATOM      4  C   UNL     1     105.031 125.235 148.280  0.00  0.00    +0.000 C 
ATOM      5  C   UNL     1     103.927 124.771 147.500  0.00  0.00    +0.000 A 
ATOM      6  C   UNL     1     104.221 125.223 148.125  0.00  0.00    +0.000 C 
ATOM      7  C   UNL     1     104.443 124.330 147.031  0.00  0.00    +0.000 A 
ATOM      8  C   UNL     1     103.081 124.768 147.349  0.00  0.00    +0.000 A 
ATOM      9  C   UNL     1     104.149 123.856 146.379  0.00  0.00    +0.000 A 
ATOM     10  C   UNL     1     103.307 123.840 146.212  0.00  0.00    +0.000 A 
ATOM     11  C   UNL     1     102.769 124.299 146.700  0.00  0.00    +0.000 A 
ENDROOT
BRANCH   3  13
ATOM     12  O   UNL     1     108.788 124.839 148.432  0.00  0.00    +0.000 OA
ATOM     13  C   UNL     1     106.358 124.805 147.966  0.00  0.00    +0.000 A 
ATOM     14  C   UNL     1     106.872 125.185 147.445  0.00  0.00    +0.000 A 
ATOM     15  C   UNL     1     106.654 124.436 148.642  0.00  0.00    +0.000 A 
ATOM     16  C   UNL     1     107.682 125.196 147.601  0.00  0.00    +0.000 A 
ATOM     17  C   UNL     1     107.463 124.447 148.797  0.00  0.00    +0.000 A 
ATOM     18  C   UNL     1     107.977 124.827 148.277  0.00  0.00    +0.000 A 
ENDBRANCH   3  13
BRANCH  10  19
ATOM     19  O   UNL     1     103.016 123.386 145.587  0.00  0.00    +0.000 OA
ATOM     20  C   UNL     1     102.528 122.739 145.739  0.00  0.00    +0.000 C 
ENDBRANCH  10  19
TORSDOF 2
ENDMDL
MODEL 3
REMARK VINA RESULT:      -7.8     12.055     12.908
REMARK  Name = 10265122
REMARK  2 active torsions:
REMARK  status: ('A' for Active; 'I' for Inactive)
REMARK    1  A    between atoms: O_3  and  C_15
REMARK    2  A    between atoms: C_5  and  C_7
REMARK                            x       y       z     vdW  Elec       q    Type
REMARK                         _______ _______ _______ _____ _____    ______ ____
ROOT
ATOM      1  O   UNL     1     105.160 124.437 147.446  0.00  0.00    +0.000 OA
ATOM      2  O   UNL     1     106.504 125.300 145.556  0.00  0.00    +0.000 OA
ATOM      3  C   UNL     1     104.838 124.458 146.687  0.00  0.00    +0.000 C 
ATOM      4  C   UNL     1     105.286 124.746 146.057  0.00  0.00    +0.000 C 
ATOM      5  C   UNL     1     106.378 124.992 146.945  0.00  0.00    +0.000 A 
ATOM      6  C   UNL     1     106.056 125.012 146.186  0.00  0.00    +0.000 C 
ATOM      7  C   UNL     1     105.930 124.704 147.575  0.00  0.00    +0.000 A 
ATOM      8  C   UNL     1     107.181 125.272 147.066  0.00  0.00    +0.000 A 
ATOM      9  C   UNL     1     106.254 124.677 148.370  0.00  0.00    +0.000 A 
ATOM     10  C   UNL     1     107.055 124.953 148.511  0.00  0.00    +0.000 A 
ATOM     11  C   UNL     1     107.522 125.253 147.855  0.00  0.00    +0.000 A 
ENDROOT
BRANCH   3  13
ATOM     12  O   UNL     1     101.758 123.392 146.172  0.00  0.00    +0.000 OA
ATOM     13  C   UNL     1     104.068 124.191 146.558  0.00  0.00    +0.000 A 
ATOM     14  C   UNL     1     103.428 124.625 146.846  0.00  0.00    +0.000 A 
ATOM     15  C   UNL     1     103.938 123.491 146.141  0.00  0.00    +0.000 A 
ATOM     16  C   UNL     1     102.658 124.358 146.717  0.00  0.00    +0.000 A 
ATOM     17  C   UNL     1     103.168 123.225 146.013  0.00  0.00    +0.000 A 
ATOM     18  C   UNL     1     102.529 123.658 146.300  0.00  0.00    +0.000 A 
ENDBRANCH   3  13
BRANCH  10  19
ATOM     19  O   UNL     1     107.374 124.931 149.272  0.00  0.00    +0.000 OA
ATOM     20  C   UNL     1     107.870 124.310 149.492  0.00  0.00    +0.000 C 
ENDBRANCH  10  19
TORSDOF 2
ENDMDL
MODEL 4
REMARK VINA RESULT:      -7.7      9.923     11.941
REMARK  Name = 10265122
REMARK  2 active torsions:
REMARK  status: ('A' for Active; 'I' for Inactive)
REMARK    1  A    between atoms: O_3  and  C_15
REMARK    2  A    between atoms: C_5  and  C_7
REMARK                            x       y       z     vdW  Elec       q    Type
REMARK                         _______ _______ _______ _____ _____    ______ ____
ROOT
ATOM      1  O   UNL     1     102.935 130.485 142.090  0.00  0.00    +0.000 OA
ATOM      2  O   UNL     1     102.716 129.328 139.913  0.00  0.00    +0.000 OA
ATOM      3  C   UNL     1     102.433 130.788 141.510  0.00  0.00    +0.000 C 
ATOM      4  C   UNL     1     102.360 130.402 140.784  0.00  0.00    +0.000 C 
ATOM      5  C   UNL     1     103.291 129.409 141.219  0.00  0.00    +0.000 A 
ATOM      6  C   UNL     1     102.789 129.714 140.639  0.00  0.00    +0.000 C 
ATOM      7  C   UNL     1     103.364 129.795 141.944  0.00  0.00    +0.000 A 
ATOM      8  C   UNL     1     103.732 128.691 141.055  0.00  0.00    +0.000 A 
ATOM      9  C   UNL     1     103.883 129.488 142.556  0.00  0.00    +0.000 A 
ATOM     10  C   UNL     1     104.332 128.771 142.410  0.00  0.00    +0.000 A 
ATOM     11  C   UNL     1     104.256 128.369 141.655  0.00  0.00    +0.000 A 
ENDROOT
BRANCH   3  13
ATOM     12  O   UNL     1     100.717 133.546 142.094  0.00  0.00    +0.000 OA
ATOM     13  C   UNL     1     102.004 131.478 141.656  0.00  0.00    +0.000 A 
ATOM     14  C   UNL     1     101.242 131.431 141.968  0.00  0.00    +0.000 A 
ATOM     15  C   UNL     1     102.337 132.214 141.489  0.00  0.00    +0.000 A 
ATOM     16  C   UNL     1     100.813 132.121 142.114  0.00  0.00    +0.000 A 
ATOM     17  C   UNL     1     101.908 132.903 141.635  0.00  0.00    +0.000 A 
ATOM     18  C   UNL     1     101.147 132.857 141.947  0.00  0.00    +0.000 A 
ENDBRANCH   3  13
BRANCH  10  19
ATOM     19  O   UNL     1     104.833 128.470 142.993  0.00  0.00    +0.000 OA
ATOM     20  C   UNL     1     105.496 128.028 142.777  0.00  0.00    +0.000 C 
ENDBRANCH  10  19
TORSDOF 2
ENDMDL
MODEL 5
REMARK VINA RESULT:      -7.7      7.814      8.306
REMARK  Name = 10265122
REMARK  2 active torsions:
REMARK  status: ('A' for Active; 'I' for Inactive)
REMARK    1  A    between atoms: O_3  and  C_15
REMARK    2  A    between atoms: C_5  and  C_7
REMARK                            x       y       z     vdW  Elec       q    Type
REMARK                         _______ _______ _______ _____ _____    ______ ____
ROOT
ATOM      1  O   UNL     1     104.579 124.623 139.552  0.00  0.00    +0.000 OA
ATOM      2  O   UNL     1     105.944 122.739 140.397  0.00  0.00    +0.000 OA
ATOM      3  C   UNL     1     104.470 123.865 139.247  0.00  0.00    +0.000 C 
ATOM      4  C   UNL     1     104.924 123.237 139.529  0.00  0.00    +0.000 C 
ATOM      5  C   UNL     1     105.599 124.126 140.421  0.00  0.00    +0.000 A 
ATOM      6  C   UNL     1     105.489 123.367 140.115  0.00  0.00    +0.000 C 
ATOM      7  C   UNL     1     105.144 124.754 140.140  0.00  0.00    +0.000 A 
ATOM      8  C   UNL     1     106.190 124.248 141.032  0.00  0.00    +0.000 A 
ATOM      9  C   UNL     1     105.249 125.548 140.450  0.00  0.00    +0.000 A 
ATOM     10  C   UNL     1     105.835 125.690 141.061  0.00  0.00    +0.000 A 
ATOM     11  C   UNL     1     106.309 125.036 141.354  0.00  0.00    +0.000 A 
ENDROOT
BRANCH   3  13
ATOM     12  O   UNL     1     102.211 123.344 136.898  0.00  0.00    +0.000 OA
ATOM     13  C   UNL     1     103.904 123.734 138.659  0.00  0.00    +0.000 A 
ATOM     14  C   UNL     1     104.143 123.555 137.891  0.00  0.00    +0.000 A 
ATOM     15  C   UNL     1     103.101 123.783 138.841  0.00  0.00    +0.000 A 
ATOM     16  C   UNL     1     103.578 123.425 137.304  0.00  0.00    +0.000 A 
ATOM     17  C   UNL     1     102.537 123.653 138.255  0.00  0.00    +0.000 A 
ATOM     18  C   UNL     1     102.775 123.474 137.486  0.00  0.00    +0.000 A 
ENDBRANCH   3  13
BRANCH  10  19
ATOM     19  O   UNL     1     105.943 126.450 141.364  0.00  0.00    +0.000 OA
ATOM     20  C   UNL     1     106.032 126.560 142.177  0.00  0.00    +0.000 C 
ENDBRANCH  10  19
TORSDOF 2
ENDMDL
MODEL 6
REMARK VINA RESULT:      -7.6      1.479      4.171
REMARK  Name = 10265122
REMARK  2 active torsions:
REMARK  status: ('A' for Active; 'I' for Inactive)
REMARK    1  A    between atoms: O_3  and  C_15
REMARK    2  A    between atoms: C_5  and  C_7
REMARK                            x       y       z     vdW  Elec       q    Type
REMARK                         _______ _______ _______ _____ _____    ______ ____
ROOT
ATOM      1  O   UNL     1     112.218 126.658 136.022  0.00  0.00    +0.000 OA
ATOM      2  O   UNL     1     110.506 124.940 135.530  0.00  0.00    +0.000 OA
ATOM      3  C   UNL     1     112.322 125.884 136.287  0.00  0.00    +0.000 C 
ATOM      4  C   UNL     1     111.751 125.311 136.123  0.00  0.00    +0.000 C 
ATOM      5  C   UNL     1     110.971 126.287 135.429  0.00  0.00    +0.000 A 
ATOM      6  C   UNL     1     111.076 125.513 135.694  0.00  0.00    +0.000 C 
ATOM      7  C   UNL     1     111.542 126.860 135.593  0.00  0.00    +0.000 A 
ATOM      8  C   UNL     1     110.264 126.484 134.984  0.00  0.00    +0.000 A 
ATOM      9  C   UNL     1     111.445 127.669 135.323  0.00  0.00    +0.000 A 
ATOM     10  C   UNL     1     110.744 127.885 134.876  0.00  0.00    +0.000 A 
ATOM     11  C   UNL     1     110.150 127.289 134.705  0.00  0.00    +0.000 A 
ENDROOT
BRANCH   3  13
ATOM     12  O   UNL     1     115.024 125.078 138.002  0.00  0.00    +0.000 OA
ATOM     13  C   UNL     1     112.998 125.682 136.716  0.00  0.00    +0.000 A 
ATOM     14  C   UNL     1     113.611 125.270 136.349  0.00  0.00    +0.000 A 
ATOM     15  C   UNL     1     113.060 125.893 137.511  0.00  0.00    +0.000 A 
ATOM     16  C   UNL     1     114.286 125.069 136.778  0.00  0.00    +0.000 A 
ATOM     17  C   UNL     1     113.735 125.692 137.940  0.00  0.00    +0.000 A 
ATOM     18  C   UNL     1     114.348 125.280 137.573  0.00  0.00    +0.000 A 
ENDBRANCH   3  13
BRANCH  10  19
ATOM     19  O   UNL     1     110.643 128.661 134.612  0.00  0.00    +0.000 OA
ATOM     20  C   UNL     1     109.980 129.092 134.847  0.00  0.00    +0.000 C 
ENDBRANCH  10  19
TORSDOF 2
ENDMDL
MODEL 7
REMARK VINA RESULT:      -7.4     10.722     11.991
REMARK  Name = 10265122
REMARK  2 active torsions:
REMARK  status: ('A' for Active; 'I' for Inactive)
REMARK    1  A    between atoms: O_3  and  C_15
REMARK    2  A    between atoms: C_5  and  C_7
REMARK                            x       y       z     vdW  Elec       q    Type
REMARK                         _______ _______ _______ _____ _____    ______ ____
ROOT
ATOM      1  O   UNL     1     106.607 125.147 146.193  0.00  0.00    +0.000 OA
ATOM      2  O   UNL     1     106.578 127.615 146.012  0.00  0.00    +0.000 OA
ATOM      3  C   UNL     1     106.857 125.610 146.828  0.00  0.00    +0.000 C 
ATOM      4  C   UNL     1     106.847 126.433 146.768  0.00  0.00    +0.000 C 
ATOM      5  C   UNL     1     106.338 126.329 145.436  0.00  0.00    +0.000 A 
ATOM      6  C   UNL     1     106.588 126.792 146.072  0.00  0.00    +0.000 C 
ATOM      7  C   UNL     1     106.347 125.507 145.497  0.00  0.00    +0.000 A 
ATOM      8  C   UNL     1     106.070 126.716 144.718  0.00  0.00    +0.000 A 
ATOM      9  C   UNL     1     106.090 125.013 144.842  0.00  0.00    +0.000 A 
ATOM     10  C   UNL     1     105.819 125.382 144.116  0.00  0.00    +0.000 A 
ATOM     11  C   UNL     1     105.809 126.239 144.053  0.00  0.00    +0.000 A 
ENDROOT
BRANCH   3  13
ATOM     12  O   UNL     1     107.895 124.172 149.611  0.00  0.00    +0.000 OA
ATOM     13  C   UNL     1     107.116 125.250 147.524  0.00  0.00    +0.000 A 
ATOM     14  C   UNL     1     107.924 125.184 147.677  0.00  0.00    +0.000 A 
ATOM     15  C   UNL     1     106.568 124.957 148.067  0.00  0.00    +0.000 A 
ATOM     16  C   UNL     1     108.183 124.824 148.373  0.00  0.00    +0.000 A 
ATOM     17  C   UNL     1     106.827 124.598 148.762  0.00  0.00    +0.000 A 
ATOM     18  C   UNL     1     107.635 124.531 148.915  0.00  0.00    +0.000 A 
ENDBRANCH   3  13
BRANCH  10  19
ATOM     19  O   UNL     1     105.570 124.915 143.482  0.00  0.00    +0.000 OA
ATOM     20  C   UNL     1     105.942 124.984 142.749  0.00  0.00    +0.000 C 
ENDBRANCH  10  19
TORSDOF 2
ENDMDL
MODEL 8
REMARK VINA RESULT:      -7.4     10.692     13.173
REMARK  Name = 10265122
REMARK  2 active torsions:
REMARK  status: ('A' for Active; 'I' for Inactive)
REMARK    1  A    between atoms: O_3  and  C_15
REMARK    2  A    between atoms: C_5  and  C_7
REMARK                            x       y       z     vdW  Elec       q    Type
REMARK                         _______ _______ _______ _____ _____    ______ ____
ROOT
ATOM      1  O   UNL     1     102.663 132.003 141.128  0.00  0.00    +0.000 OA
ATOM      2  O   UNL     1     100.710 132.164 142.640  0.00  0.00    +0.000 OA
ATOM      3  C   UNL     1     102.296 131.317 141.403  0.00  0.00    +0.000 C 
ATOM      4  C   UNL     1     101.645 131.371 141.907  0.00  0.00    +0.000 C 
ATOM      5  C   UNL     1     101.727 132.797 141.861  0.00  0.00    +0.000 A 
ATOM      6  C   UNL     1     101.361 132.110 142.136  0.00  0.00    +0.000 C 
ATOM      7  C   UNL     1     102.378 132.743 141.357  0.00  0.00    +0.000 A 
ATOM      8  C   UNL     1     101.421 133.561 142.106  0.00  0.00    +0.000 A 
ATOM      9  C   UNL     1     102.768 133.450 141.064  0.00  0.00    +0.000 A 
ATOM     10  C   UNL     1     102.476 134.223 141.298  0.00  0.00    +0.000 A 
ATOM     11  C   UNL     1     101.799 134.279 141.823  0.00  0.00    +0.000 A 
ENDROOT
BRANCH   3  13
ATOM     12  O   UNL     1     103.435 128.358 140.487  0.00  0.00    +0.000 OA
ATOM     13  C   UNL     1     102.581 130.577 141.174  0.00  0.00    +0.000 A 
ATOM     14  C   UNL     1     102.284 130.213 140.496  0.00  0.00    +0.000 A 
ATOM     15  C   UNL     1     103.162 130.202 141.623  0.00  0.00    +0.000 A 
ATOM     16  C   UNL     1     102.569 129.474 140.268  0.00  0.00    +0.000 A 
ATOM     17  C   UNL     1     103.447 129.463 141.394  0.00  0.00    +0.000 A 
ATOM     18  C   UNL     1     103.150 129.098 140.717  0.00  0.00    +0.000 A 
ENDBRANCH   3  13
BRANCH  10  19
ATOM     19  O   UNL     1     102.845 134.907 141.021  0.00  0.00    +0.000 OA
ATOM     20  C   UNL     1     102.430 135.432 140.539  0.00  0.00    +0.000 C 
ENDBRANCH  10  19
TORSDOF 2
ENDMDL
MODEL 9
REMARK VINA RESULT:      -7.4      2.793      4.227
REMARK  Name = 10265122
REMARK  2 active torsions:
REMARK  status: ('A' for Active; 'I' for Inactive)
REMARK    1  A    between atoms: O_3  and  C_15
REMARK    2  A    between atoms: C_5  and  C_7
REMARK                            x       y       z     vdW  Elec       q    Type
REMARK                         _______ _______ _______ _____ _____    ______ ____
ROOT
ATOM      1  O   UNL     1     112.781 126.064 138.331  0.00  0.00    +0.000 OA
ATOM      2  O   UNL     1     114.898 125.015 137.594  0.00  0.00    +0.000 OA
ATOM      3  C   UNL     1     113.494 126.276 138.689  0.00  0.00    +0.000 C 
ATOM      4  C   UNL     1     114.199 125.926 138.443  0.00  0.00    +0.000 C 
ATOM      5  C   UNL     1     113.481 125.151 137.481  0.00  0.00    +0.000 A 
ATOM      6  C   UNL     1     114.193 125.364 137.840  0.00  0.00    +0.000 C 
ATOM      7  C   UNL     1     112.775 125.501 137.727  0.00  0.00    +0.000 A 
ATOM      8  C   UNL     1     113.487 124.565 136.854  0.00  0.00    +0.000 A 
ATOM      9  C   UNL     1     112.027 125.288 137.362  0.00  0.00    +0.000 A 
ATOM     10  C   UNL     1     112.014 124.704 136.733  0.00  0.00    +0.000 A 
ATOM     11  C   UNL     1     112.749 124.339 136.477  0.00  0.00    +0.000 A 
ENDROOT
BRANCH   3  13
ATOM     12  O   UNL     1     113.519 128.524 141.104  0.00  0.00    +0.000 OA
ATOM     13  C   UNL     1     113.500 126.838 139.293  0.00  0.00    +0.000 A 
ATOM     14  C   UNL     1     113.632 126.604 140.073  0.00  0.00    +0.000 A 
ATOM     15  C   UNL     1     113.375 127.634 139.117  0.00  0.00    +0.000 A 
ATOM     16  C   UNL     1     113.638 127.166 140.676  0.00  0.00    +0.000 A 
ATOM     17  C   UNL     1     113.381 128.196 139.720  0.00  0.00    +0.000 A 
ATOM     18  C   UNL     1     113.513 127.962 140.500  0.00  0.00    +0.000 A 
ENDBRANCH   3  13
BRANCH  10  19
ATOM     19  O   UNL     1     111.299 124.493 136.377  0.00  0.00    +0.000 OA
ATOM     20  C   UNL     1     110.955 124.993 135.818  0.00  0.00    +0.000 C 
ENDBRANCH  10  19
TORSDOF 2
ENDMDL
MODEL 10
REMARK VINA RESULT:      -7.2      2.888      4.328
REMARK  Name = 10265122
REMARK  2 active torsions:
REMARK  status: ('A' for Active; 'I' for Inactive)
REMARK    1  A    between atoms: O_3  and  C_15
REMARK    2  A    between atoms: C_5  and  C_7
REMARK                            x       y       z     vdW  Elec       q    Type
REMARK                         _______ _______ _______ _____ _____    ______ ____
ROOT
ATOM      1  O   UNL     1     113.854 127.436 136.093  0.00  0.00    +0.000 OA
ATOM      2  O   UNL     1     112.756 128.750 137.880  0.00  0.00    +0.000 OA
ATOM      3  C   UNL     1     113.476 127.050 136.716  0.00  0.00    +0.000 C 
ATOM      4  C   UNL     1     113.110 127.488 137.311  0.00  0.00    +0.000 C 
ATOM      5  C   UNL     1     113.501 128.699 136.661  0.00  0.00    +0.000 A 
ATOM      6  C   UNL     1     113.122 128.312 137.284  0.00  0.00    +0.000 C 
ATOM      7  C   UNL     1     113.867 128.261 136.066  0.00  0.00    +0.000 A 
ATOM      8  C   UNL     1     113.506 129.558 136.645  0.00  0.00    +0.000 A 
ATOM      9  C   UNL     1     114.264 128.652 135.412  0.00  0.00    +0.000 A 
ATOM     10  C   UNL     1     114.280 129.510 135.378  0.00  0.00    +0.000 A 
ATOM     11  C   UNL     1     113.899 129.966 135.999  0.00  0.00    +0.000 A 
ENDROOT
BRANCH   3  13
ATOM     12  O   UNL     1     113.426 123.752 136.823  0.00  0.00    +0.000 OA
ATOM     13  C   UNL     1     113.463 126.225 136.743  0.00  0.00    +0.000 A 
ATOM     14  C   UNL     1     112.804 125.814 136.467  0.00  0.00    +0.000 A 
ATOM     15  C   UNL     1     114.110 125.812 137.045  0.00  0.00    +0.000 A 
ATOM     16  C   UNL     1     112.792 124.989 136.494  0.00  0.00    +0.000 A 
ATOM     17  C   UNL     1     114.098 124.988 137.072  0.00  0.00    +0.000 A 
ATOM     18  C   UNL     1     113.439 124.577 136.797  0.00  0.00    +0.000 A 
ENDBRANCH   3  13
BRANCH  10  19
ATOM     19  O   UNL     1     114.660 129.893 134.754  0.00  0.00    +0.000 OA
ATOM     20  C   UNL     1     115.287 130.406 134.906  0.00  0.00    +0.000 C 
ENDBRANCH  10  19
TORSDOF 2
ENDMDL
