MODEL 1
REMARK VINA RESULT:      -7.4      0.000      0.000
REMARK  Name = 5316626
REMARK  8 active torsions:
REMARK  status: ('A' for Active; 'I' for Inactive)
REMARK    1  A    between atoms: O_2  and  C_13
REMARK    2  A    between atoms: O_3  and  C_14
REMARK    3  A    between atoms: O_3  and  C_26
REMARK    4  A    between atoms: O_4  and  C_16
REMARK    5  A    between atoms: O_4  and  C_27
REMARK    6  A    between atoms: O_5  and  C_17
REMARK    7  A    between atoms: O_7  and  C_24
REMARK    8  A    between atoms: C_12  and  C_18
REMARK                            x       y       z     vdW  Elec       q    Type
REMARK                         _______ _______ _______ _____ _____    ______ ____
ROOT
ATOM      1  O   UNL     1     111.352 127.180 135.916  0.00  0.00    +0.000 OA
ATOM      2  O   UNL     1     113.702 127.531 136.608  0.00  0.00    +0.000 OA
ATOM      3  C   UNL     1     112.595 126.655 136.385  0.00  0.00    +0.000 A 
ATOM      4  C   UNL     1     111.812 126.538 136.154  0.00  0.00    +0.000 A 
ATOM      5  C   UNL     1     111.675 127.939 135.908  0.00  0.00    +0.000 A 
ATOM      6  C   UNL     1     111.464 125.752 136.158  0.00  0.00    +0.000 A 
ATOM      7  C   UNL     1     113.085 125.994 136.635  0.00  0.00    +0.000 A 
ATOM      8  C   UNL     1     112.919 127.414 136.377  0.00  0.00    +0.000 A 
ATOM      9  C   UNL     1     112.458 128.056 136.139  0.00  0.00    +0.000 A 
ATOM     10  C   UNL     1     111.938 125.080 136.405  0.00  0.00    +0.000 A 
ATOM     11  C   UNL     1     112.754 125.202 136.645  0.00  0.00    +0.000 A 
ENDROOT
BRANCH   5  12
ATOM     12  C   UNL     1     111.215 128.581 135.670  0.00  0.00    +0.000 A 
ATOM     13  C   UNL     1     111.115 128.741 134.867  0.00  0.00    +0.000 A 
ATOM     14  C   UNL     1     110.854 129.063 136.235  0.00  0.00    +0.000 A 
ATOM     15  C   UNL     1     110.654 129.383 134.628  0.00  0.00    +0.000 A 
ATOM     16  C   UNL     1     110.395 129.704 135.997  0.00  0.00    +0.000 A 
ATOM     17  C   UNL     1     110.295 129.864 135.194  0.00  0.00    +0.000 A 
BRANCH  17  18
ATOM     18  O   UNL     1     109.834 130.507 134.955  0.00  0.00    +0.000 OA
ATOM     19  C   UNL     1     109.066 130.594 135.243  0.00  0.00    +0.000 C 
ENDBRANCH  17  18
ENDBRANCH   5  12
BRANCH   6  20
ATOM     20  O   UNL     1     110.679 125.645 135.926  0.00  0.00    +0.000 OA
ATOM     21  C   UNL     1     110.509 125.290 135.201  0.00  0.00    +0.000 C 
ENDBRANCH   6  20
BRANCH  10  22
ATOM     22  O   UNL     1     111.612 124.322 136.412  0.00  0.00    +0.000 OA
ATOM     23  C   UNL     1     111.758 123.815 137.047  0.00  0.00    +0.000 C 
ENDBRANCH  10  22
BRANCH   7  24
ATOM     24  O   UNL     1     113.867 126.121 136.864  0.00  0.00    +0.000 OA
BRANCH  24  26
ATOM     25  O   UNL     1     114.705 125.332 136.017  0.00  0.00    +0.000 OA
ATOM     26  C   UNL     1     114.427 125.522 136.770  0.00  0.00    +0.000 C 
ATOM     27  C   UNL     1     114.707 125.112 137.429  0.00  0.00    +0.000 C 
ENDBRANCH  24  26
ENDBRANCH   7  24
BRANCH   9  28
ATOM     28  O   UNL     1     112.782 128.815 136.131  0.00  0.00    +0.000 OA
BRANCH  28  30
ATOM     29  O   UNL     1     113.784 128.685 135.122  0.00  0.00    +0.000 OA
ATOM     30  C   UNL     1     113.558 128.930 135.876  0.00  0.00    +0.000 C 
ATOM     31  C   UNL     1     114.107 129.291 136.375  0.00  0.00    +0.000 C 
ENDBRANCH  28  30
ENDBRANCH   9  28
TORSDOF 8
ENDMDL
MODEL 2
REMARK VINA RESULT:      -7.4      1.148      3.274
REMARK  Name = 5316626
REMARK  8 active torsions:
REMARK  status: ('A' for Active; 'I' for Inactive)
REMARK    1  A    between atoms: O_2  and  C_13
REMARK    2  A    between atoms: O_3  and  C_14
REMARK    3  A    between atoms: O_3  and  C_26
REMARK    4  A    between atoms: O_4  and  C_16
REMARK    5  A    between atoms: O_4  and  C_27
REMARK    6  A    between atoms: O_5  and  C_17
REMARK    7  A    between atoms: O_7  and  C_24
REMARK    8  A    between atoms: C_12  and  C_18
REMARK                            x       y       z     vdW  Elec       q    Type
REMARK                         _______ _______ _______ _____ _____    ______ ____
ROOT
ATOM      1  O   UNL     1     113.502 127.726 136.163  0.00  0.00    +0.000 OA
ATOM      2  O   UNL     1     111.179 128.063 135.378  0.00  0.00    +0.000 OA
ATOM      3  C   UNL     1     112.177 127.229 135.969  0.00  0.00    +0.000 A 
ATOM      4  C   UNL     1     112.952 127.116 136.231  0.00  0.00    +0.000 A 
ATOM      5  C   UNL     1     113.279 128.449 135.834  0.00  0.00    +0.000 A 
ATOM      6  C   UNL     1     113.196 126.368 136.576  0.00  0.00    +0.000 A 
ATOM      7  C   UNL     1     111.594 126.600 136.034  0.00  0.00    +0.000 A 
ATOM      8  C   UNL     1     111.953 127.951 135.640  0.00  0.00    +0.000 A 
ATOM      9  C   UNL     1     112.505 128.562 135.572  0.00  0.00    +0.000 A 
ATOM     10  C   UNL     1     112.627 125.729 136.649  0.00  0.00    +0.000 A 
ATOM     11  C   UNL     1     111.821 125.846 136.376  0.00  0.00    +0.000 A 
ENDROOT
BRANCH   5  12
ATOM     12  C   UNL     1     113.830 129.059 135.766  0.00  0.00    +0.000 A 
ATOM     13  C   UNL     1     113.975 129.556 136.409  0.00  0.00    +0.000 A 
ATOM     14  C   UNL     1     114.235 129.174 135.057  0.00  0.00    +0.000 A 
ATOM     15  C   UNL     1     114.527 130.167 136.341  0.00  0.00    +0.000 A 
ATOM     16  C   UNL     1     114.785 129.784 134.989  0.00  0.00    +0.000 A 
ATOM     17  C   UNL     1     114.931 130.281 135.632  0.00  0.00    +0.000 A 
BRANCH  17  18
ATOM     18  O   UNL     1     115.482 130.892 135.564  0.00  0.00    +0.000 OA
ATOM     19  C   UNL     1     115.601 131.263 134.837  0.00  0.00    +0.000 C 
ENDBRANCH  17  18
ENDBRANCH   5  12
BRANCH   6  20
ATOM     20  O   UNL     1     113.973 126.265 136.835  0.00  0.00    +0.000 OA
ATOM     21  C   UNL     1     114.478 125.752 136.430  0.00  0.00    +0.000 C 
ENDBRANCH   6  20
BRANCH  10  22
ATOM     22  O   UNL     1     112.853 125.007 136.978  0.00  0.00    +0.000 OA
ATOM     23  C   UNL     1     112.330 124.592 137.462  0.00  0.00    +0.000 C 
ENDBRANCH  10  22
BRANCH   7  24
ATOM     24  O   UNL     1     110.822 126.722 135.769  0.00  0.00    +0.000 OA
BRANCH  24  26
ATOM     25  O   UNL     1     110.749 125.886 134.613  0.00  0.00    +0.000 OA
ATOM     26  C   UNL     1     110.438 126.135 135.335  0.00  0.00    +0.000 C 
ATOM     27  C   UNL     1     109.743 125.797 135.623  0.00  0.00    +0.000 C 
ENDBRANCH  24  26
ENDBRANCH   7  24
BRANCH   9  28
ATOM     28  O   UNL     1     112.281 129.284 135.243  0.00  0.00    +0.000 OA
BRANCH  28  30
ATOM     29  O   UNL     1     111.326 129.785 136.179  0.00  0.00    +0.000 OA
ATOM     30  C   UNL     1     111.535 129.598 135.404  0.00  0.00    +0.000 C 
ATOM     31  C   UNL     1     111.000 129.726 134.789  0.00  0.00    +0.000 C 
ENDBRANCH  28  30
ENDBRANCH   9  28
TORSDOF 8
ENDMDL
MODEL 3
REMARK VINA RESULT:      -7.4      9.613     11.469
REMARK  Name = 5316626
REMARK  8 active torsions:
REMARK  status: ('A' for Active; 'I' for Inactive)
REMARK    1  A    between atoms: O_2  and  C_13
REMARK    2  A    between atoms: O_3  and  C_14
REMARK    3  A    between atoms: O_3  and  C_26
REMARK    4  A    between atoms: O_4  and  C_16
REMARK    5  A    between atoms: O_4  and  C_27
REMARK    6  A    between atoms: O_5  and  C_17
REMARK    7  A    between atoms: O_7  and  C_24
REMARK    8  A    between atoms: C_12  and  C_18
REMARK                            x       y       z     vdW  Elec       q    Type
REMARK                         _______ _______ _______ _____ _____    ______ ____
ROOT
ATOM      1  O   UNL     1     103.196 130.892 142.876  0.00  0.00    +0.000 OA
ATOM      2  O   UNL     1     103.264 129.077 141.195  0.00  0.00    +0.000 OA
ATOM      3  C   UNL     1     103.720 129.642 142.426  0.00  0.00    +0.000 A 
ATOM      4  C   UNL     1     103.697 130.247 142.987  0.00  0.00    +0.000 A 
ATOM      5  C   UNL     1     102.717 130.933 142.205  0.00  0.00    +0.000 A 
ATOM      6  C   UNL     1     104.191 130.216 143.689  0.00  0.00    +0.000 A 
ATOM      7  C   UNL     1     104.238 128.964 142.530  0.00  0.00    +0.000 A 
ATOM      8  C   UNL     1     103.241 129.682 141.755  0.00  0.00    +0.000 A 
ATOM      9  C   UNL     1     102.739 130.328 141.645  0.00  0.00    +0.000 A 
ATOM     10  C   UNL     1     104.715 129.546 143.810  0.00  0.00    +0.000 A 
ATOM     11  C   UNL     1     104.739 128.916 143.227  0.00  0.00    +0.000 A 
ENDROOT
BRANCH   5  12
ATOM     12  C   UNL     1     102.216 131.579 142.095  0.00  0.00    +0.000 A 
ATOM     13  C   UNL     1     101.418 131.520 142.297  0.00  0.00    +0.000 A 
ATOM     14  C   UNL     1     102.511 132.283 141.782  0.00  0.00    +0.000 A 
ATOM     15  C   UNL     1     100.916 132.166 142.186  0.00  0.00    +0.000 A 
ATOM     16  C   UNL     1     102.010 132.928 141.672  0.00  0.00    +0.000 A 
ATOM     17  C   UNL     1     101.212 132.870 141.874  0.00  0.00    +0.000 A 
BRANCH  17  18
ATOM     18  O   UNL     1     100.710 133.516 141.763  0.00  0.00    +0.000 OA
ATOM     19  C   UNL     1     100.895 134.245 142.103  0.00  0.00    +0.000 C 
ENDBRANCH  17  18
ENDBRANCH   5  12
BRANCH   6  20
ATOM     20  O   UNL     1     104.161 130.826 144.244  0.00  0.00    +0.000 OA
ATOM     21  C   UNL     1     104.805 131.335 144.332  0.00  0.00    +0.000 C 
ENDBRANCH   6  20
BRANCH  10  22
ATOM     22  O   UNL     1     105.192 129.508 144.481  0.00  0.00    +0.000 OA
ATOM     23  C   UNL     1     105.269 128.798 144.894  0.00  0.00    +0.000 C 
ENDBRANCH  10  22
BRANCH   7  24
ATOM     24  O   UNL     1     104.254 128.364 141.964  0.00  0.00    +0.000 OA
BRANCH  24  26
ATOM     25  O   UNL     1     105.537 128.497 141.350  0.00  0.00    +0.000 OA
ATOM     26  C   UNL     1     104.974 128.033 141.734  0.00  0.00    +0.000 C 
ATOM     27  C   UNL     1     105.131 127.237 141.889  0.00  0.00    +0.000 C 
ENDBRANCH  24  26
ENDBRANCH   7  24
BRANCH   9  28
ATOM     28  O   UNL     1     102.261 130.368 140.974  0.00  0.00    +0.000 OA
BRANCH  28  30
ATOM     29  O   UNL     1     103.202 130.447 139.902  0.00  0.00    +0.000 OA
ATOM     30  C   UNL     1     102.543 130.094 140.249  0.00  0.00    +0.000 C 
ATOM     31  C   UNL     1     102.164 129.465 139.872  0.00  0.00    +0.000 C 
ENDBRANCH  28  30
ENDBRANCH   9  28
TORSDOF 8
ENDMDL
MODEL 4
REMARK VINA RESULT:      -7.3      3.146      5.327
REMARK  Name = 5316626
REMARK  8 active torsions:
REMARK  status: ('A' for Active; 'I' for Inactive)
REMARK    1  A    between atoms: O_2  and  C_13
REMARK    2  A    between atoms: O_3  and  C_14
REMARK    3  A    between atoms: O_3  and  C_26
REMARK    4  A    between atoms: O_4  and  C_16
REMARK    5  A    between atoms: O_4  and  C_27
REMARK    6  A    between atoms: O_5  and  C_17
REMARK    7  A    between atoms: O_7  and  C_24
REMARK    8  A    between atoms: C_12  and  C_18
REMARK                            x       y       z     vdW  Elec       q    Type
REMARK                         _______ _______ _______ _____ _____    ______ ____
ROOT
ATOM      1  O   UNL     1     113.542 126.453 138.970  0.00  0.00    +0.000 OA
ATOM      2  O   UNL     1     111.124 125.950 138.810  0.00  0.00    +0.000 OA
ATOM      3  C   UNL     1     112.225 126.526 139.517  0.00  0.00    +0.000 A 
ATOM      4  C   UNL     1     113.031 126.693 139.570  0.00  0.00    +0.000 A 
ATOM      5  C   UNL     1     113.249 126.044 138.316  0.00  0.00    +0.000 A 
ATOM      6  C   UNL     1     113.349 127.118 140.247  0.00  0.00    +0.000 A 
ATOM      7  C   UNL     1     111.681 126.771 140.136  0.00  0.00    +0.000 A 
ATOM      8  C   UNL     1     111.930 126.118 138.864  0.00  0.00    +0.000 A 
ATOM      9  C   UNL     1     112.443 125.877 138.263  0.00  0.00    +0.000 A 
ATOM     10  C   UNL     1     112.821 127.371 140.875  0.00  0.00    +0.000 A 
ATOM     11  C   UNL     1     111.982 127.197 140.819  0.00  0.00    +0.000 A 
ENDROOT
BRANCH   5  12
ATOM     12  C   UNL     1     113.760 125.804 137.716  0.00  0.00    +0.000 A 
ATOM     13  C   UNL     1     113.841 126.262 137.035  0.00  0.00    +0.000 A 
ATOM     14  C   UNL     1     114.192 125.105 137.796  0.00  0.00    +0.000 A 
ATOM     15  C   UNL     1     114.353 126.022 136.433  0.00  0.00    +0.000 A 
ATOM     16  C   UNL     1     114.703 124.865 137.196  0.00  0.00    +0.000 A 
ATOM     17  C   UNL     1     114.784 125.323 136.515  0.00  0.00    +0.000 A 
BRANCH  17  18
ATOM     18  O   UNL     1     115.296 125.082 135.913  0.00  0.00    +0.000 OA
ATOM     19  C   UNL     1     115.574 125.631 135.363  0.00  0.00    +0.000 C 
ENDBRANCH  17  18
ENDBRANCH   5  12
BRANCH   6  20
ATOM     20  O   UNL     1     114.157 127.281 140.291  0.00  0.00    +0.000 OA
ATOM     21  C   UNL     1     114.618 126.924 140.875  0.00  0.00    +0.000 C 
ENDBRANCH   6  20
BRANCH  10  22
ATOM     22  O   UNL     1     113.117 127.779 141.528  0.00  0.00    +0.000 OA
ATOM     23  C   UNL     1     112.744 128.466 141.790  0.00  0.00    +0.000 C 
ENDBRANCH  10  22
BRANCH   7  24
ATOM     24  O   UNL     1     110.877 126.599 140.074  0.00  0.00    +0.000 OA
BRANCH  24  26
ATOM     25  O   UNL     1     110.614 125.774 141.211  0.00  0.00    +0.000 OA
ATOM     26  C   UNL     1     110.436 126.436 140.753  0.00  0.00    +0.000 C 
ATOM     27  C   UNL     1     109.818 126.937 140.973  0.00  0.00    +0.000 C 
ENDBRANCH  24  26
ENDBRANCH   7  24
BRANCH   9  28
ATOM     28  O   UNL     1     112.148 125.469 137.609  0.00  0.00    +0.000 OA
BRANCH  28  30
ATOM     29  O   UNL     1     111.497 124.320 138.154  0.00  0.00    +0.000 OA
ATOM     30  C   UNL     1     111.475 124.998 137.685  0.00  0.00    +0.000 C 
ATOM     31  C   UNL     1     110.780 125.206 137.292  0.00  0.00    +0.000 C 
ENDBRANCH  28  30
ENDBRANCH   9  28
TORSDOF 8
ENDMDL
MODEL 5
REMARK VINA RESULT:      -7.3     13.296     14.811
REMARK  Name = 5316626
REMARK  8 active torsions:
REMARK  status: ('A' for Active; 'I' for Inactive)
REMARK    1  A    between atoms: O_2  and  C_13
REMARK    2  A    between atoms: O_3  and  C_14
REMARK    3  A    between atoms: O_3  and  C_26
REMARK    4  A    between atoms: O_4  and  C_16
REMARK    5  A    between atoms: O_4  and  C_27
REMARK    6  A    between atoms: O_5  and  C_17
REMARK    7  A    between atoms: O_7  and  C_24
REMARK    8  A    between atoms: C_12  and  C_18
REMARK                            x       y       z     vdW  Elec       q    Type
REMARK                         _______ _______ _______ _____ _____    ______ ____
ROOT
ATOM      1  O   UNL     1     103.876 124.479 148.037  0.00  0.00    +0.000 OA
ATOM      2  O   UNL     1     103.469 123.727 145.714  0.00  0.00    +0.000 OA
ATOM      3  C   UNL     1     102.989 123.977 147.036  0.00  0.00    +0.000 A 
ATOM      4  C   UNL     1     103.124 124.228 147.811  0.00  0.00    +0.000 A 
ATOM      5  C   UNL     1     104.494 124.479 147.489  0.00  0.00    +0.000 A 
ATOM      6  C   UNL     1     102.490 124.232 148.391  0.00  0.00    +0.000 A 
ATOM      7  C   UNL     1     102.209 123.714 146.789  0.00  0.00    +0.000 A 
ATOM      8  C   UNL     1     103.605 123.978 146.488  0.00  0.00    +0.000 A 
ATOM      9  C   UNL     1     104.358 124.229 146.715  0.00  0.00    +0.000 A 
ATOM     10  C   UNL     1     101.704 123.972 148.161  0.00  0.00    +0.000 A 
ATOM     11  C   UNL     1     101.563 123.711 147.355  0.00  0.00    +0.000 A 
ENDROOT
BRANCH   5  12
ATOM     12  C   UNL     1     105.246 124.730 147.715  0.00  0.00    +0.000 A 
ATOM     13  C   UNL     1     105.429 125.535 147.715  0.00  0.00    +0.000 A 
ATOM     14  C   UNL     1     105.815 124.178 147.941  0.00  0.00    +0.000 A 
ATOM     15  C   UNL     1     106.183 125.786 147.942  0.00  0.00    +0.000 A 
ATOM     16  C   UNL     1     106.567 124.428 148.167  0.00  0.00    +0.000 A 
ATOM     17  C   UNL     1     106.751 125.233 148.168  0.00  0.00    +0.000 A 
BRANCH  17  18
ATOM     18  O   UNL     1     107.504 125.484 148.394  0.00  0.00    +0.000 OA
ATOM     19  C   UNL     1     108.135 124.953 148.390  0.00  0.00    +0.000 C 
ENDBRANCH  17  18
ENDBRANCH   5  12
BRANCH   6  20
ATOM     20  O   UNL     1     102.635 124.484 149.163  0.00  0.00    +0.000 OA
ATOM     21  C   UNL     1     102.331 125.206 149.425  0.00  0.00    +0.000 C 
ENDBRANCH   6  20
BRANCH  10  22
ATOM     22  O   UNL     1     101.089 123.972 148.711  0.00  0.00    +0.000 OA
ATOM     23  C   UNL     1     100.710 123.267 148.907  0.00  0.00    +0.000 C 
ENDBRANCH  10  22
BRANCH   7  24
ATOM     24  O   UNL     1     102.083 123.465 146.012  0.00  0.00    +0.000 OA
BRANCH  24  26
ATOM     25  O   UNL     1     100.959 124.214 145.546  0.00  0.00    +0.000 OA
ATOM     26  C   UNL     1     101.323 123.489 145.690  0.00  0.00    +0.000 C 
ATOM     27  C   UNL     1     100.929 122.786 145.511  0.00  0.00    +0.000 C 
ENDBRANCH  24  26
ENDBRANCH   7  24
BRANCH   9  28
ATOM     28  O   UNL     1     104.974 124.229 146.167  0.00  0.00    +0.000 OA
BRANCH  28  30
ATOM     29  O   UNL     1     104.571 125.233 145.234  0.00  0.00    +0.000 OA
ATOM     30  C   UNL     1     104.835 124.468 145.389  0.00  0.00    +0.000 C 
ATOM     31  C   UNL     1     104.961 123.940 144.768  0.00  0.00    +0.000 C 
ENDBRANCH  28  30
ENDBRANCH   9  28
TORSDOF 8
ENDMDL
MODEL 6
REMARK VINA RESULT:      -7.2     12.314     13.454
REMARK  Name = 5316626
REMARK  8 active torsions:
REMARK  status: ('A' for Active; 'I' for Inactive)
REMARK    1  A    between atoms: O_2  and  C_13
REMARK    2  A    between atoms: O_3  and  C_14
REMARK    3  A    between atoms: O_3  and  C_26
REMARK    4  A    between atoms: O_4  and  C_16
REMARK    5  A    between atoms: O_4  and  C_27
REMARK    6  A    between atoms: O_5  and  C_17
REMARK    7  A    between atoms: O_7  and  C_24
REMARK    8  A    between atoms: C_12  and  C_18
REMARK                            x       y       z     vdW  Elec       q    Type
REMARK                         _______ _______ _______ _____ _____    ______ ____
ROOT
ATOM      1  O   UNL     1     104.898 126.054 147.359  0.00  0.00    +0.000 OA
ATOM      2  O   UNL     1     104.471 124.482 145.496  0.00  0.00    +0.000 OA
ATOM      3  C   UNL     1     104.201 124.927 146.828  0.00  0.00    +0.000 A 
ATOM      4  C   UNL     1     104.344 125.451 147.448  0.00  0.00    +0.000 A 
ATOM      5  C   UNL     1     105.311 126.135 146.649  0.00  0.00    +0.000 A 
ATOM      6  C   UNL     1     103.920 125.378 148.193  0.00  0.00    +0.000 A 
ATOM      7  C   UNL     1     103.625 124.293 146.908  0.00  0.00    +0.000 A 
ATOM      8  C   UNL     1     104.613 125.006 146.117  0.00  0.00    +0.000 A 
ATOM      9  C   UNL     1     105.169 125.610 146.028  0.00  0.00    +0.000 A 
ATOM     10  C   UNL     1     103.341 124.751 148.292  0.00  0.00    +0.000 A 
ATOM     11  C   UNL     1     103.193 124.205 147.645  0.00  0.00    +0.000 A 
ENDROOT
BRANCH   5  12
ATOM     12  C   UNL     1     105.866 126.738 146.560  0.00  0.00    +0.000 A 
ATOM     13  C   UNL     1     105.660 127.431 146.162  0.00  0.00    +0.000 A 
ATOM     14  C   UNL     1     106.626 126.650 146.868  0.00  0.00    +0.000 A 
ATOM     15  C   UNL     1     106.215 128.036 146.073  0.00  0.00    +0.000 A 
ATOM     16  C   UNL     1     107.180 127.253 146.779  0.00  0.00    +0.000 A 
ATOM     17  C   UNL     1     106.975 127.946 146.381  0.00  0.00    +0.000 A 
BRANCH  17  18
ATOM     18  O   UNL     1     107.530 128.551 146.292  0.00  0.00    +0.000 OA
ATOM     19  C   UNL     1     107.765 128.787 145.537  0.00  0.00    +0.000 C 
ENDBRANCH  17  18
ENDBRANCH   5  12
BRANCH   6  20
ATOM     20  O   UNL     1     104.070 125.907 148.809  0.00  0.00    +0.000 OA
ATOM     21  C   UNL     1     103.514 126.487 148.998  0.00  0.00    +0.000 C 
ENDBRANCH   6  20
BRANCH  10  22
ATOM     22  O   UNL     1     102.930 124.673 149.003  0.00  0.00    +0.000 OA
ATOM     23  C   UNL     1     102.817 123.927 149.335  0.00  0.00    +0.000 C 
ENDBRANCH  10  22
BRANCH   7  24
ATOM     24  O   UNL     1     103.490 123.774 146.282  0.00  0.00    +0.000 OA
BRANCH  24  26
ATOM     25  O   UNL     1     102.163 124.087 145.854  0.00  0.00    +0.000 OA
ATOM     26  C   UNL     1     102.720 123.534 146.105  0.00  0.00    +0.000 C 
ATOM     27  C   UNL     1     102.509 122.739 146.178  0.00  0.00    +0.000 C 
ENDBRANCH  24  26
ENDBRANCH   7  24
BRANCH   9  28
ATOM     28  O   UNL     1     105.581 125.690 145.318  0.00  0.00    +0.000 OA
BRANCH  28  30
ATOM     29  O   UNL     1     106.362 124.494 145.319  0.00  0.00    +0.000 OA
ATOM     30  C   UNL     1     105.862 125.020 144.927  0.00  0.00    +0.000 C 
ATOM     31  C   UNL     1     105.644 124.878 144.144  0.00  0.00    +0.000 C 
ENDBRANCH  28  30
ENDBRANCH   9  28
TORSDOF 8
ENDMDL
MODEL 7
REMARK VINA RESULT:      -7.2      1.158      2.732
REMARK  Name = 5316626
REMARK  8 active torsions:
REMARK  status: ('A' for Active; 'I' for Inactive)
REMARK    1  A    between atoms: O_2  and  C_13
REMARK    2  A    between atoms: O_3  and  C_14
REMARK    3  A    between atoms: O_3  and  C_26
REMARK    4  A    between atoms: O_4  and  C_16
REMARK    5  A    between atoms: O_4  and  C_27
REMARK    6  A    between atoms: O_5  and  C_17
REMARK    7  A    between atoms: O_7  and  C_24
REMARK    8  A    between atoms: C_12  and  C_18
REMARK                            x       y       z     vdW  Elec       q    Type
REMARK                         _______ _______ _______ _____ _____    ______ ____
ROOT
ATOM      1  O   UNL     1     111.981 127.449 136.460  0.00  0.00    +0.000 OA
ATOM      2  O   UNL     1     111.019 125.305 135.683  0.00  0.00    +0.000 OA
ATOM      3  C   UNL     1     111.980 126.021 136.462  0.00  0.00    +0.000 A 
ATOM      4  C   UNL     1     112.300 126.735 136.721  0.00  0.00    +0.000 A 
ATOM      5  C   UNL     1     111.341 127.450 135.939  0.00  0.00    +0.000 A 
ATOM      6  C   UNL     1     112.967 126.748 137.264  0.00  0.00    +0.000 A 
ATOM      7  C   UNL     1     112.304 125.270 136.728  0.00  0.00    +0.000 A 
ATOM      8  C   UNL     1     111.340 126.020 135.942  0.00  0.00    +0.000 A 
ATOM      9  C   UNL     1     111.020 126.735 135.680  0.00  0.00    +0.000 A 
ATOM     10  C   UNL     1     113.304 126.008 137.539  0.00  0.00    +0.000 A 
ATOM     11  C   UNL     1     112.970 125.264 137.269  0.00  0.00    +0.000 A 
ENDROOT
BRANCH   5  12
ATOM     12  C   UNL     1     111.022 128.163 135.678  0.00  0.00    +0.000 A 
ATOM     13  C   UNL     1     111.243 128.470 134.945  0.00  0.00    +0.000 A 
ATOM     14  C   UNL     1     110.481 128.572 136.149  0.00  0.00    +0.000 A 
ATOM     15  C   UNL     1     110.923 129.185 134.683  0.00  0.00    +0.000 A 
ATOM     16  C   UNL     1     110.162 129.285 135.888  0.00  0.00    +0.000 A 
ATOM     17  C   UNL     1     110.383 129.592 135.155  0.00  0.00    +0.000 A 
BRANCH  17  18
ATOM     18  O   UNL     1     110.064 130.307 134.893  0.00  0.00    +0.000 OA
ATOM     19  C   UNL     1     109.288 130.334 134.612  0.00  0.00    +0.000 C 
ENDBRANCH  17  18
ENDBRANCH   5  12
BRANCH   6  20
ATOM     20  O   UNL     1     113.282 127.468 137.517  0.00  0.00    +0.000 OA
ATOM     21  C   UNL     1     113.228 127.684 138.312  0.00  0.00    +0.000 C 
ENDBRANCH   6  20
BRANCH  10  22
ATOM     22  O   UNL     1     113.944 126.011 138.060  0.00  0.00    +0.000 OA
ATOM     23  C   UNL     1     114.601 125.535 137.910  0.00  0.00    +0.000 C 
ENDBRANCH  10  22
BRANCH   7  24
ATOM     24  O   UNL     1     111.976 124.560 136.463  0.00  0.00    +0.000 OA
BRANCH  24  26
ATOM     25  O   UNL     1     111.399 124.024 137.655  0.00  0.00    +0.000 OA
ATOM     26  C   UNL     1     111.875 123.932 136.988  0.00  0.00    +0.000 C 
ATOM     27  C   UNL     1     112.251 123.211 136.846  0.00  0.00    +0.000 C 
ENDBRANCH  24  26
ENDBRANCH   7  24
BRANCH   9  28
ATOM     28  O   UNL     1     110.380 126.734 135.160  0.00  0.00    +0.000 OA
BRANCH  28  30
ATOM     29  O   UNL     1     109.371 126.126 135.967  0.00  0.00    +0.000 OA
ATOM     30  C   UNL     1     109.775 126.181 135.251  0.00  0.00    +0.000 C 
ATOM     31  C   UNL     1     109.574 125.684 134.624  0.00  0.00    +0.000 C 
ENDBRANCH  28  30
ENDBRANCH   9  28
TORSDOF 8
ENDMDL
MODEL 8
REMARK VINA RESULT:      -7.2      1.768      4.599
REMARK  Name = 5316626
REMARK  8 active torsions:
REMARK  status: ('A' for Active; 'I' for Inactive)
REMARK    1  A    between atoms: O_2  and  C_13
REMARK    2  A    between atoms: O_3  and  C_14
REMARK    3  A    between atoms: O_3  and  C_26
REMARK    4  A    between atoms: O_4  and  C_16
REMARK    5  A    between atoms: O_4  and  C_27
REMARK    6  A    between atoms: O_5  and  C_17
REMARK    7  A    between atoms: O_7  and  C_24
REMARK    8  A    between atoms: C_12  and  C_18
REMARK                            x       y       z     vdW  Elec       q    Type
REMARK                         _______ _______ _______ _____ _____    ______ ____
ROOT
ATOM      1  O   UNL     1     112.946 127.522 136.591  0.00  0.00    +0.000 OA
ATOM      2  O   UNL     1     113.129 128.127 138.984  0.00  0.00    +0.000 OA
ATOM      3  C   UNL     1     113.238 128.484 137.605  0.00  0.00    +0.000 A 
ATOM      4  C   UNL     1     113.177 128.283 136.807  0.00  0.00    +0.000 A 
ATOM      5  C   UNL     1     112.775 126.961 137.172  0.00  0.00    +0.000 A 
ATOM      6  C   UNL     1     113.353 128.858 136.192  0.00  0.00    +0.000 A 
ATOM      7  C   UNL     1     113.479 129.275 137.843  0.00  0.00    +0.000 A 
ATOM      8  C   UNL     1     113.068 127.925 138.186  0.00  0.00    +0.000 A 
ATOM      9  C   UNL     1     112.836 127.163 137.970  0.00  0.00    +0.000 A 
ATOM     10  C   UNL     1     113.594 129.652 136.411  0.00  0.00    +0.000 A 
ATOM     11  C   UNL     1     113.658 129.862 137.242  0.00  0.00    +0.000 A 
ENDROOT
BRANCH   5  12
ATOM     12  C   UNL     1     112.544 126.200 136.956  0.00  0.00    +0.000 A 
ATOM     13  C   UNL     1     111.744 125.998 136.949  0.00  0.00    +0.000 A 
ATOM     14  C   UNL     1     113.111 125.639 136.746  0.00  0.00    +0.000 A 
ATOM     15  C   UNL     1     111.511 125.236 136.733  0.00  0.00    +0.000 A 
ATOM     16  C   UNL     1     112.880 124.878 136.530  0.00  0.00    +0.000 A 
ATOM     17  C   UNL     1     112.080 124.676 136.524  0.00  0.00    +0.000 A 
BRANCH  17  18
ATOM     18  O   UNL     1     111.848 123.914 136.307  0.00  0.00    +0.000 OA
ATOM     19  C   UNL     1     111.935 123.290 136.839  0.00  0.00    +0.000 C 
ENDBRANCH  17  18
ENDBRANCH   5  12
BRANCH   6  20
ATOM     20  O   UNL     1     113.289 128.647 135.397  0.00  0.00    +0.000 OA
ATOM     21  C   UNL     1     112.676 128.953 134.937  0.00  0.00    +0.000 C 
ENDBRANCH   6  20
BRANCH  10  22
ATOM     22  O   UNL     1     113.764 130.210 135.828  0.00  0.00    +0.000 OA
ATOM     23  C   UNL     1     114.487 130.606 135.834  0.00  0.00    +0.000 C 
ENDBRANCH  10  22
BRANCH   7  24
ATOM     24  O   UNL     1     113.537 129.467 138.643  0.00  0.00    +0.000 OA
BRANCH  24  26
ATOM     25  O   UNL     1     112.813 130.685 138.835  0.00  0.00    +0.000 OA
ATOM     26  C   UNL     1     113.518 130.258 138.879  0.00  0.00    +0.000 C 
ATOM     27  C   UNL     1     114.203 130.621 139.160  0.00  0.00    +0.000 C 
ENDBRANCH  24  26
ENDBRANCH   7  24
BRANCH   9  28
ATOM     28  O   UNL     1     112.665 126.603 138.551  0.00  0.00    +0.000 OA
BRANCH  28  30
ATOM     29  O   UNL     1     113.931 126.424 139.189  0.00  0.00    +0.000 OA
ATOM     30  C   UNL     1     113.121 126.570 139.238  0.00  0.00    +0.000 C 
ATOM     31  C   UNL     1     112.765 126.683 139.974  0.00  0.00    +0.000 C 
ENDBRANCH  28  30
ENDBRANCH   9  28
TORSDOF 8
ENDMDL
MODEL 9
REMARK VINA RESULT:      -7.2     10.600     11.839
REMARK  Name = 5316626
REMARK  8 active torsions:
REMARK  status: ('A' for Active; 'I' for Inactive)
REMARK    1  A    between atoms: O_2  and  C_13
REMARK    2  A    between atoms: O_3  and  C_14
REMARK    3  A    between atoms: O_3  and  C_26
REMARK    4  A    between atoms: O_4  and  C_16
REMARK    5  A    between atoms: O_4  and  C_27
REMARK    6  A    between atoms: O_5  and  C_17
REMARK    7  A    between atoms: O_7  and  C_24
REMARK    8  A    between atoms: C_12  and  C_18
REMARK                            x       y       z     vdW  Elec       q    Type
REMARK                         _______ _______ _______ _____ _____    ______ ____
ROOT
ATOM      1  O   UNL     1     106.306 125.333 145.758  0.00  0.00    +0.000 OA
ATOM      2  O   UNL     1     106.537 127.715 145.128  0.00  0.00    +0.000 OA
ATOM      3  C   UNL     1     106.237 126.364 144.772  0.00  0.00    +0.000 A 
ATOM      4  C   UNL     1     106.160 125.570 144.982  0.00  0.00    +0.000 A 
ATOM      5  C   UNL     1     106.528 125.890 146.326  0.00  0.00    +0.000 A 
ATOM      6  C   UNL     1     105.929 124.980 144.401  0.00  0.00    +0.000 A 
ATOM      7  C   UNL     1     106.089 126.623 143.966  0.00  0.00    +0.000 A 
ATOM      8  C   UNL     1     106.460 126.921 145.338  0.00  0.00    +0.000 A 
ATOM      9  C   UNL     1     106.605 126.684 146.116  0.00  0.00    +0.000 A 
ATOM     10  C   UNL     1     105.777 125.221 143.591  0.00  0.00    +0.000 A 
ATOM     11  C   UNL     1     105.857 126.048 143.372  0.00  0.00    +0.000 A 
ENDROOT
BRANCH   5  12
ATOM     12  C   UNL     1     106.673 125.653 147.102  0.00  0.00    +0.000 A 
ATOM     13  C   UNL     1     107.402 125.321 147.302  0.00  0.00    +0.000 A 
ATOM     14  C   UNL     1     106.091 125.747 147.679  0.00  0.00    +0.000 A 
ATOM     15  C   UNL     1     107.547 125.084 148.079  0.00  0.00    +0.000 A 
ATOM     16  C   UNL     1     106.236 125.510 148.455  0.00  0.00    +0.000 A 
ATOM     17  C   UNL     1     106.964 125.179 148.655  0.00  0.00    +0.000 A 
BRANCH  17  18
ATOM     18  O   UNL     1     107.110 124.941 149.432  0.00  0.00    +0.000 OA
ATOM     19  C   UNL     1     107.600 124.294 149.581  0.00  0.00    +0.000 C 
ENDBRANCH  17  18
ENDBRANCH   5  12
BRANCH   6  20
ATOM     20  O   UNL     1     105.855 124.188 144.620  0.00  0.00    +0.000 OA
ATOM     21  C   UNL     1     105.106 123.850 144.695  0.00  0.00    +0.000 C 
ENDBRANCH   6  20
BRANCH  10  22
ATOM     22  O   UNL     1     105.555 124.662 143.026  0.00  0.00    +0.000 OA
ATOM     23  C   UNL     1     105.898 124.673 142.276  0.00  0.00    +0.000 C 
ENDBRANCH  10  22
BRANCH   7  24
ATOM     24  O   UNL     1     106.168 127.420 143.765  0.00  0.00    +0.000 OA
BRANCH  24  26
ATOM     25  O   UNL     1     104.853 127.826 143.381  0.00  0.00    +0.000 OA
ATOM     26  C   UNL     1     105.658 127.758 143.212  0.00  0.00    +0.000 C 
ATOM     27  C   UNL     1     105.952 128.029 142.491  0.00  0.00    +0.000 C 
ENDBRANCH  24  26
ENDBRANCH   7  24
BRANCH   9  28
ATOM     28  O   UNL     1     106.827 127.241 146.682  0.00  0.00    +0.000 OA
BRANCH  28  30
ATOM     29  O   UNL     1     108.070 127.767 146.214  0.00  0.00    +0.000 OA
ATOM     30  C   UNL     1     107.294 127.886 146.465  0.00  0.00    +0.000 C 
ATOM     31  C   UNL     1     106.984 128.650 146.501  0.00  0.00    +0.000 C 
ENDBRANCH  28  30
ENDBRANCH   9  28
TORSDOF 8
ENDMDL
MODEL 10
REMARK VINA RESULT:      -7.1      2.537      3.992
REMARK  Name = 5316626
REMARK  8 active torsions:
REMARK  status: ('A' for Active; 'I' for Inactive)
REMARK    1  A    between atoms: O_2  and  C_13
REMARK    2  A    between atoms: O_3  and  C_14
REMARK    3  A    between atoms: O_3  and  C_26
REMARK    4  A    between atoms: O_4  and  C_16
REMARK    5  A    between atoms: O_4  and  C_27
REMARK    6  A    between atoms: O_5  and  C_17
REMARK    7  A    between atoms: O_7  and  C_24
REMARK    8  A    between atoms: C_12  and  C_18
REMARK                            x       y       z     vdW  Elec       q    Type
REMARK                         _______ _______ _______ _____ _____    ______ ____
ROOT
ATOM      1  O   UNL     1     111.682 127.181 137.997  0.00  0.00    +0.000 OA
ATOM      2  O   UNL     1     113.819 126.167 138.727  0.00  0.00    +0.000 OA
ATOM      3  C   UNL     1     112.786 127.140 138.902  0.00  0.00    +0.000 A 
ATOM      4  C   UNL     1     112.074 127.478 138.658  0.00  0.00    +0.000 A 
ATOM      5  C   UNL     1     112.001 126.546 137.578  0.00  0.00    +0.000 A 
ATOM      6  C   UNL     1     111.731 128.140 139.086  0.00  0.00    +0.000 A 
ATOM      7  C   UNL     1     113.205 127.441 139.590  0.00  0.00    +0.000 A 
ATOM      8  C   UNL     1     113.106 126.505 138.484  0.00  0.00    +0.000 A 
ATOM      9  C   UNL     1     112.713 126.208 137.821  0.00  0.00    +0.000 A 
ATOM     10  C   UNL     1     112.136 128.454 139.776  0.00  0.00    +0.000 A 
ATOM     11  C   UNL     1     112.877 128.102 140.029  0.00  0.00    +0.000 A 
ENDROOT
BRANCH   5  12
ATOM     12  C   UNL     1     111.609 126.249 136.916  0.00  0.00    +0.000 A 
ATOM     13  C   UNL     1     111.166 125.555 136.976  0.00  0.00    +0.000 A 
ATOM     14  C   UNL     1     111.658 126.645 136.194  0.00  0.00    +0.000 A 
ATOM     15  C   UNL     1     110.773 125.257 136.314  0.00  0.00    +0.000 A 
ATOM     16  C   UNL     1     111.266 126.348 135.533  0.00  0.00    +0.000 A 
ATOM     17  C   UNL     1     110.823 125.654 135.593  0.00  0.00    +0.000 A 
BRANCH  17  18
ATOM     18  O   UNL     1     110.430 125.356 134.930  0.00  0.00    +0.000 OA
ATOM     19  C   UNL     1     109.789 125.766 134.613  0.00  0.00    +0.000 C 
ENDBRANCH  17  18
ENDBRANCH   5  12
BRANCH   6  20
ATOM     20  O   UNL     1     111.019 128.472 138.835  0.00  0.00    +0.000 OA
ATOM     21  C   UNL     1     110.329 128.346 139.272  0.00  0.00    +0.000 C 
ENDBRANCH   6  20
BRANCH  10  22
ATOM     22  O   UNL     1     111.814 129.089 140.193  0.00  0.00    +0.000 OA
ATOM     23  C   UNL     1     112.285 129.737 140.387  0.00  0.00    +0.000 C 
ENDBRANCH  10  22
BRANCH   7  24
ATOM     24  O   UNL     1     113.917 127.097 139.825  0.00  0.00    +0.000 OA
BRANCH  24  26
ATOM     25  O   UNL     1     113.621 126.625 141.141  0.00  0.00    +0.000 OA
ATOM     26  C   UNL     1     114.106 127.049 140.627  0.00  0.00    +0.000 C 
ATOM     27  C   UNL     1     114.781 127.427 140.915  0.00  0.00    +0.000 C 
ENDBRANCH  24  26
ENDBRANCH   7  24
BRANCH   9  28
ATOM     28  O   UNL     1     113.033 125.573 137.403  0.00  0.00    +0.000 OA
BRANCH  28  30
ATOM     29  O   UNL     1     114.205 126.168 136.843  0.00  0.00    +0.000 OA
ATOM     30  C   UNL     1     113.843 125.547 137.247  0.00  0.00    +0.000 C 
ATOM     31  C   UNL     1     114.290 124.900 137.497  0.00  0.00    +0.000 C 
ENDBRANCH  28  30
ENDBRANCH   9  28
TORSDOF 8
ENDMDL
