MODEL 1
REMARK VINA RESULT:     -11.1      0.000      0.000
REMARK  Name = 131752789
REMARK  8 active torsions:
REMARK  status: ('A' for Active; 'I' for Inactive)
REMARK    1  A    between atoms: O_1  and  C_19
REMARK    2  A    between atoms: O_1  and  C_24
REMARK    3  A    between atoms: O_4  and  C_27
REMARK    4  A    between atoms: O_4  and  C_30
REMARK    5  A    between atoms: O_6  and  C_23
REMARK    6  A    between atoms: O_6  and  C_37
REMARK    7  A    between atoms: C_22  and  C_27
REMARK    8  A    between atoms: C_38  and  C_41
REMARK                            x       y       z     vdW  Elec       q    Type
REMARK                         _______ _______ _______ _____ _____    ______ ____
ROOT
ATOM      1  O   UNL     1     111.101 128.547 138.095  0.00  0.00    +0.000 OA
ATOM      2  O   UNL     1     108.939 129.741 138.253  0.00  0.00    +0.000 OA
ATOM      3  O   UNL     1     109.008 128.249 137.552  0.00  0.00    +0.000 OA
ATOM      4  C   UNL     1     110.347 129.691 138.498  0.00  0.00    +0.000 C 
ATOM      5  C   UNL     1     109.660 129.343 138.200  0.00  0.00    +0.000 C 
ATOM      6  C   UNL     1     109.695 128.597 137.850  0.00  0.00    +0.000 C 
ATOM      7  C   UNL     1     110.416 128.199 137.797  0.00  0.00    +0.000 C 
ATOM      8  C   UNL     1     111.067 129.293 138.445  0.00  0.00    +0.000 C 
ENDROOT
BRANCH   4   9
ATOM      9  O   UNL     1     110.312 130.437 138.848  0.00  0.00    +0.000 OA
BRANCH   9  14
ATOM     10  O   UNL     1     110.322 131.046 137.556  0.00  0.00    +0.000 OA
ATOM     11  O   UNL     1     110.185 131.926 139.549  0.00  0.00    +0.000 OA
ATOM     12  O   UNL     1     110.132 133.279 138.606  0.00  0.00    +0.000 OA
ATOM     13  O   UNL     1     110.206 133.144 136.963  0.00  0.00    +0.000 OA
ATOM     14  C   UNL     1     110.285 131.114 138.377  0.00  0.00    +0.000 C 
ATOM     15  C   UNL     1     110.222 131.858 138.728  0.00  0.00    +0.000 C 
ATOM     16  C   UNL     1     110.195 132.535 138.257  0.00  0.00    +0.000 C 
ATOM     17  C   UNL     1     110.232 132.467 137.435  0.00  0.00    +0.000 C 
ATOM     18  C   UNL     1     110.295 131.723 137.085  0.00  0.00    +0.000 C 
ATOM     19  C   UNL     1     110.332 131.655 136.263  0.00  0.00    +0.000 C 
ENDBRANCH   9  14
ENDBRANCH   4   9
BRANCH   8  20
ATOM     20  O   UNL     1     111.753 129.641 138.743  0.00  0.00    +0.000 OA
BRANCH  20  23
ATOM     21  O   UNL     1     113.641 128.695 139.298  0.00  0.00    +0.000 OA
ATOM     22  O   UNL     1     111.291 128.781 140.073  0.00  0.00    +0.000 OA
ATOM     23  C   UNL     1     112.305 129.182 139.150  0.00  0.00    +0.000 A 
ATOM     24  C   UNL     1     113.089 129.154 138.891  0.00  0.00    +0.000 A 
ATOM     25  C   UNL     1     112.075 128.752 139.815  0.00  0.00    +0.000 A 
ATOM     26  C   UNL     1     112.627 128.293 140.221  0.00  0.00    +0.000 A 
ATOM     27  C   UNL     1     113.409 128.265 139.963  0.00  0.00    +0.000 A 
ATOM     28  C   UNL     1     112.374 127.850 140.913  0.00  0.00    +0.000 A 
ATOM     29  C   UNL     1     113.993 127.791 140.378  0.00  0.00    +0.000 A 
ATOM     30  C   UNL     1     112.944 127.370 141.341  0.00  0.00    +0.000 A 
ATOM     31  C   UNL     1     113.760 127.340 141.071  0.00  0.00    +0.000 A 
BRANCH  24  34
ATOM     32  O   UNL     1     113.634 129.273 136.088  0.00  0.00    +0.000 OA
ATOM     33  O   UNL     1     114.010 130.873 136.229  0.00  0.00    +0.000 OA
ATOM     34  C   UNL     1     113.319 129.584 138.226  0.00  0.00    +0.000 A 
ATOM     35  C   UNL     1     113.362 129.213 137.490  0.00  0.00    +0.000 A 
ATOM     36  C   UNL     1     113.507 130.384 138.297  0.00  0.00    +0.000 A 
ATOM     37  C   UNL     1     113.592 129.644 136.825  0.00  0.00    +0.000 A 
ATOM     38  C   UNL     1     113.737 130.814 137.631  0.00  0.00    +0.000 A 
ATOM     39  C   UNL     1     113.779 130.444 136.895  0.00  0.00    +0.000 A 
ENDBRANCH  24  34
ENDBRANCH  20  23
ENDBRANCH   8  20
BRANCH   7  40
ATOM     40  C   UNL     1     110.450 127.453 137.447  0.00  0.00    +0.000 C 
BRANCH  40  41
ATOM     41  O   UNL     1     110.813 126.827 137.842  0.00  0.00    +0.000 OA
BRANCH  41  46
ATOM     42  O   UNL     1     110.902 126.092 136.619  0.00  0.00    +0.000 OA
ATOM     43  O   UNL     1     111.316 125.497 138.678  0.00  0.00    +0.000 OA
ATOM     44  O   UNL     1     111.656 124.096 137.875  0.00  0.00    +0.000 OA
ATOM     45  O   UNL     1     111.494 124.026 136.234  0.00  0.00    +0.000 OA
ATOM     46  C   UNL     1     110.983 126.127 137.439  0.00  0.00    +0.000 C 
ATOM     47  C   UNL     1     111.235 125.462 137.857  0.00  0.00    +0.000 C 
ATOM     48  C   UNL     1     111.405 124.762 137.456  0.00  0.00    +0.000 C 
ATOM     49  C   UNL     1     111.323 124.727 136.636  0.00  0.00    +0.000 C 
ATOM     50  C   UNL     1     111.072 125.392 136.218  0.00  0.00    +0.000 C 
ATOM     51  C   UNL     1     110.991 125.357 135.397  0.00  0.00    +0.000 C 
ENDBRANCH  41  46
ENDBRANCH  40  41
ENDBRANCH   7  40
TORSDOF 8
ENDMDL
MODEL 2
REMARK VINA RESULT:     -11.1      1.590      4.972
REMARK  Name = 131752789
REMARK  8 active torsions:
REMARK  status: ('A' for Active; 'I' for Inactive)
REMARK    1  A    between atoms: O_1  and  C_19
REMARK    2  A    between atoms: O_1  and  C_24
REMARK    3  A    between atoms: O_4  and  C_27
REMARK    4  A    between atoms: O_4  and  C_30
REMARK    5  A    between atoms: O_6  and  C_23
REMARK    6  A    between atoms: O_6  and  C_37
REMARK    7  A    between atoms: C_22  and  C_27
REMARK    8  A    between atoms: C_38  and  C_41
REMARK                            x       y       z     vdW  Elec       q    Type
REMARK                         _______ _______ _______ _____ _____    ______ ____
ROOT
ATOM      1  O   UNL     1     111.939 129.533 137.567  0.00  0.00    +0.000 OA
ATOM      2  O   UNL     1     111.982 129.879 140.017  0.00  0.00    +0.000 OA
ATOM      3  O   UNL     1     110.839 130.634 139.098  0.00  0.00    +0.000 OA
ATOM      4  C   UNL     1     112.525 129.270 138.843  0.00  0.00    +0.000 C 
ATOM      5  C   UNL     1     111.968 129.763 139.201  0.00  0.00    +0.000 C 
ATOM      6  C   UNL     1     111.396 130.141 138.740  0.00  0.00    +0.000 C 
ATOM      7  C   UNL     1     111.382 130.025 137.924  0.00  0.00    +0.000 C 
ATOM      8  C   UNL     1     112.511 129.155 138.026  0.00  0.00    +0.000 C 
ENDROOT
BRANCH   4   9
ATOM      9  O   UNL     1     113.096 128.893 139.303  0.00  0.00    +0.000 OA
BRANCH   9  14
ATOM     10  O   UNL     1     112.169 127.856 139.626  0.00  0.00    +0.000 OA
ATOM     11  O   UNL     1     114.153 128.296 140.421  0.00  0.00    +0.000 OA
ATOM     12  O   UNL     1     113.754 126.960 141.303  0.00  0.00    +0.000 OA
ATOM     13  O   UNL     1     112.298 126.221 141.066  0.00  0.00    +0.000 OA
ATOM     14  C   UNL     1     112.897 128.225 139.744  0.00  0.00    +0.000 C 
ATOM     15  C   UNL     1     113.426 127.927 140.303  0.00  0.00    +0.000 C 
ATOM     16  C   UNL     1     113.226 127.259 140.744  0.00  0.00    +0.000 C 
ATOM     17  C   UNL     1     112.498 126.889 140.625  0.00  0.00    +0.000 C 
ATOM     18  C   UNL     1     111.970 127.188 140.067  0.00  0.00    +0.000 C 
ATOM     19  C   UNL     1     111.241 126.818 139.948  0.00  0.00    +0.000 C 
ENDBRANCH   9  14
ENDBRANCH   4   9
BRANCH   8  20
ATOM     20  O   UNL     1     113.067 128.663 137.670  0.00  0.00    +0.000 OA
BRANCH  20  23
ATOM     21  O   UNL     1     113.782 128.625 135.607  0.00  0.00    +0.000 OA
ATOM     22  O   UNL     1     113.826 130.125 137.575  0.00  0.00    +0.000 OA
ATOM     23  C   UNL     1     113.432 128.894 136.967  0.00  0.00    +0.000 A 
ATOM     24  C   UNL     1     113.417 128.394 136.310  0.00  0.00    +0.000 A 
ATOM     25  C   UNL     1     113.811 129.625 136.919  0.00  0.00    +0.000 A 
ATOM     26  C   UNL     1     114.176 129.856 136.216  0.00  0.00    +0.000 A 
ATOM     27  C   UNL     1     114.161 129.356 135.560  0.00  0.00    +0.000 A 
ATOM     28  C   UNL     1     114.567 130.620 136.179  0.00  0.00    +0.000 A 
ATOM     29  C   UNL     1     114.537 129.586 134.823  0.00  0.00    +0.000 A 
ATOM     30  C   UNL     1     114.949 130.867 135.450  0.00  0.00    +0.000 A 
ATOM     31  C   UNL     1     114.933 130.345 134.766  0.00  0.00    +0.000 A 
BRANCH  24  34
ATOM     32  O   UNL     1     111.112 126.768 135.851  0.00  0.00    +0.000 OA
ATOM     33  O   UNL     1     111.898 125.470 136.500  0.00  0.00    +0.000 OA
ATOM     34  C   UNL     1     113.038 127.663 136.358  0.00  0.00    +0.000 A 
ATOM     35  C   UNL     1     112.265 127.581 136.081  0.00  0.00    +0.000 A 
ATOM     36  C   UNL     1     113.431 127.014 136.682  0.00  0.00    +0.000 A 
ATOM     37  C   UNL     1     111.885 126.850 136.128  0.00  0.00    +0.000 A 
ATOM     38  C   UNL     1     113.051 126.283 136.729  0.00  0.00    +0.000 A 
ATOM     39  C   UNL     1     112.278 126.201 136.452  0.00  0.00    +0.000 A 
ENDBRANCH  24  34
ENDBRANCH  20  23
ENDBRANCH   8  20
BRANCH   7  40
ATOM     40  C   UNL     1     110.810 130.403 137.464  0.00  0.00    +0.000 C 
BRANCH  40  41
ATOM     41  O   UNL     1     110.294 129.959 136.999  0.00  0.00    +0.000 OA
BRANCH  41  46
ATOM     42  O   UNL     1     109.811 131.106 136.296  0.00  0.00    +0.000 OA
ATOM     43  O   UNL     1     108.885 129.165 136.671  0.00  0.00    +0.000 OA
ATOM     44  O   UNL     1     107.698 129.915 135.805  0.00  0.00    +0.000 OA
ATOM     45  O   UNL     1     107.920 131.458 135.266  0.00  0.00    +0.000 OA
ATOM     46  C   UNL     1     109.701 130.334 136.565  0.00  0.00    +0.000 C 
ATOM     47  C   UNL     1     108.997 129.937 136.402  0.00  0.00    +0.000 C 
ATOM     48  C   UNL     1     108.403 130.312 135.968  0.00  0.00    +0.000 C 
ATOM     49  C   UNL     1     108.514 131.083 135.699  0.00  0.00    +0.000 C 
ATOM     50  C   UNL     1     109.218 131.480 135.863  0.00  0.00    +0.000 C 
ATOM     51  C   UNL     1     109.329 132.252 135.593  0.00  0.00    +0.000 C 
ENDBRANCH  41  46
ENDBRANCH  40  41
ENDBRANCH   7  40
TORSDOF 8
ENDMDL
MODEL 3
REMARK VINA RESULT:     -11.0      1.938      4.675
REMARK  Name = 131752789
REMARK  8 active torsions:
REMARK  status: ('A' for Active; 'I' for Inactive)
REMARK    1  A    between atoms: O_1  and  C_19
REMARK    2  A    between atoms: O_1  and  C_24
REMARK    3  A    between atoms: O_4  and  C_27
REMARK    4  A    between atoms: O_4  and  C_30
REMARK    5  A    between atoms: O_6  and  C_23
REMARK    6  A    between atoms: O_6  and  C_37
REMARK    7  A    between atoms: C_22  and  C_27
REMARK    8  A    between atoms: C_38  and  C_41
REMARK                            x       y       z     vdW  Elec       q    Type
REMARK                         _______ _______ _______ _____ _____    ______ ____
ROOT
ATOM      1  O   UNL     1     111.609 127.550 138.036  0.00  0.00    +0.000 OA
ATOM      2  O   UNL     1     109.153 127.261 138.134  0.00  0.00    +0.000 OA
ATOM      3  O   UNL     1     109.812 128.384 137.120  0.00  0.00    +0.000 OA
ATOM      4  C   UNL     1     110.462 126.892 138.576  0.00  0.00    +0.000 C 
ATOM      5  C   UNL     1     109.972 127.357 138.101  0.00  0.00    +0.000 C 
ATOM      6  C   UNL     1     110.302 127.919 137.595  0.00  0.00    +0.000 C 
ATOM      7  C   UNL     1     111.120 128.015 137.562  0.00  0.00    +0.000 C 
ATOM      8  C   UNL     1     111.280 126.988 138.543  0.00  0.00    +0.000 C 
ENDROOT
BRANCH   4   9
ATOM      9  O   UNL     1     110.132 126.331 139.082  0.00  0.00    +0.000 OA
BRANCH   9  14
ATOM     10  O   UNL     1     109.826 127.359 140.025  0.00  0.00    +0.000 OA
ATOM     11  O   UNL     1     109.495 125.203 140.106  0.00  0.00    +0.000 OA
ATOM     12  O   UNL     1     108.871 125.669 141.560  0.00  0.00    +0.000 OA
ATOM     13  O   UNL     1     108.884 127.261 141.992  0.00  0.00    +0.000 OA
ATOM     14  C   UNL     1     109.820 126.563 139.810  0.00  0.00    +0.000 C 
ATOM     15  C   UNL     1     109.502 125.999 140.321  0.00  0.00    +0.000 C 
ATOM     16  C   UNL     1     109.190 126.232 141.048  0.00  0.00    +0.000 C 
ATOM     17  C   UNL     1     109.196 127.029 141.264  0.00  0.00    +0.000 C 
ATOM     18  C   UNL     1     109.514 127.592 140.752  0.00  0.00    +0.000 C 
ATOM     19  C   UNL     1     109.520 128.389 140.968  0.00  0.00    +0.000 C 
ENDBRANCH   9  14
ENDBRANCH   4   9
BRANCH   8  20
ATOM     20  O   UNL     1     111.769 126.523 139.017  0.00  0.00    +0.000 OA
BRANCH  20  23
ATOM     21  O   UNL     1     113.904 126.124 138.794  0.00  0.00    +0.000 OA
ATOM     22  O   UNL     1     111.771 125.586 137.658  0.00  0.00    +0.000 OA
ATOM     23  C   UNL     1     112.481 126.234 138.716  0.00  0.00    +0.000 A 
ATOM     24  C   UNL     1     113.193 126.414 139.094  0.00  0.00    +0.000 A 
ATOM     25  C   UNL     1     112.483 125.765 138.037  0.00  0.00    +0.000 A 
ATOM     26  C   UNL     1     113.194 125.476 137.736  0.00  0.00    +0.000 A 
ATOM     27  C   UNL     1     113.904 125.656 138.114  0.00  0.00    +0.000 A 
ATOM     28  C   UNL     1     113.182 124.989 137.028  0.00  0.00    +0.000 A 
ATOM     29  C   UNL     1     114.652 125.361 137.811  0.00  0.00    +0.000 A 
ATOM     30  C   UNL     1     113.919 124.685 136.710  0.00  0.00    +0.000 A 
ATOM     31  C   UNL     1     114.660 124.872 137.104  0.00  0.00    +0.000 A 
BRANCH  24  34
ATOM     32  O   UNL     1     113.559 128.957 140.346  0.00  0.00    +0.000 OA
ATOM     33  O   UNL     1     113.187 128.290 141.809  0.00  0.00    +0.000 OA
ATOM     34  C   UNL     1     113.191 126.882 139.773  0.00  0.00    +0.000 A 
ATOM     35  C   UNL     1     113.376 127.685 139.720  0.00  0.00    +0.000 A 
ATOM     36  C   UNL     1     113.005 126.549 140.505  0.00  0.00    +0.000 A 
ATOM     37  C   UNL     1     113.374 128.154 140.399  0.00  0.00    +0.000 A 
ATOM     38  C   UNL     1     113.004 127.019 141.183  0.00  0.00    +0.000 A 
ATOM     39  C   UNL     1     113.188 127.820 141.130  0.00  0.00    +0.000 A 
ENDBRANCH  24  34
ENDBRANCH  20  23
ENDBRANCH   8  20
BRANCH   7  40
ATOM     40  C   UNL     1     111.449 128.577 137.055  0.00  0.00    +0.000 C 
BRANCH  40  41
ATOM     41  O   UNL     1     111.916 129.184 137.359  0.00  0.00    +0.000 OA
BRANCH  41  46
ATOM     42  O   UNL     1     112.951 129.015 136.388  0.00  0.00    +0.000 OA
ATOM     43  O   UNL     1     112.304 130.782 137.493  0.00  0.00    +0.000 OA
ATOM     44  O   UNL     1     113.533 131.412 136.590  0.00  0.00    +0.000 OA
ATOM     45  O   UNL     1     114.374 130.443 135.552  0.00  0.00    +0.000 OA
ATOM     46  C   UNL     1     112.531 129.498 136.907  0.00  0.00    +0.000 C 
ATOM     47  C   UNL     1     112.725 130.297 136.974  0.00  0.00    +0.000 C 
ATOM     48  C   UNL     1     113.339 130.613 136.522  0.00  0.00    +0.000 C 
ATOM     49  C   UNL     1     113.759 130.128 136.004  0.00  0.00    +0.000 C 
ATOM     50  C   UNL     1     113.565 129.329 135.937  0.00  0.00    +0.000 C 
ATOM     51  C   UNL     1     113.987 128.845 135.418  0.00  0.00    +0.000 C 
ENDBRANCH  41  46
ENDBRANCH  40  41
ENDBRANCH   7  40
TORSDOF 8
ENDMDL
MODEL 4
REMARK VINA RESULT:     -10.9      1.661      5.392
REMARK  Name = 131752789
REMARK  8 active torsions:
REMARK  status: ('A' for Active; 'I' for Inactive)
REMARK    1  A    between atoms: O_1  and  C_19
REMARK    2  A    between atoms: O_1  and  C_24
REMARK    3  A    between atoms: O_4  and  C_27
REMARK    4  A    between atoms: O_4  and  C_30
REMARK    5  A    between atoms: O_6  and  C_23
REMARK    6  A    between atoms: O_6  and  C_37
REMARK    7  A    between atoms: C_22  and  C_27
REMARK    8  A    between atoms: C_38  and  C_41
REMARK                            x       y       z     vdW  Elec       q    Type
REMARK                         _______ _______ _______ _____ _____    ______ ____
ROOT
ATOM      1  O   UNL     1     111.436 128.505 136.156  0.00  0.00    +0.000 OA
ATOM      2  O   UNL     1     110.895 126.345 135.075  0.00  0.00    +0.000 OA
ATOM      3  O   UNL     1     109.917 127.654 134.839  0.00  0.00    +0.000 OA
ATOM      4  C   UNL     1     111.745 127.131 135.914  0.00  0.00    +0.000 C 
ATOM      5  C   UNL     1     111.075 127.065 135.435  0.00  0.00    +0.000 C 
ATOM      6  C   UNL     1     110.587 127.720 135.317  0.00  0.00    +0.000 C 
ATOM      7  C   UNL     1     110.767 128.440 135.678  0.00  0.00    +0.000 C 
ATOM      8  C   UNL     1     111.925 127.851 136.274  0.00  0.00    +0.000 C 
ENDROOT
BRANCH   4   9
ATOM      9  O   UNL     1     112.233 126.477 136.031  0.00  0.00    +0.000 OA
BRANCH   9  14
ATOM     10  O   UNL     1     111.368 126.002 137.064  0.00  0.00    +0.000 OA
ATOM     11  O   UNL     1     113.067 125.054 136.076  0.00  0.00    +0.000 OA
ATOM     12  O   UNL     1     112.618 123.867 137.130  0.00  0.00    +0.000 OA
ATOM     13  O   UNL     1     111.336 124.104 138.141  0.00  0.00    +0.000 OA
ATOM     14  C   UNL     1     112.009 125.884 136.559  0.00  0.00    +0.000 C 
ATOM     15  C   UNL     1     112.426 125.172 136.580  0.00  0.00    +0.000 C 
ATOM     16  C   UNL     1     112.202 124.579 137.108  0.00  0.00    +0.000 C 
ATOM     17  C   UNL     1     111.560 124.697 137.614  0.00  0.00    +0.000 C 
ATOM     18  C   UNL     1     111.143 125.409 137.591  0.00  0.00    +0.000 C 
ATOM     19  C   UNL     1     110.501 125.527 138.097  0.00  0.00    +0.000 C 
ENDBRANCH   9  14
ENDBRANCH   4   9
BRANCH   8  20
ATOM     20  O   UNL     1     112.593 127.917 136.752  0.00  0.00    +0.000 OA
BRANCH  20  23
ATOM     21  O   UNL     1     113.729 129.696 137.312  0.00  0.00    +0.000 OA
ATOM     22  O   UNL     1     113.225 128.355 135.292  0.00  0.00    +0.000 OA
ATOM     23  C   UNL     1     113.077 128.583 136.695  0.00  0.00    +0.000 A 
ATOM     24  C   UNL     1     113.245 129.030 137.369  0.00  0.00    +0.000 A 
ATOM     25  C   UNL     1     113.393 128.802 135.966  0.00  0.00    +0.000 A 
ATOM     26  C   UNL     1     113.877 129.468 135.909  0.00  0.00    +0.000 A 
ATOM     27  C   UNL     1     114.045 129.914 136.581  0.00  0.00    +0.000 A 
ATOM     28  C   UNL     1     114.200 129.686 135.142  0.00  0.00    +0.000 A 
ATOM     29  C   UNL     1     114.547 130.609 136.535  0.00  0.00    +0.000 A 
ATOM     30  C   UNL     1     114.705 130.378 135.076  0.00  0.00    +0.000 A 
ATOM     31  C   UNL     1     114.880 130.844 135.778  0.00  0.00    +0.000 A 
BRANCH  24  34
ATOM     32  O   UNL     1     111.257 129.340 139.397  0.00  0.00    +0.000 OA
ATOM     33  O   UNL     1     111.979 128.153 140.287  0.00  0.00    +0.000 OA
ATOM     34  C   UNL     1     112.929 128.810 138.098  0.00  0.00    +0.000 A 
ATOM     35  C   UNL     1     112.251 129.185 138.383  0.00  0.00    +0.000 A 
ATOM     36  C   UNL     1     113.290 128.216 138.543  0.00  0.00    +0.000 A 
ATOM     37  C   UNL     1     111.935 128.965 139.112  0.00  0.00    +0.000 A 
ATOM     38  C   UNL     1     112.973 127.998 139.272  0.00  0.00    +0.000 A 
ATOM     39  C   UNL     1     112.296 128.372 139.557  0.00  0.00    +0.000 A 
ENDBRANCH  24  34
ENDBRANCH  20  23
ENDBRANCH   8  20
BRANCH   7  40
ATOM     40  C   UNL     1     110.278 129.093 135.559  0.00  0.00    +0.000 C 
BRANCH  40  41
ATOM     41  O   UNL     1     109.894 129.443 136.200  0.00  0.00    +0.000 OA
BRANCH  41  46
ATOM     42  O   UNL     1     109.525 130.573 135.406  0.00  0.00    +0.000 OA
ATOM     43  O   UNL     1     108.780 129.878 137.336  0.00  0.00    +0.000 OA
ATOM     44  O   UNL     1     107.854 131.226 137.111  0.00  0.00    +0.000 OA
ATOM     45  O   UNL     1     108.042 132.138 135.749  0.00  0.00    +0.000 OA
ATOM     46  C   UNL     1     109.431 130.117 136.086  0.00  0.00    +0.000 C 
ATOM     47  C   UNL     1     108.874 130.335 136.655  0.00  0.00    +0.000 C 
ATOM     48  C   UNL     1     108.411 131.008 136.543  0.00  0.00    +0.000 C 
ATOM     49  C   UNL     1     108.506 131.464 135.861  0.00  0.00    +0.000 C 
ATOM     50  C   UNL     1     109.063 131.246 135.293  0.00  0.00    +0.000 C 
ATOM     51  C   UNL     1     109.157 131.703 134.612  0.00  0.00    +0.000 C 
ENDBRANCH  41  46
ENDBRANCH  40  41
ENDBRANCH   7  40
TORSDOF 8
ENDMDL
MODEL 5
REMARK VINA RESULT:     -10.9      1.990      3.880
REMARK  Name = 131752789
REMARK  8 active torsions:
REMARK  status: ('A' for Active; 'I' for Inactive)
REMARK    1  A    between atoms: O_1  and  C_19
REMARK    2  A    between atoms: O_1  and  C_24
REMARK    3  A    between atoms: O_4  and  C_27
REMARK    4  A    between atoms: O_4  and  C_30
REMARK    5  A    between atoms: O_6  and  C_23
REMARK    6  A    between atoms: O_6  and  C_37
REMARK    7  A    between atoms: C_22  and  C_27
REMARK    8  A    between atoms: C_38  and  C_41
REMARK                            x       y       z     vdW  Elec       q    Type
REMARK                         _______ _______ _______ _____ _____    ______ ____
ROOT
ATOM      1  O   UNL     1     112.051 128.188 137.731  0.00  0.00    +0.000 OA
ATOM      2  O   UNL     1     112.667 130.581 137.876  0.00  0.00    +0.000 OA
ATOM      3  O   UNL     1     111.483 130.095 136.835  0.00  0.00    +0.000 OA
ATOM      4  C   UNL     1     112.849 129.228 138.300  0.00  0.00    +0.000 C 
ATOM      5  C   UNL     1     112.462 129.783 137.828  0.00  0.00    +0.000 C 
ATOM      6  C   UNL     1     111.870 129.540 137.307  0.00  0.00    +0.000 C 
ATOM      7  C   UNL     1     111.665 128.742 137.259  0.00  0.00    +0.000 C 
ATOM      8  C   UNL     1     112.644 128.430 138.252  0.00  0.00    +0.000 C 
ENDROOT
BRANCH   4   9
ATOM      9  O   UNL     1     113.441 129.471 138.821  0.00  0.00    +0.000 OA
BRANCH   9  14
ATOM     10  O   UNL     1     112.449 129.885 139.762  0.00  0.00    +0.000 OA
ATOM     11  O   UNL     1     114.621 130.095 139.790  0.00  0.00    +0.000 OA
ATOM     12  O   UNL     1     114.219 130.821 141.216  0.00  0.00    +0.000 OA
ATOM     13  O   UNL     1     112.637 130.923 141.673  0.00  0.00    +0.000 OA
ATOM     14  C   UNL     1     113.240 129.834 139.534  0.00  0.00    +0.000 C 
ATOM     15  C   UNL     1     113.831 130.146 140.018  0.00  0.00    +0.000 C 
ATOM     16  C   UNL     1     113.630 130.509 140.731  0.00  0.00    +0.000 C 
ATOM     17  C   UNL     1     112.838 130.560 140.960  0.00  0.00    +0.000 C 
ATOM     18  C   UNL     1     112.248 130.248 140.475  0.00  0.00    +0.000 C 
ATOM     19  C   UNL     1     111.457 130.299 140.704  0.00  0.00    +0.000 C 
ENDBRANCH   9  14
ENDBRANCH   4   9
BRANCH   8  20
ATOM     20  O   UNL     1     113.030 127.876 138.724  0.00  0.00    +0.000 OA
BRANCH  20  23
ATOM     21  O   UNL     1     113.122 125.702 138.538  0.00  0.00    +0.000 OA
ATOM     22  O   UNL     1     113.854 127.719 137.303  0.00  0.00    +0.000 OA
ATOM     23  C   UNL     1     113.198 127.125 138.425  0.00  0.00    +0.000 A 
ATOM     24  C   UNL     1     112.954 126.452 138.837  0.00  0.00    +0.000 A 
ATOM     25  C   UNL     1     113.610 127.046 137.715  0.00  0.00    +0.000 A 
ATOM     26  C   UNL     1     113.778 126.296 137.416  0.00  0.00    +0.000 A 
ATOM     27  C   UNL     1     113.534 125.624 137.827  0.00  0.00    +0.000 A 
ATOM     28  C   UNL     1     114.208 126.228 136.675  0.00  0.00    +0.000 A 
ATOM     29  C   UNL     1     113.703 124.838 137.527  0.00  0.00    +0.000 A 
ATOM     30  C   UNL     1     114.386 125.449 136.358  0.00  0.00    +0.000 A 
ATOM     31  C   UNL     1     114.132 124.749 136.787  0.00  0.00    +0.000 A 
BRANCH  24  34
ATOM     32  O   UNL     1     110.481 126.524 140.268  0.00  0.00    +0.000 OA
ATOM     33  O   UNL     1     111.304 126.768 141.678  0.00  0.00    +0.000 OA
ATOM     34  C   UNL     1     112.542 126.531 139.547  0.00  0.00    +0.000 A 
ATOM     35  C   UNL     1     111.718 126.488 139.553  0.00  0.00    +0.000 A 
ATOM     36  C   UNL     1     112.954 126.653 140.252  0.00  0.00    +0.000 A 
ATOM     37  C   UNL     1     111.306 126.567 140.263  0.00  0.00    +0.000 A 
ATOM     38  C   UNL     1     112.540 126.732 140.962  0.00  0.00    +0.000 A 
ATOM     39  C   UNL     1     111.717 126.689 140.968  0.00  0.00    +0.000 A 
ENDBRANCH  24  34
ENDBRANCH  20  23
ENDBRANCH   8  20
BRANCH   7  40
ATOM     40  C   UNL     1     111.073 128.500 136.737  0.00  0.00    +0.000 C 
BRANCH  40  41
ATOM     41  O   UNL     1     110.473 127.998 136.998  0.00  0.00    +0.000 OA
BRANCH  41  46
ATOM     42  O   UNL     1     110.550 126.994 135.984  0.00  0.00    +0.000 OA
ATOM     43  O   UNL     1     108.826 127.970 136.901  0.00  0.00    +0.000 OA
ATOM     44  O   UNL     1     108.080 126.953 135.838  0.00  0.00    +0.000 OA
ATOM     45  O   UNL     1     108.980 125.962 134.873  0.00  0.00    +0.000 OA
ATOM     46  C   UNL     1     110.100 127.489 136.466  0.00  0.00    +0.000 C 
ATOM     47  C   UNL     1     109.277 127.475 136.418  0.00  0.00    +0.000 C 
ATOM     48  C   UNL     1     108.903 126.966 135.887  0.00  0.00    +0.000 C 
ATOM     49  C   UNL     1     109.354 126.472 135.404  0.00  0.00    +0.000 C 
ATOM     50  C   UNL     1     110.177 126.486 135.453  0.00  0.00    +0.000 C 
ATOM     51  C   UNL     1     110.627 125.990 134.970  0.00  0.00    +0.000 C 
ENDBRANCH  41  46
ENDBRANCH  40  41
ENDBRANCH   7  40
TORSDOF 8
ENDMDL
MODEL 6
REMARK VINA RESULT:     -10.8      1.537      3.390
REMARK  Name = 131752789
REMARK  8 active torsions:
REMARK  status: ('A' for Active; 'I' for Inactive)
REMARK    1  A    between atoms: O_1  and  C_19
REMARK    2  A    between atoms: O_1  and  C_24
REMARK    3  A    between atoms: O_4  and  C_27
REMARK    4  A    between atoms: O_4  and  C_30
REMARK    5  A    between atoms: O_6  and  C_23
REMARK    6  A    between atoms: O_6  and  C_37
REMARK    7  A    between atoms: C_22  and  C_27
REMARK    8  A    between atoms: C_38  and  C_41
REMARK                            x       y       z     vdW  Elec       q    Type
REMARK                         _______ _______ _______ _____ _____    ______ ____
ROOT
ATOM      1  O   UNL     1     111.963 128.193 137.998  0.00  0.00    +0.000 OA
ATOM      2  O   UNL     1     111.899 129.126 140.290  0.00  0.00    +0.000 OA
ATOM      3  O   UNL     1     112.349 127.557 140.050  0.00  0.00    +0.000 OA
ATOM      4  C   UNL     1     111.717 129.289 138.881  0.00  0.00    +0.000 C 
ATOM      5  C   UNL     1     111.921 128.815 139.526  0.00  0.00    +0.000 C 
ATOM      6  C   UNL     1     112.145 128.031 139.406  0.00  0.00    +0.000 C 
ATOM      7  C   UNL     1     112.167 127.720 138.642  0.00  0.00    +0.000 C 
ATOM      8  C   UNL     1     111.738 128.978 138.117  0.00  0.00    +0.000 C 
ENDROOT
BRANCH   4   9
ATOM      9  O   UNL     1     111.492 130.073 139.001  0.00  0.00    +0.000 OA
BRANCH   9  14
ATOM     10  O   UNL     1     110.191 129.642 139.404  0.00  0.00    +0.000 OA
ATOM     11  O   UNL     1     111.012 131.646 139.134  0.00  0.00    +0.000 OA
ATOM     12  O   UNL     1     109.470 132.002 139.603  0.00  0.00    +0.000 OA
ATOM     13  O   UNL     1     108.409 130.784 139.940  0.00  0.00    +0.000 OA
ATOM     14  C   UNL     1     110.721 130.251 139.236  0.00  0.00    +0.000 C 
ATOM     15  C   UNL     1     110.482 131.038 139.302  0.00  0.00    +0.000 C 
ATOM     16  C   UNL     1     109.711 131.216 139.536  0.00  0.00    +0.000 C 
ATOM     17  C   UNL     1     109.180 130.606 139.705  0.00  0.00    +0.000 C 
ATOM     18  C   UNL     1     109.421 129.820 139.639  0.00  0.00    +0.000 C 
ATOM     19  C   UNL     1     108.889 129.211 139.807  0.00  0.00    +0.000 C 
ENDBRANCH   9  14
ENDBRANCH   4   9
BRANCH   8  20
ATOM     20  O   UNL     1     111.535 129.451 137.474  0.00  0.00    +0.000 OA
BRANCH  20  23
ATOM     21  O   UNL     1     111.986 129.190 135.354  0.00  0.00    +0.000 OA
ATOM     22  O   UNL     1     113.176 129.623 137.481  0.00  0.00    +0.000 OA
ATOM     23  C   UNL     1     111.959 129.393 136.768  0.00  0.00    +0.000 A 
ATOM     24  C   UNL     1     111.562 129.248 136.059  0.00  0.00    +0.000 A 
ATOM     25  C   UNL     1     112.779 129.479 136.771  0.00  0.00    +0.000 A 
ATOM     26  C   UNL     1     113.203 129.420 136.066  0.00  0.00    +0.000 A 
ATOM     27  C   UNL     1     112.807 129.276 135.358  0.00  0.00    +0.000 A 
ATOM     28  C   UNL     1     114.057 129.512 136.083  0.00  0.00    +0.000 A 
ATOM     29  C   UNL     1     113.237 129.213 134.617  0.00  0.00    +0.000 A 
ATOM     30  C   UNL     1     114.505 129.452 135.352  0.00  0.00    +0.000 A 
ATOM     31  C   UNL     1     114.091 129.301 134.613  0.00  0.00    +0.000 A 
BRANCH  24  34
ATOM     32  O   UNL     1     109.250 127.568 136.118  0.00  0.00    +0.000 OA
ATOM     33  O   UNL     1     108.280 128.901 136.047  0.00  0.00    +0.000 OA
ATOM     34  C   UNL     1     110.742 129.162 136.056  0.00  0.00    +0.000 A 
ATOM     35  C   UNL     1     110.406 128.408 136.089  0.00  0.00    +0.000 A 
ATOM     36  C   UNL     1     110.257 129.828 136.020  0.00  0.00    +0.000 A 
ATOM     37  C   UNL     1     109.586 128.322 136.086  0.00  0.00    +0.000 A 
ATOM     38  C   UNL     1     109.436 129.741 136.017  0.00  0.00    +0.000 A 
ATOM     39  C   UNL     1     109.101 128.989 136.050  0.00  0.00    +0.000 A 
ENDBRANCH  24  34
ENDBRANCH  20  23
ENDBRANCH   8  20
BRANCH   7  40
ATOM     40  C   UNL     1     112.392 126.935 138.523  0.00  0.00    +0.000 C 
BRANCH  40  41
ATOM     41  O   UNL     1     111.929 126.439 138.053  0.00  0.00    +0.000 OA
BRANCH  41  46
ATOM     42  O   UNL     1     113.025 125.885 137.323  0.00  0.00    +0.000 OA
ATOM     43  O   UNL     1     111.121 125.006 137.928  0.00  0.00    +0.000 OA
ATOM     44  O   UNL     1     111.813 123.735 137.134  0.00  0.00    +0.000 OA
ATOM     45  O   UNL     1     113.313 123.898 136.467  0.00  0.00    +0.000 OA
ATOM     46  C   UNL     1     112.276 125.804 137.656  0.00  0.00    +0.000 C 
ATOM     47  C   UNL     1     111.872 125.088 137.594  0.00  0.00    +0.000 C 
ATOM     48  C   UNL     1     112.217 124.452 137.197  0.00  0.00    +0.000 C 
ATOM     49  C   UNL     1     112.967 124.534 136.864  0.00  0.00    +0.000 C 
ATOM     50  C   UNL     1     113.371 125.250 136.926  0.00  0.00    +0.000 C 
ATOM     51  C   UNL     1     114.122 125.331 136.592  0.00  0.00    +0.000 C 
ENDBRANCH  41  46
ENDBRANCH  40  41
ENDBRANCH   7  40
TORSDOF 8
ENDMDL
MODEL 7
REMARK VINA RESULT:     -10.8      2.014      4.967
REMARK  Name = 131752789
REMARK  8 active torsions:
REMARK  status: ('A' for Active; 'I' for Inactive)
REMARK    1  A    between atoms: O_1  and  C_19
REMARK    2  A    between atoms: O_1  and  C_24
REMARK    3  A    between atoms: O_4  and  C_27
REMARK    4  A    between atoms: O_4  and  C_30
REMARK    5  A    between atoms: O_6  and  C_23
REMARK    6  A    between atoms: O_6  and  C_37
REMARK    7  A    between atoms: C_22  and  C_27
REMARK    8  A    between atoms: C_38  and  C_41
REMARK                            x       y       z     vdW  Elec       q    Type
REMARK                         _______ _______ _______ _____ _____    ______ ____
ROOT
ATOM      1  O   UNL     1     112.585 127.954 138.750  0.00  0.00    +0.000 OA
ATOM      2  O   UNL     1     112.302 128.274 141.188  0.00  0.00    +0.000 OA
ATOM      3  O   UNL     1     113.138 129.387 140.301  0.00  0.00    +0.000 OA
ATOM      4  C   UNL     1     112.073 127.504 140.005  0.00  0.00    +0.000 C 
ATOM      5  C   UNL     1     112.396 128.168 140.375  0.00  0.00    +0.000 C 
ATOM      6  C   UNL     1     112.814 128.724 139.931  0.00  0.00    +0.000 C 
ATOM      7  C   UNL     1     112.908 128.617 139.119  0.00  0.00    +0.000 C 
ATOM      8  C   UNL     1     112.167 127.398 139.193  0.00  0.00    +0.000 C 
ENDROOT
BRANCH   4   9
ATOM      9  O   UNL     1     111.655 126.948 140.449  0.00  0.00    +0.000 OA
BRANCH   9  14
ATOM     10  O   UNL     1     110.504 127.793 140.427  0.00  0.00    +0.000 OA
ATOM     11  O   UNL     1     110.820 125.834 141.334  0.00  0.00    +0.000 OA
ATOM     12  O   UNL     1     109.250 126.122 141.754  0.00  0.00    +0.000 OA
ATOM     13  O   UNL     1     108.516 127.525 141.289  0.00  0.00    +0.000 OA
ATOM     14  C   UNL     1     110.870 127.092 140.659  0.00  0.00    +0.000 C 
ATOM     15  C   UNL     1     110.453 126.535 141.102  0.00  0.00    +0.000 C 
ATOM     16  C   UNL     1     109.669 126.679 141.312  0.00  0.00    +0.000 C 
ATOM     17  C   UNL     1     109.301 127.380 141.079  0.00  0.00    +0.000 C 
ATOM     18  C   UNL     1     109.719 127.937 140.637  0.00  0.00    +0.000 C 
ATOM     19  C   UNL     1     109.351 128.639 140.404  0.00  0.00    +0.000 C 
ENDBRANCH   9  14
ENDBRANCH   4   9
BRANCH   8  20
ATOM     20  O   UNL     1     111.843 126.735 138.824  0.00  0.00    +0.000 OA
BRANCH  20  23
ATOM     21  O   UNL     1     112.325 125.848 136.888  0.00  0.00    +0.000 OA
ATOM     22  O   UNL     1     113.384 126.211 139.096  0.00  0.00    +0.000 OA
ATOM     23  C   UNL     1     112.261 126.352 138.224  0.00  0.00    +0.000 A 
ATOM     24  C   UNL     1     111.908 126.231 137.488  0.00  0.00    +0.000 A 
ATOM     25  C   UNL     1     113.031 126.090 138.360  0.00  0.00    +0.000 A 
ATOM     26  C   UNL     1     113.449 125.707 137.760  0.00  0.00    +0.000 A 
ATOM     27  C   UNL     1     113.096 125.586 137.025  0.00  0.00    +0.000 A 
ATOM     28  C   UNL     1     114.251 125.439 137.914  0.00  0.00    +0.000 A 
ATOM     29  C   UNL     1     113.520 125.189 136.392  0.00  0.00    +0.000 A 
ATOM     30  C   UNL     1     114.691 125.040 137.294  0.00  0.00    +0.000 A 
ATOM     31  C   UNL     1     114.323 124.914 136.527  0.00  0.00    +0.000 A 
BRANCH  24  34
ATOM     32  O   UNL     1     110.109 128.210 136.480  0.00  0.00    +0.000 OA
ATOM     33  O   UNL     1     108.827 127.281 136.945  0.00  0.00    +0.000 OA
ATOM     34  C   UNL     1     111.137 126.493 137.352  0.00  0.00    +0.000 A 
ATOM     35  C   UNL     1     111.008 127.220 136.984  0.00  0.00    +0.000 A 
ATOM     36  C   UNL     1     110.496 126.029 137.585  0.00  0.00    +0.000 A 
ATOM     37  C   UNL     1     110.238 127.482 136.848  0.00  0.00    +0.000 A 
ATOM     38  C   UNL     1     109.726 126.292 137.449  0.00  0.00    +0.000 A 
ATOM     39  C   UNL     1     109.597 127.018 137.081  0.00  0.00    +0.000 A 
ENDBRANCH  24  34
ENDBRANCH  20  23
ENDBRANCH   8  20
BRANCH   7  40
ATOM     40  C   UNL     1     113.326 129.174 138.676  0.00  0.00    +0.000 C 
BRANCH  40  41
ATOM     41  O   UNL     1     112.936 129.628 138.109  0.00  0.00    +0.000 OA
BRANCH  41  46
ATOM     42  O   UNL     1     113.698 129.359 136.931  0.00  0.00    +0.000 OA
ATOM     43  O   UNL     1     113.038 131.247 137.805  0.00  0.00    +0.000 OA
ATOM     44  O   UNL     1     113.851 131.787 136.475  0.00  0.00    +0.000 OA
ATOM     45  O   UNL     1     114.562 130.708 135.448  0.00  0.00    +0.000 OA
ATOM     46  C   UNL     1     113.342 129.897 137.444  0.00  0.00    +0.000 C 
ATOM     47  C   UNL     1     113.393 130.707 137.292  0.00  0.00    +0.000 C 
ATOM     48  C   UNL     1     113.800 130.977 136.627  0.00  0.00    +0.000 C 
ATOM     49  C   UNL     1     114.155 130.438 136.114  0.00  0.00    +0.000 C 
ATOM     50  C   UNL     1     114.104 129.628 136.266  0.00  0.00    +0.000 C 
ATOM     51  C   UNL     1     114.460 129.090 135.752  0.00  0.00    +0.000 C 
ENDBRANCH  41  46
ENDBRANCH  40  41
ENDBRANCH   7  40
TORSDOF 8
ENDMDL
MODEL 8
REMARK VINA RESULT:     -10.8      1.080      2.736
REMARK  Name = 131752789
REMARK  8 active torsions:
REMARK  status: ('A' for Active; 'I' for Inactive)
REMARK    1  A    between atoms: O_1  and  C_19
REMARK    2  A    between atoms: O_1  and  C_24
REMARK    3  A    between atoms: O_4  and  C_27
REMARK    4  A    between atoms: O_4  and  C_30
REMARK    5  A    between atoms: O_6  and  C_23
REMARK    6  A    between atoms: O_6  and  C_37
REMARK    7  A    between atoms: C_22  and  C_27
REMARK    8  A    between atoms: C_38  and  C_41
REMARK                            x       y       z     vdW  Elec       q    Type
REMARK                         _______ _______ _______ _____ _____    ______ ____
ROOT
ATOM      1  O   UNL     1     111.109 128.436 137.450  0.00  0.00    +0.000 OA
ATOM      2  O   UNL     1     108.949 129.622 137.686  0.00  0.00    +0.000 OA
ATOM      3  O   UNL     1     108.972 128.021 137.287  0.00  0.00    +0.000 OA
ATOM      4  C   UNL     1     110.378 129.632 137.728  0.00  0.00    +0.000 C 
ATOM      5  C   UNL     1     109.669 129.226 137.607  0.00  0.00    +0.000 C 
ATOM      6  C   UNL     1     109.681 128.426 137.408  0.00  0.00    +0.000 C 
ATOM      7  C   UNL     1     110.401 128.031 137.329  0.00  0.00    +0.000 C 
ATOM      8  C   UNL     1     111.098 129.236 137.649  0.00  0.00    +0.000 C 
ENDROOT
BRANCH   4   9
ATOM      9  O   UNL     1     110.366 130.432 137.928  0.00  0.00    +0.000 OA
BRANCH   9  14
ATOM     10  O   UNL     1     110.084 130.092 139.286  0.00  0.00    +0.000 OA
ATOM     11  O   UNL     1     110.439 132.027 138.342  0.00  0.00    +0.000 OA
ATOM     12  O   UNL     1     110.193 132.485 139.908  0.00  0.00    +0.000 OA
ATOM     13  O   UNL     1     109.875 131.347 141.060  0.00  0.00    +0.000 OA
ATOM     14  C   UNL     1     110.243 130.661 138.711  0.00  0.00    +0.000 C 
ATOM     15  C   UNL     1     110.280 131.459 138.917  0.00  0.00    +0.000 C 
ATOM     16  C   UNL     1     110.157 131.687 139.700  0.00  0.00    +0.000 C 
ATOM     17  C   UNL     1     109.998 131.118 140.277  0.00  0.00    +0.000 C 
ATOM     18  C   UNL     1     109.961 130.321 140.069  0.00  0.00    +0.000 C 
ATOM     19  C   UNL     1     109.802 129.751 140.645  0.00  0.00    +0.000 C 
ENDBRANCH   9  14
ENDBRANCH   4   9
BRANCH   8  20
ATOM     20  O   UNL     1     111.806 129.641 137.770  0.00  0.00    +0.000 OA
BRANCH  20  23
ATOM     21  O   UNL     1     113.834 129.144 137.132  0.00  0.00    +0.000 OA
ATOM     22  O   UNL     1     111.647 129.732 136.130  0.00  0.00    +0.000 OA
ATOM     23  C   UNL     1     112.455 129.490 137.284  0.00  0.00    +0.000 A 
ATOM     24  C   UNL     1     113.184 129.294 137.618  0.00  0.00    +0.000 A 
ATOM     25  C   UNL     1     112.377 129.536 136.464  0.00  0.00    +0.000 A 
ATOM     26  C   UNL     1     113.026 129.385 135.978  0.00  0.00    +0.000 A 
ATOM     27  C   UNL     1     113.754 129.189 136.312  0.00  0.00    +0.000 A 
ATOM     28  C   UNL     1     112.931 129.435 135.125  0.00  0.00    +0.000 A 
ATOM     29  C   UNL     1     114.437 129.030 135.816  0.00  0.00    +0.000 A 
ATOM     30  C   UNL     1     113.603 129.280 134.614  0.00  0.00    +0.000 A 
ATOM     31  C   UNL     1     114.362 129.075 134.962  0.00  0.00    +0.000 A 
BRANCH  24  34
ATOM     32  O   UNL     1     113.662 130.568 140.131  0.00  0.00    +0.000 OA
ATOM     33  O   UNL     1     113.499 129.117 140.898  0.00  0.00    +0.000 OA
ATOM     34  C   UNL     1     113.263 129.249 138.438  0.00  0.00    +0.000 A 
ATOM     35  C   UNL     1     113.423 129.931 138.875  0.00  0.00    +0.000 A 
ATOM     36  C   UNL     1     113.182 128.523 138.821  0.00  0.00    +0.000 A 
ATOM     37  C   UNL     1     113.501 129.886 139.695  0.00  0.00    +0.000 A 
ATOM     38  C   UNL     1     113.260 128.479 139.642  0.00  0.00    +0.000 A 
ATOM     39  C   UNL     1     113.420 129.160 140.078  0.00  0.00    +0.000 A 
ENDBRANCH  24  34
ENDBRANCH  20  23
ENDBRANCH   8  20
BRANCH   7  40
ATOM     40  C   UNL     1     110.411 127.230 137.129  0.00  0.00    +0.000 C 
BRANCH  40  41
ATOM     41  O   UNL     1     110.854 126.698 137.578  0.00  0.00    +0.000 OA
BRANCH  41  46
ATOM     42  O   UNL     1     111.001 125.829 136.454  0.00  0.00    +0.000 OA
ATOM     43  O   UNL     1     111.371 125.493 138.579  0.00  0.00    +0.000 OA
ATOM     44  O   UNL     1     111.777 124.020 137.955  0.00  0.00    +0.000 OA
ATOM     45  O   UNL     1     111.665 123.753 136.330  0.00  0.00    +0.000 OA
ATOM     46  C   UNL     1     111.056 125.962 137.265  0.00  0.00    +0.000 C 
ATOM     47  C   UNL     1     111.315 125.359 137.766  0.00  0.00    +0.000 C 
ATOM     48  C   UNL     1     111.518 124.623 137.454  0.00  0.00    +0.000 C 
ATOM     49  C   UNL     1     111.462 124.490 136.642  0.00  0.00    +0.000 C 
ATOM     50  C   UNL     1     111.203 125.093 136.142  0.00  0.00    +0.000 C 
ATOM     51  C   UNL     1     111.148 124.959 135.330  0.00  0.00    +0.000 C 
ENDBRANCH  41  46
ENDBRANCH  40  41
ENDBRANCH   7  40
TORSDOF 8
ENDMDL
MODEL 9
REMARK VINA RESULT:     -10.8      1.741      4.065
REMARK  Name = 131752789
REMARK  8 active torsions:
REMARK  status: ('A' for Active; 'I' for Inactive)
REMARK    1  A    between atoms: O_1  and  C_19
REMARK    2  A    between atoms: O_1  and  C_24
REMARK    3  A    between atoms: O_4  and  C_27
REMARK    4  A    between atoms: O_4  and  C_30
REMARK    5  A    between atoms: O_6  and  C_23
REMARK    6  A    between atoms: O_6  and  C_37
REMARK    7  A    between atoms: C_22  and  C_27
REMARK    8  A    between atoms: C_38  and  C_41
REMARK                            x       y       z     vdW  Elec       q    Type
REMARK                         _______ _______ _______ _____ _____    ______ ____
ROOT
ATOM      1  O   UNL     1     112.896 127.856 138.985  0.00  0.00    +0.000 OA
ATOM      2  O   UNL     1     114.320 128.298 140.960  0.00  0.00    +0.000 OA
ATOM      3  O   UNL     1     114.260 126.783 140.309  0.00  0.00    +0.000 OA
ATOM      4  C   UNL     1     113.400 128.761 139.968  0.00  0.00    +0.000 C 
ATOM      5  C   UNL     1     113.845 128.151 140.302  0.00  0.00    +0.000 C 
ATOM      6  C   UNL     1     113.815 127.394 139.976  0.00  0.00    +0.000 C 
ATOM      7  C   UNL     1     113.340 127.246 139.317  0.00  0.00    +0.000 C 
ATOM      8  C   UNL     1     112.926 128.614 139.310  0.00  0.00    +0.000 C 
ENDROOT
BRANCH   4   9
ATOM      9  O   UNL     1     113.430 129.518 140.295  0.00  0.00    +0.000 OA
BRANCH   9  14
ATOM     10  O   UNL     1     112.525 129.116 141.323  0.00  0.00    +0.000 OA
ATOM     11  O   UNL     1     113.601 130.990 141.020  0.00  0.00    +0.000 OA
ATOM     12  O   UNL     1     112.780 131.324 142.412  0.00  0.00    +0.000 OA
ATOM     13  O   UNL     1     111.789 130.185 143.078  0.00  0.00    +0.000 OA
ATOM     14  C   UNL     1     113.020 129.685 140.990  0.00  0.00    +0.000 C 
ATOM     15  C   UNL     1     113.106 130.421 141.353  0.00  0.00    +0.000 C 
ATOM     16  C   UNL     1     112.695 130.588 142.049  0.00  0.00    +0.000 C 
ATOM     17  C   UNL     1     112.199 130.019 142.382  0.00  0.00    +0.000 C 
ATOM     18  C   UNL     1     112.114 129.283 142.019  0.00  0.00    +0.000 C 
ATOM     19  C   UNL     1     111.618 128.713 142.352  0.00  0.00    +0.000 C 
ENDBRANCH   9  14
ENDBRANCH   4   9
BRANCH   8  20
ATOM     20  O   UNL     1     112.481 129.223 138.977  0.00  0.00    +0.000 OA
BRANCH  20  23
ATOM     21  O   UNL     1     111.572 129.367 136.998  0.00  0.00    +0.000 OA
ATOM     22  O   UNL     1     113.824 129.253 138.019  0.00  0.00    +0.000 OA
ATOM     23  C   UNL     1     112.402 129.276 138.158  0.00  0.00    +0.000 A 
ATOM     24  C   UNL     1     111.651 129.314 137.817  0.00  0.00    +0.000 A 
ATOM     25  C   UNL     1     113.073 129.291 137.678  0.00  0.00    +0.000 A 
ATOM     26  C   UNL     1     112.994 129.344 136.859  0.00  0.00    +0.000 A 
ATOM     27  C   UNL     1     112.244 129.382 136.519  0.00  0.00    +0.000 A 
ATOM     28  C   UNL     1     113.701 129.358 136.371  0.00  0.00    +0.000 A 
ATOM     29  C   UNL     1     112.148 129.437 135.667  0.00  0.00    +0.000 A 
ATOM     30  C   UNL     1     113.625 129.413 135.517  0.00  0.00    +0.000 A 
ATOM     31  C   UNL     1     112.843 129.453 135.162  0.00  0.00    +0.000 A 
BRANCH  24  34
ATOM     32  O   UNL     1     109.494 127.868 139.010  0.00  0.00    +0.000 OA
ATOM     33  O   UNL     1     108.967 129.252 139.736  0.00  0.00    +0.000 OA
ATOM     34  C   UNL     1     110.980 129.300 138.297  0.00  0.00    +0.000 A 
ATOM     35  C   UNL     1     110.572 128.591 138.414  0.00  0.00    +0.000 A 
ATOM     36  C   UNL     1     110.716 129.992 138.660  0.00  0.00    +0.000 A 
ATOM     37  C   UNL     1     109.902 128.576 138.893  0.00  0.00    +0.000 A 
ATOM     38  C   UNL     1     110.045 129.976 139.140  0.00  0.00    +0.000 A 
ATOM     39  C   UNL     1     109.638 129.269 139.256  0.00  0.00    +0.000 A 
ENDBRANCH  24  34
ENDBRANCH  20  23
ENDBRANCH   8  20
BRANCH   7  40
ATOM     40  C   UNL     1     113.311 126.488 138.992  0.00  0.00    +0.000 C 
BRANCH  40  41
ATOM     41  O   UNL     1     112.628 126.230 138.609  0.00  0.00    +0.000 OA
BRANCH  41  46
ATOM     42  O   UNL     1     113.334 125.564 137.560  0.00  0.00    +0.000 OA
ATOM     43  O   UNL     1     111.390 125.148 138.462  0.00  0.00    +0.000 OA
ATOM     44  O   UNL     1     111.478 123.942 137.340  0.00  0.00    +0.000 OA
ATOM     45  O   UNL     1     112.803 123.817 136.365  0.00  0.00    +0.000 OA
ATOM     46  C   UNL     1     112.672 125.626 138.048  0.00  0.00    +0.000 C 
ATOM     47  C   UNL     1     112.054 125.086 137.974  0.00  0.00    +0.000 C 
ATOM     48  C   UNL     1     112.097 124.482 137.413  0.00  0.00    +0.000 C 
ATOM     49  C   UNL     1     112.759 124.420 136.926  0.00  0.00    +0.000 C 
ATOM     50  C   UNL     1     113.378 124.961 137.000  0.00  0.00    +0.000 C 
ATOM     51  C   UNL     1     114.040 124.898 136.511  0.00  0.00    +0.000 C 
ENDBRANCH  41  46
ENDBRANCH  40  41
ENDBRANCH   7  40
TORSDOF 8
ENDMDL
MODEL 10
REMARK VINA RESULT:     -10.7      1.761      5.498
REMARK  Name = 131752789
REMARK  8 active torsions:
REMARK  status: ('A' for Active; 'I' for Inactive)
REMARK    1  A    between atoms: O_1  and  C_19
REMARK    2  A    between atoms: O_1  and  C_24
REMARK    3  A    between atoms: O_4  and  C_27
REMARK    4  A    between atoms: O_4  and  C_30
REMARK    5  A    between atoms: O_6  and  C_23
REMARK    6  A    between atoms: O_6  and  C_37
REMARK    7  A    between atoms: C_22  and  C_27
REMARK    8  A    between atoms: C_38  and  C_41
REMARK                            x       y       z     vdW  Elec       q    Type
REMARK                         _______ _______ _______ _____ _____    ______ ____
ROOT
ATOM      1  O   UNL     1     112.642 128.146 138.804  0.00  0.00    +0.000 OA
ATOM      2  O   UNL     1     112.488 125.753 139.416  0.00  0.00    +0.000 OA
ATOM      3  O   UNL     1     113.270 126.810 140.412  0.00  0.00    +0.000 OA
ATOM      4  C   UNL     1     112.200 126.820 138.509  0.00  0.00    +0.000 C 
ATOM      5  C   UNL     1     112.540 126.550 139.212  0.00  0.00    +0.000 C 
ATOM      6  C   UNL     1     112.930 127.080 139.710  0.00  0.00    +0.000 C 
ATOM      7  C   UNL     1     112.981 127.877 139.506  0.00  0.00    +0.000 C 
ATOM      8  C   UNL     1     112.251 127.617 138.305  0.00  0.00    +0.000 C 
ENDROOT
BRANCH   4   9
ATOM      9  O   UNL     1     111.810 126.290 138.011  0.00  0.00    +0.000 OA
BRANCH   9  14
ATOM     10  O   UNL     1     113.054 125.885 137.438  0.00  0.00    +0.000 OA
ATOM     11  O   UNL     1     111.054 125.028 137.264  0.00  0.00    +0.000 OA
ATOM     12  O   UNL     1     111.921 123.992 136.317  0.00  0.00    +0.000 OA
ATOM     13  O   UNL     1     113.543 124.218 136.117  0.00  0.00    +0.000 OA
ATOM     14  C   UNL     1     112.243 125.772 137.538  0.00  0.00    +0.000 C 
ATOM     15  C   UNL     1     111.865 125.141 137.164  0.00  0.00    +0.000 C 
ATOM     16  C   UNL     1     112.298 124.623 136.691  0.00  0.00    +0.000 C 
ATOM     17  C   UNL     1     113.110 124.736 136.591  0.00  0.00    +0.000 C 
ATOM     18  C   UNL     1     113.487 125.367 136.964  0.00  0.00    +0.000 C 
ATOM     19  C   UNL     1     114.299 125.480 136.864  0.00  0.00    +0.000 C 
ENDBRANCH   9  14
ENDBRANCH   4   9
BRANCH   8  20
ATOM     20  O   UNL     1     111.912 127.886 137.603  0.00  0.00    +0.000 OA
BRANCH  20  23
ATOM     21  O   UNL     1     111.271 129.907 137.082  0.00  0.00    +0.000 OA
ATOM     22  O   UNL     1     110.612 128.068 138.603  0.00  0.00    +0.000 OA
ATOM     23  C   UNL     1     111.482 128.590 137.596  0.00  0.00    +0.000 A 
ATOM     24  C   UNL     1     111.701 129.203 137.089  0.00  0.00    +0.000 A 
ATOM     25  C   UNL     1     110.832 128.681 138.096  0.00  0.00    +0.000 A 
ATOM     26  C   UNL     1     110.401 129.385 138.089  0.00  0.00    +0.000 A 
ATOM     27  C   UNL     1     110.621 129.997 137.582  0.00  0.00    +0.000 A 
ATOM     28  C   UNL     1     109.726 129.467 138.615  0.00  0.00    +0.000 A 
ATOM     29  C   UNL     1     110.180 130.735 137.566  0.00  0.00    +0.000 A 
ATOM     30  C   UNL     1     109.274 130.197 138.612  0.00  0.00    +0.000 A 
ATOM     31  C   UNL     1     109.502 130.836 138.084  0.00  0.00    +0.000 A 
BRANCH  24  34
ATOM     32  O   UNL     1     114.453 129.696 136.493  0.00  0.00    +0.000 OA
ATOM     33  O   UNL     1     114.303 128.838 135.092  0.00  0.00    +0.000 OA
ATOM     34  C   UNL     1     112.351 129.112 136.589  0.00  0.00    +0.000 A 
ATOM     35  C   UNL     1     113.077 129.449 136.791  0.00  0.00    +0.000 A 
ATOM     36  C   UNL     1     112.276 128.683 135.889  0.00  0.00    +0.000 A 
ATOM     37  C   UNL     1     113.727 129.358 136.292  0.00  0.00    +0.000 A 
ATOM     38  C   UNL     1     112.927 128.592 135.390  0.00  0.00    +0.000 A 
ATOM     39  C   UNL     1     113.652 128.929 135.591  0.00  0.00    +0.000 A 
ENDBRANCH  24  34
ENDBRANCH  20  23
ENDBRANCH   8  20
BRANCH   7  40
ATOM     40  C   UNL     1     113.372 128.406 140.005  0.00  0.00    +0.000 C 
BRANCH  40  41
ATOM     41  O   UNL     1     112.987 129.084 140.271  0.00  0.00    +0.000 OA
BRANCH  41  46
ATOM     42  O   UNL     1     114.205 129.823 140.386  0.00  0.00    +0.000 OA
ATOM     43  O   UNL     1     112.282 130.073 141.388  0.00  0.00    +0.000 OA
ATOM     44  O   UNL     1     113.148 131.305 142.062  0.00  0.00    +0.000 OA
ATOM     45  O   UNL     1     114.718 131.550 141.619  0.00  0.00    +0.000 OA
ATOM     46  C   UNL     1     113.420 129.701 140.608  0.00  0.00    +0.000 C 
ATOM     47  C   UNL     1     113.068 130.195 141.166  0.00  0.00    +0.000 C 
ATOM     48  C   UNL     1     113.500 130.811 141.504  0.00  0.00    +0.000 C 
ATOM     49  C   UNL     1     114.285 130.933 141.281  0.00  0.00    +0.000 C 
ATOM     50  C   UNL     1     114.638 130.438 140.723  0.00  0.00    +0.000 C 
ATOM     51  C   UNL     1     115.423 130.561 140.501  0.00  0.00    +0.000 C 
ENDBRANCH  41  46
ENDBRANCH  40  41
ENDBRANCH   7  40
TORSDOF 8
ENDMDL
