MODEL 1
REMARK VINA RESULT:     -10.1      0.000      0.000
REMARK  Name = 74977725
REMARK  5 active torsions:
REMARK  status: ('A' for Active; 'I' for Inactive)
REMARK    1  A    between atoms: O_2  and  C_17
REMARK    2  A    between atoms: O_2  and  C_19
REMARK    3  A    between atoms: O_11  and  C_33
REMARK    4  A    between atoms: C_16  and  C_18
REMARK    5  A    between atoms: C_26  and  C_28
REMARK                            x       y       z     vdW  Elec       q    Type
REMARK                         _______ _______ _______ _____ _____    ______ ____
ROOT
ATOM      1  O   UNL     1     104.838 124.305 139.389  0.00  0.00    +0.000 OA
ATOM      2  O   UNL     1     105.456 123.471 142.085  0.00  0.00    +0.000 OA
ATOM      3  O   UNL     1     104.435 122.804 141.316  0.00  0.00    +0.000 OA
ATOM      4  C   UNL     1     106.338 125.109 140.838  0.00  0.00    +0.000 A 
ATOM      5  C   UNL     1     105.875 125.012 140.120  0.00  0.00    +0.000 A 
ATOM      6  C   UNL     1     106.198 124.588 141.506  0.00  0.00    +0.000 A 
ATOM      7  C   UNL     1     105.279 124.394 140.081  0.00  0.00    +0.000 A 
ATOM      8  C   UNL     1     105.145 123.893 140.723  0.00  0.00    +0.000 A 
ATOM      9  C   UNL     1     105.598 123.977 141.448  0.00  0.00    +0.000 A 
ATOM     10  C   UNL     1     104.570 123.304 140.673  0.00  0.00    +0.000 A 
ATOM     11  C   UNL     1     104.263 123.716 139.340  0.00  0.00    +0.000 A 
ATOM     12  C   UNL     1     104.129 123.215 139.982  0.00  0.00    +0.000 A 
ENDROOT
BRANCH  11  14
ATOM     13  O   UNL     1     101.763 123.861 137.963  0.00  0.00    +0.000 OA
ATOM     14  C   UNL     1     103.822 123.626 138.648  0.00  0.00    +0.000 A 
ATOM     15  C   UNL     1     103.013 123.788 138.651  0.00  0.00    +0.000 A 
ATOM     16  C   UNL     1     104.190 123.375 137.954  0.00  0.00    +0.000 A 
ATOM     17  C   UNL     1     102.572 123.699 137.960  0.00  0.00    +0.000 A 
ATOM     18  C   UNL     1     103.749 123.286 137.262  0.00  0.00    +0.000 A 
ATOM     19  C   UNL     1     102.940 123.448 137.266  0.00  0.00    +0.000 A 
BRANCH  19  20
ATOM     20  O   UNL     1     102.499 123.359 136.574  0.00  0.00    +0.000 OA
ATOM     21  C   UNL     1     102.847 123.034 135.901  0.00  0.00    +0.000 C 
ENDBRANCH  19  20
ENDBRANCH  11  14
BRANCH   4  22
ATOM     22  O   UNL     1     106.912 125.699 140.884  0.00  0.00    +0.000 OA
BRANCH  22  31
ATOM     23  O   UNL     1     106.093 126.762 141.376  0.00  0.00    +0.000 OA
ATOM     24  O   UNL     1     107.897 127.433 142.932  0.00  0.00    +0.000 OA
ATOM     25  O   UNL     1     106.477 128.271 142.904  0.00  0.00    +0.000 OA
ATOM     26  O   UNL     1     108.115 126.147 141.922  0.00  0.00    +0.000 OA
ATOM     27  C   UNL     1     107.295 127.209 142.413  0.00  0.00    +0.000 C 
ATOM     28  C   UNL     1     106.586 127.628 142.400  0.00  0.00    +0.000 C 
ATOM     29  C   UNL     1     107.405 126.566 141.908  0.00  0.00    +0.000 C 
ATOM     30  C   UNL     1     105.984 127.405 141.881  0.00  0.00    +0.000 C 
ATOM     31  C   UNL     1     106.804 126.342 141.390  0.00  0.00    +0.000 C 
BRANCH  30  34
ATOM     32  O   UNL     1     105.159 128.421 141.309  0.00  0.00    +0.000 OA
ATOM     33  O   UNL     1     104.679 127.646 142.411  0.00  0.00    +0.000 OA
ATOM     34  C   UNL     1     105.274 127.824 141.867  0.00  0.00    +0.000 C 
ENDBRANCH  30  34
ENDBRANCH  22  31
ENDBRANCH   4  22
TORSDOF 5
ENDMDL
MODEL 2
REMARK VINA RESULT:      -9.4      6.571      7.852
REMARK  Name = 74977725
REMARK  5 active torsions:
REMARK  status: ('A' for Active; 'I' for Inactive)
REMARK    1  A    between atoms: O_2  and  C_17
REMARK    2  A    between atoms: O_2  and  C_19
REMARK    3  A    between atoms: O_11  and  C_33
REMARK    4  A    between atoms: C_16  and  C_18
REMARK    5  A    between atoms: C_26  and  C_28
REMARK                            x       y       z     vdW  Elec       q    Type
REMARK                         _______ _______ _______ _____ _____    ______ ____
ROOT
ATOM      1  O   UNL     1     110.518 127.597 136.480  0.00  0.00    +0.000 OA
ATOM      2  O   UNL     1     108.041 128.917 135.794  0.00  0.00    +0.000 OA
ATOM      3  O   UNL     1     108.090 127.491 136.005  0.00  0.00    +0.000 OA
ATOM      4  C   UNL     1     110.095 129.756 136.090  0.00  0.00    +0.000 A 
ATOM      5  C   UNL     1     110.523 129.035 136.278  0.00  0.00    +0.000 A 
ATOM      6  C   UNL     1     109.254 129.720 135.926  0.00  0.00    +0.000 A 
ATOM      7  C   UNL     1     110.102 128.287 136.299  0.00  0.00    +0.000 A 
ATOM      8  C   UNL     1     109.293 128.251 136.141  0.00  0.00    +0.000 A 
ATOM      9  C   UNL     1     108.850 128.962 135.951  0.00  0.00    +0.000 A 
ATOM     10  C   UNL     1     108.899 127.526 136.163  0.00  0.00    +0.000 A 
ATOM     11  C   UNL     1     110.124 126.872 136.502  0.00  0.00    +0.000 A 
ATOM     12  C   UNL     1     109.315 126.837 136.344  0.00  0.00    +0.000 A 
ENDROOT
BRANCH  11  14
ATOM     13  O   UNL     1     111.184 125.058 138.440  0.00  0.00    +0.000 OA
ATOM     14  C   UNL     1     110.539 126.183 136.683  0.00  0.00    +0.000 A 
ATOM     15  C   UNL     1     110.654 125.965 137.471  0.00  0.00    +0.000 A 
ATOM     16  C   UNL     1     110.840 125.711 136.077  0.00  0.00    +0.000 A 
ATOM     17  C   UNL     1     111.069 125.276 137.652  0.00  0.00    +0.000 A 
ATOM     18  C   UNL     1     111.255 125.021 136.258  0.00  0.00    +0.000 A 
ATOM     19  C   UNL     1     111.370 124.804 137.046  0.00  0.00    +0.000 A 
BRANCH  19  20
ATOM     20  O   UNL     1     111.785 124.115 137.227  0.00  0.00    +0.000 OA
ATOM     21  C   UNL     1     112.133 123.671 136.624  0.00  0.00    +0.000 C 
ENDBRANCH  19  20
ENDBRANCH  11  14
BRANCH   4  22
ATOM     22  O   UNL     1     110.492 130.480 136.068  0.00  0.00    +0.000 OA
BRANCH  22  31
ATOM     23  O   UNL     1     110.667 130.696 137.470  0.00  0.00    +0.000 OA
ATOM     24  O   UNL     1     110.006 133.064 137.187  0.00  0.00    +0.000 OA
ATOM     25  O   UNL     1     110.402 132.491 138.682  0.00  0.00    +0.000 OA
ATOM     26  O   UNL     1     110.051 132.059 135.880  0.00  0.00    +0.000 OA
ATOM     27  C   UNL     1     110.227 132.275 137.281  0.00  0.00    +0.000 C 
ATOM     28  C   UNL     1     110.424 131.989 138.029  0.00  0.00    +0.000 C 
ATOM     29  C   UNL     1     110.249 131.772 136.627  0.00  0.00    +0.000 C 
ATOM     30  C   UNL     1     110.645 131.199 138.123  0.00  0.00    +0.000 C 
ATOM     31  C   UNL     1     110.469 130.983 136.721  0.00  0.00    +0.000 C 
BRANCH  30  34
ATOM     32  O   UNL     1     110.255 130.607 139.364  0.00  0.00    +0.000 OA
ATOM     33  O   UNL     1     111.627 130.930 139.125  0.00  0.00    +0.000 OA
ATOM     34  C   UNL     1     110.843 130.912 138.870  0.00  0.00    +0.000 C 
ENDBRANCH  30  34
ENDBRANCH  22  31
ENDBRANCH   4  22
TORSDOF 5
ENDMDL
MODEL 3
REMARK VINA RESULT:      -9.4      7.016      8.182
REMARK  Name = 74977725
REMARK  5 active torsions:
REMARK  status: ('A' for Active; 'I' for Inactive)
REMARK    1  A    between atoms: O_2  and  C_17
REMARK    2  A    between atoms: O_2  and  C_19
REMARK    3  A    between atoms: O_11  and  C_33
REMARK    4  A    between atoms: C_16  and  C_18
REMARK    5  A    between atoms: C_26  and  C_28
REMARK                            x       y       z     vdW  Elec       q    Type
REMARK                         _______ _______ _______ _____ _____    ______ ____
ROOT
ATOM      1  O   UNL     1     110.252 127.431 136.409  0.00  0.00    +0.000 OA
ATOM      2  O   UNL     1     110.786 124.753 135.466  0.00  0.00    +0.000 OA
ATOM      3  O   UNL     1     110.157 125.731 134.612  0.00  0.00    +0.000 OA
ATOM      4  C   UNL     1     111.197 125.697 137.455  0.00  0.00    +0.000 A 
ATOM      5  C   UNL     1     110.887 126.486 137.310  0.00  0.00    +0.000 A 
ATOM      6  C   UNL     1     111.164 125.108 136.832  0.00  0.00    +0.000 A 
ATOM      7  C   UNL     1     110.548 126.673 136.543  0.00  0.00    +0.000 A 
ATOM      8  C   UNL     1     110.516 126.106 135.944  0.00  0.00    +0.000 A 
ATOM      9  C   UNL     1     110.822 125.313 136.071  0.00  0.00    +0.000 A 
ATOM     10  C   UNL     1     110.189 126.298 135.211  0.00  0.00    +0.000 A 
ATOM     11  C   UNL     1     109.924 127.623 135.676  0.00  0.00    +0.000 A 
ATOM     12  C   UNL     1     109.893 127.056 135.078  0.00  0.00    +0.000 A 
ENDROOT
BRANCH  11  14
ATOM     13  O   UNL     1     107.882 129.585 136.059  0.00  0.00    +0.000 OA
ATOM     14  C   UNL     1     109.628 128.381 135.542  0.00  0.00    +0.000 A 
ATOM     15  C   UNL     1     108.903 128.604 135.867  0.00  0.00    +0.000 A 
ATOM     16  C   UNL     1     110.056 128.916 135.083  0.00  0.00    +0.000 A 
ATOM     17  C   UNL     1     108.607 129.362 135.734  0.00  0.00    +0.000 A 
ATOM     18  C   UNL     1     109.760 129.674 134.949  0.00  0.00    +0.000 A 
ATOM     19  C   UNL     1     109.035 129.897 135.275  0.00  0.00    +0.000 A 
BRANCH  19  20
ATOM     20  O   UNL     1     108.739 130.655 135.141  0.00  0.00    +0.000 OA
ATOM     21  C   UNL     1     109.155 131.183 134.662  0.00  0.00    +0.000 C 
ENDBRANCH  19  20
ENDBRANCH  11  14
BRANCH   4  22
ATOM     22  O   UNL     1     111.524 125.509 138.188  0.00  0.00    +0.000 OA
BRANCH  22  31
ATOM     23  O   UNL     1     112.901 125.407 137.822  0.00  0.00    +0.000 OA
ATOM     24  O   UNL     1     113.532 126.700 139.836  0.00  0.00    +0.000 OA
ATOM     25  O   UNL     1     114.699 126.167 138.799  0.00  0.00    +0.000 OA
ATOM     26  O   UNL     1     111.945 126.371 139.531  0.00  0.00    +0.000 OA
ATOM     27  C   UNL     1     113.322 126.269 139.165  0.00  0.00    +0.000 C 
ATOM     28  C   UNL     1     113.905 126.003 138.647  0.00  0.00    +0.000 C 
ATOM     29  C   UNL     1     112.528 126.105 139.013  0.00  0.00    +0.000 C 
ATOM     30  C   UNL     1     113.695 125.571 137.975  0.00  0.00    +0.000 C 
ATOM     31  C   UNL     1     112.317 125.674 138.341  0.00  0.00    +0.000 C 
BRANCH  30  34
ATOM     32  O   UNL     1     114.599 124.550 137.551  0.00  0.00    +0.000 OA
ATOM     33  O   UNL     1     114.540 125.791 136.844  0.00  0.00    +0.000 OA
ATOM     34  C   UNL     1     114.278 125.304 137.456  0.00  0.00    +0.000 C 
ENDBRANCH  30  34
ENDBRANCH  22  31
ENDBRANCH   4  22
TORSDOF 5
ENDMDL
MODEL 4
REMARK VINA RESULT:      -9.4      3.741      7.282
REMARK  Name = 74977725
REMARK  5 active torsions:
REMARK  status: ('A' for Active; 'I' for Inactive)
REMARK    1  A    between atoms: O_2  and  C_17
REMARK    2  A    between atoms: O_2  and  C_19
REMARK    3  A    between atoms: O_11  and  C_33
REMARK    4  A    between atoms: C_16  and  C_18
REMARK    5  A    between atoms: C_26  and  C_28
REMARK                            x       y       z     vdW  Elec       q    Type
REMARK                         _______ _______ _______ _____ _____    ______ ____
ROOT
ATOM      1  O   UNL     1     106.495 125.895 145.854  0.00  0.00    +0.000 OA
ATOM      2  O   UNL     1     105.665 128.479 144.864  0.00  0.00    +0.000 OA
ATOM      3  O   UNL     1     106.180 128.326 146.203  0.00  0.00    +0.000 OA
ATOM      4  C   UNL     1     105.665 126.476 143.863  0.00  0.00    +0.000 A 
ATOM      5  C   UNL     1     105.984 125.994 144.499  0.00  0.00    +0.000 A 
ATOM      6  C   UNL     1     105.555 127.319 143.983  0.00  0.00    +0.000 A 
ATOM      7  C   UNL     1     106.189 126.363 145.247  0.00  0.00    +0.000 A 
ATOM      8  C   UNL     1     106.084 127.173 145.364  0.00  0.00    +0.000 A 
ATOM      9  C   UNL     1     105.766 127.670 144.739  0.00  0.00    +0.000 A 
ATOM     10  C   UNL     1     106.285 127.516 146.087  0.00  0.00    +0.000 A 
ATOM     11  C   UNL     1     106.696 126.238 146.577  0.00  0.00    +0.000 A 
ATOM     12  C   UNL     1     106.591 127.048 146.693  0.00  0.00    +0.000 A 
ENDROOT
BRANCH  11  14
ATOM     13  O   UNL     1     108.924 124.972 147.843  0.00  0.00    +0.000 OA
ATOM     14  C   UNL     1     107.002 125.771 147.184  0.00  0.00    +0.000 A 
ATOM     15  C   UNL     1     107.810 125.605 147.210  0.00  0.00    +0.000 A 
ATOM     16  C   UNL     1     106.501 125.469 147.766  0.00  0.00    +0.000 A 
ATOM     17  C   UNL     1     108.117 125.138 147.817  0.00  0.00    +0.000 A 
ATOM     18  C   UNL     1     106.807 125.002 148.373  0.00  0.00    +0.000 A 
ATOM     19  C   UNL     1     107.615 124.836 148.398  0.00  0.00    +0.000 A 
BRANCH  19  20
ATOM     20  O   UNL     1     107.921 124.369 149.005  0.00  0.00    +0.000 OA
ATOM     21  C   UNL     1     107.428 124.104 149.612  0.00  0.00    +0.000 C 
ENDBRANCH  19  20
ENDBRANCH  11  14
BRANCH   4  22
ATOM     22  O   UNL     1     105.465 126.131 143.141  0.00  0.00    +0.000 OA
BRANCH  22  31
ATOM     23  O   UNL     1     106.670 126.469 142.450  0.00  0.00    +0.000 OA
ATOM     24  O   UNL     1     106.600 124.299 141.264  0.00  0.00    +0.000 OA
ATOM     25  O   UNL     1     107.827 125.360 140.970  0.00  0.00    +0.000 OA
ATOM     26  O   UNL     1     105.418 124.684 142.350  0.00  0.00    +0.000 OA
ATOM     27  C   UNL     1     106.623 125.022 141.659  0.00  0.00    +0.000 C 
ATOM     28  C   UNL     1     107.236 125.553 141.512  0.00  0.00    +0.000 C 
ATOM     29  C   UNL     1     106.032 125.214 142.202  0.00  0.00    +0.000 C 
ATOM     30  C   UNL     1     107.260 126.276 141.907  0.00  0.00    +0.000 C 
ATOM     31  C   UNL     1     106.055 125.938 142.598  0.00  0.00    +0.000 C 
BRANCH  30  34
ATOM     32  O   UNL     1     107.789 127.383 141.174  0.00  0.00    +0.000 OA
ATOM     33  O   UNL     1     108.571 126.764 142.199  0.00  0.00    +0.000 OA
ATOM     34  C   UNL     1     107.873 126.808 141.761  0.00  0.00    +0.000 C 
ENDBRANCH  30  34
ENDBRANCH  22  31
ENDBRANCH   4  22
TORSDOF 5
ENDMDL
MODEL 5
REMARK VINA RESULT:      -9.3      3.921      5.463
REMARK  Name = 74977725
REMARK  5 active torsions:
REMARK  status: ('A' for Active; 'I' for Inactive)
REMARK    1  A    between atoms: O_2  and  C_17
REMARK    2  A    between atoms: O_2  and  C_19
REMARK    3  A    between atoms: O_11  and  C_33
REMARK    4  A    between atoms: C_16  and  C_18
REMARK    5  A    between atoms: C_26  and  C_28
REMARK                            x       y       z     vdW  Elec       q    Type
REMARK                         _______ _______ _______ _____ _____    ______ ____
ROOT
ATOM      1  O   UNL     1     104.983 127.658 142.414  0.00  0.00    +0.000 OA
ATOM      2  O   UNL     1     107.855 127.479 142.663  0.00  0.00    +0.000 OA
ATOM      3  O   UNL     1     107.221 128.697 142.223  0.00  0.00    +0.000 OA
ATOM      4  C   UNL     1     106.269 125.949 143.058  0.00  0.00    +0.000 A 
ATOM      5  C   UNL     1     105.569 126.408 142.861  0.00  0.00    +0.000 A 
ATOM      6  C   UNL     1     107.045 126.309 142.992  0.00  0.00    +0.000 A 
ATOM      7  C   UNL     1     105.657 127.222 142.601  0.00  0.00    +0.000 A 
ATOM      8  C   UNL     1     106.403 127.569 142.537  0.00  0.00    +0.000 A 
ATOM      9  C   UNL     1     107.113 127.124 142.730  0.00  0.00    +0.000 A 
ATOM     10  C   UNL     1     106.475 128.351 142.286  0.00  0.00    +0.000 A 
ATOM     11  C   UNL     1     105.054 128.441 142.162  0.00  0.00    +0.000 A 
ATOM     12  C   UNL     1     105.801 128.787 142.099  0.00  0.00    +0.000 A 
ENDROOT
BRANCH  11  14
ATOM     13  O   UNL     1     102.977 129.117 140.319  0.00  0.00    +0.000 OA
ATOM     14  C   UNL     1     104.380 128.878 141.975  0.00  0.00    +0.000 A 
ATOM     15  C   UNL     1     104.016 128.779 141.241  0.00  0.00    +0.000 A 
ATOM     16  C   UNL     1     104.070 129.413 142.521  0.00  0.00    +0.000 A 
ATOM     17  C   UNL     1     103.341 129.215 141.053  0.00  0.00    +0.000 A 
ATOM     18  C   UNL     1     103.395 129.850 142.333  0.00  0.00    +0.000 A 
ATOM     19  C   UNL     1     103.031 129.750 141.599  0.00  0.00    +0.000 A 
BRANCH  19  20
ATOM     20  O   UNL     1     102.357 130.187 141.412  0.00  0.00    +0.000 OA
ATOM     21  C   UNL     1     102.200 130.895 141.805  0.00  0.00    +0.000 C 
ENDBRANCH  19  20
ENDBRANCH  11  14
BRANCH   4  22
ATOM     22  O   UNL     1     106.194 125.166 143.309  0.00  0.00    +0.000 OA
BRANCH  22  31
ATOM     23  O   UNL     1     106.388 125.377 144.709  0.00  0.00    +0.000 OA
ATOM     24  O   UNL     1     104.584 123.756 145.203  0.00  0.00    +0.000 OA
ATOM     25  O   UNL     1     105.379 124.506 146.437  0.00  0.00    +0.000 OA
ATOM     26  O   UNL     1     104.991 124.086 143.638  0.00  0.00    +0.000 OA
ATOM     27  C   UNL     1     105.185 124.296 145.038  0.00  0.00    +0.000 C 
ATOM     28  C   UNL     1     105.583 124.671 145.655  0.00  0.00    +0.000 C 
ATOM     29  C   UNL     1     105.388 124.461 144.255  0.00  0.00    +0.000 C 
ATOM     30  C   UNL     1     106.184 125.211 145.491  0.00  0.00    +0.000 C 
ATOM     31  C   UNL     1     105.990 125.001 144.091  0.00  0.00    +0.000 C 
BRANCH  30  34
ATOM     32  O   UNL     1     106.268 126.273 146.444  0.00  0.00    +0.000 OA
ATOM     33  O   UNL     1     107.293 125.278 146.389  0.00  0.00    +0.000 OA
ATOM     34  C   UNL     1     106.582 125.587 146.108  0.00  0.00    +0.000 C 
ENDBRANCH  30  34
ENDBRANCH  22  31
ENDBRANCH   4  22
TORSDOF 5
ENDMDL
MODEL 6
REMARK VINA RESULT:      -9.3      3.972      6.442
REMARK  Name = 74977725
REMARK  5 active torsions:
REMARK  status: ('A' for Active; 'I' for Inactive)
REMARK    1  A    between atoms: O_2  and  C_17
REMARK    2  A    between atoms: O_2  and  C_19
REMARK    3  A    between atoms: O_11  and  C_33
REMARK    4  A    between atoms: C_16  and  C_18
REMARK    5  A    between atoms: C_26  and  C_28
REMARK                            x       y       z     vdW  Elec       q    Type
REMARK                         _______ _______ _______ _____ _____    ______ ____
ROOT
ATOM      1  O   UNL     1     103.274 130.255 141.977  0.00  0.00    +0.000 OA
ATOM      2  O   UNL     1     103.674 127.977 140.246  0.00  0.00    +0.000 OA
ATOM      3  O   UNL     1     102.828 129.075 139.847  0.00  0.00    +0.000 OA
ATOM      4  C   UNL     1     104.501 128.412 142.281  0.00  0.00    +0.000 A 
ATOM      5  C   UNL     1     104.136 129.177 142.428  0.00  0.00    +0.000 A 
ATOM      6  C   UNL     1     104.346 128.003 141.543  0.00  0.00    +0.000 A 
ATOM      7  C   UNL     1     103.621 129.521 141.832  0.00  0.00    +0.000 A 
ATOM      8  C   UNL     1     103.472 129.128 141.122  0.00  0.00    +0.000 A 
ATOM      9  C   UNL     1     103.829 128.363 140.959  0.00  0.00    +0.000 A 
ATOM     10  C   UNL     1     102.976 129.468 140.557  0.00  0.00    +0.000 A 
ATOM     11  C   UNL     1     102.778 130.596 141.413  0.00  0.00    +0.000 A 
ATOM     12  C   UNL     1     102.629 130.202 140.703  0.00  0.00    +0.000 A 
ENDROOT
BRANCH  11  14
ATOM     13  O   UNL     1     102.807 133.442 141.154  0.00  0.00    +0.000 OA
ATOM     14  C   UNL     1     102.430 131.330 141.558  0.00  0.00    +0.000 A 
ATOM     15  C   UNL     1     102.792 132.019 141.283  0.00  0.00    +0.000 A 
ATOM     16  C   UNL     1     101.721 131.375 141.977  0.00  0.00    +0.000 A 
ATOM     17  C   UNL     1     102.445 132.753 141.428  0.00  0.00    +0.000 A 
ATOM     18  C   UNL     1     101.374 132.109 142.122  0.00  0.00    +0.000 A 
ATOM     19  C   UNL     1     101.736 132.798 141.848  0.00  0.00    +0.000 A 
BRANCH  19  20
ATOM     20  O   UNL     1     101.389 133.532 141.993  0.00  0.00    +0.000 OA
ATOM     21  C   UNL     1     100.713 133.584 142.463  0.00  0.00    +0.000 C 
ENDBRANCH  19  20
ENDBRANCH  11  14
BRANCH   4  22
ATOM     22  O   UNL     1     104.996 128.074 142.848  0.00  0.00    +0.000 OA
BRANCH  22  31
ATOM     23  O   UNL     1     106.213 128.605 142.318  0.00  0.00    +0.000 OA
ATOM     24  O   UNL     1     107.407 126.546 142.996  0.00  0.00    +0.000 OA
ATOM     25  O   UNL     1     108.224 127.763 142.241  0.00  0.00    +0.000 OA
ATOM     26  O   UNL     1     105.792 126.701 143.300  0.00  0.00    +0.000 OA
ATOM     27  C   UNL     1     107.009 127.232 142.770  0.00  0.00    +0.000 C 
ATOM     28  C   UNL     1     107.418 127.840 142.393  0.00  0.00    +0.000 C 
ATOM     29  C   UNL     1     106.201 127.309 142.922  0.00  0.00    +0.000 C 
ATOM     30  C   UNL     1     107.020 128.527 142.167  0.00  0.00    +0.000 C 
ATOM     31  C   UNL     1     105.803 127.996 142.696  0.00  0.00    +0.000 C 
BRANCH  30  34
ATOM     32  O   UNL     1     107.754 129.751 142.233  0.00  0.00    +0.000 OA
ATOM     33  O   UNL     1     107.512 129.130 140.968  0.00  0.00    +0.000 OA
ATOM     34  C   UNL     1     107.428 129.136 141.789  0.00  0.00    +0.000 C 
ENDBRANCH  30  34
ENDBRANCH  22  31
ENDBRANCH   4  22
TORSDOF 5
ENDMDL
MODEL 7
REMARK VINA RESULT:      -9.3      7.496      9.179
REMARK  Name = 74977725
REMARK  5 active torsions:
REMARK  status: ('A' for Active; 'I' for Inactive)
REMARK    1  A    between atoms: O_2  and  C_17
REMARK    2  A    between atoms: O_2  and  C_19
REMARK    3  A    between atoms: O_11  and  C_33
REMARK    4  A    between atoms: C_16  and  C_18
REMARK    5  A    between atoms: C_26  and  C_28
REMARK                            x       y       z     vdW  Elec       q    Type
REMARK                         _______ _______ _______ _____ _____    ______ ____
ROOT
ATOM      1  O   UNL     1     111.177 128.670 136.469  0.00  0.00    +0.000 OA
ATOM      2  O   UNL     1     113.762 128.510 135.190  0.00  0.00    +0.000 OA
ATOM      3  O   UNL     1     112.725 129.365 134.667  0.00  0.00    +0.000 OA
ATOM      4  C   UNL     1     112.980 127.466 137.010  0.00  0.00    +0.000 A 
ATOM      5  C   UNL     1     112.186 127.794 137.038  0.00  0.00    +0.000 A 
ATOM      6  C   UNL     1     113.517 127.706 136.385  0.00  0.00    +0.000 A 
ATOM      7  C   UNL     1     111.940 128.358 136.439  0.00  0.00    +0.000 A 
ATOM      8  C   UNL     1     112.456 128.590 135.837  0.00  0.00    +0.000 A 
ATOM      9  C   UNL     1     113.254 128.272 135.795  0.00  0.00    +0.000 A 
ATOM     10  C   UNL     1     112.209 129.133 135.267  0.00  0.00    +0.000 A 
ATOM     11  C   UNL     1     110.930 129.213 135.900  0.00  0.00    +0.000 A 
ATOM     12  C   UNL     1     111.446 129.445 135.299  0.00  0.00    +0.000 A 
ENDROOT
BRANCH  11  14
ATOM     13  O   UNL     1     108.099 128.845 135.771  0.00  0.00    +0.000 OA
ATOM     14  C   UNL     1     110.167 129.525 135.931  0.00  0.00    +0.000 A 
ATOM     15  C   UNL     1     109.514 129.029 135.835  0.00  0.00    +0.000 A 
ATOM     16  C   UNL     1     110.056 130.333 136.057  0.00  0.00    +0.000 A 
ATOM     17  C   UNL     1     108.751 129.340 135.866  0.00  0.00    +0.000 A 
ATOM     18  C   UNL     1     109.293 130.645 136.088  0.00  0.00    +0.000 A 
ATOM     19  C   UNL     1     108.641 130.148 135.992  0.00  0.00    +0.000 A 
BRANCH  19  20
ATOM     20  O   UNL     1     107.877 130.460 136.023  0.00  0.00    +0.000 OA
ATOM     21  C   UNL     1     107.766 131.277 136.059  0.00  0.00    +0.000 C 
ENDBRANCH  19  20
ENDBRANCH  11  14
BRANCH   4  22
ATOM     22  O   UNL     1     113.224 126.923 137.581  0.00  0.00    +0.000 OA
BRANCH  22  31
ATOM     23  O   UNL     1     112.520 125.762 137.135  0.00  0.00    +0.000 OA
ATOM     24  O   UNL     1     114.556 124.396 137.475  0.00  0.00    +0.000 OA
ATOM     25  O   UNL     1     113.173 123.692 136.916  0.00  0.00    +0.000 OA
ATOM     26  O   UNL     1     114.581 126.012 137.808  0.00  0.00    +0.000 OA
ATOM     27  C   UNL     1     113.877 124.851 137.362  0.00  0.00    +0.000 C 
ATOM     28  C   UNL     1     113.186 124.499 137.082  0.00  0.00    +0.000 C 
ATOM     29  C   UNL     1     113.891 125.660 137.528  0.00  0.00    +0.000 C 
ATOM     30  C   UNL     1     112.508 124.954 136.969  0.00  0.00    +0.000 C 
ATOM     31  C   UNL     1     113.212 126.115 137.415  0.00  0.00    +0.000 C 
BRANCH  30  34
ATOM     32  O   UNL     1     111.257 124.312 137.223  0.00  0.00    +0.000 OA
ATOM     33  O   UNL     1     111.683 124.541 135.877  0.00  0.00    +0.000 OA
ATOM     34  C   UNL     1     111.816 124.602 136.689  0.00  0.00    +0.000 C 
ENDBRANCH  30  34
ENDBRANCH  22  31
ENDBRANCH   4  22
TORSDOF 5
ENDMDL
MODEL 8
REMARK VINA RESULT:      -9.3      4.167      6.352
REMARK  Name = 74977725
REMARK  5 active torsions:
REMARK  status: ('A' for Active; 'I' for Inactive)
REMARK    1  A    between atoms: O_2  and  C_17
REMARK    2  A    between atoms: O_2  and  C_19
REMARK    3  A    between atoms: O_11  and  C_33
REMARK    4  A    between atoms: C_16  and  C_18
REMARK    5  A    between atoms: C_26  and  C_28
REMARK                            x       y       z     vdW  Elec       q    Type
REMARK                         _______ _______ _______ _____ _____    ______ ____
ROOT
ATOM      1  O   UNL     1     105.355 126.539 144.135  0.00  0.00    +0.000 OA
ATOM      2  O   UNL     1     107.275 126.450 146.292  0.00  0.00    +0.000 OA
ATOM      3  O   UNL     1     107.221 127.574 145.389  0.00  0.00    +0.000 OA
ATOM      4  C   UNL     1     105.703 124.973 145.691  0.00  0.00    +0.000 A 
ATOM      5  C   UNL     1     105.366 125.384 145.015  0.00  0.00    +0.000 A 
ATOM      6  C   UNL     1     106.350 125.332 146.126  0.00  0.00    +0.000 A 
ATOM      7  C   UNL     1     105.682 126.149 144.785  0.00  0.00    +0.000 A 
ATOM      8  C   UNL     1     106.304 126.494 145.202  0.00  0.00    +0.000 A 
ATOM      9  C   UNL     1     106.653 126.098 145.880  0.00  0.00    +0.000 A 
ATOM     10  C   UNL     1     106.599 127.229 144.971  0.00  0.00    +0.000 A 
ATOM     11  C   UNL     1     105.650 127.274 143.904  0.00  0.00    +0.000 A 
ATOM     12  C   UNL     1     106.272 127.619 144.322  0.00  0.00    +0.000 A 
ENDROOT
BRANCH  11  14
ATOM     13  O   UNL     1     105.187 127.434 141.089  0.00  0.00    +0.000 OA
ATOM     14  C   UNL     1     105.323 127.664 143.255  0.00  0.00    +0.000 A 
ATOM     15  C   UNL     1     105.418 127.355 142.496  0.00  0.00    +0.000 A 
ATOM     16  C   UNL     1     104.900 128.365 143.365  0.00  0.00    +0.000 A 
ATOM     17  C   UNL     1     105.092 127.744 141.847  0.00  0.00    +0.000 A 
ATOM     18  C   UNL     1     104.573 128.755 142.715  0.00  0.00    +0.000 A 
ATOM     19  C   UNL     1     104.669 128.444 141.957  0.00  0.00    +0.000 A 
BRANCH  19  20
ATOM     20  O   UNL     1     104.342 128.835 141.307  0.00  0.00    +0.000 OA
ATOM     21  C   UNL     1     103.737 129.384 141.417  0.00  0.00    +0.000 C 
ENDBRANCH  19  20
ENDBRANCH  11  14
BRANCH   4  22
ATOM     22  O   UNL     1     105.406 124.238 145.920  0.00  0.00    +0.000 OA
BRANCH  22  31
ATOM     23  O   UNL     1     104.518 124.700 146.939  0.00  0.00    +0.000 OA
ATOM     24  O   UNL     1     102.838 123.024 146.236  0.00  0.00    +0.000 OA
ATOM     25  O   UNL     1     102.511 124.044 147.489  0.00  0.00    +0.000 OA
ATOM     26  O   UNL     1     104.286 123.121 145.451  0.00  0.00    +0.000 OA
ATOM     27  C   UNL     1     103.398 123.583 146.470  0.00  0.00    +0.000 C 
ATOM     28  C   UNL     1     103.234 124.092 147.097  0.00  0.00    +0.000 C 
ATOM     29  C   UNL     1     104.122 123.631 146.077  0.00  0.00    +0.000 C 
ATOM     30  C   UNL     1     103.794 124.651 147.331  0.00  0.00    +0.000 C 
ATOM     31  C   UNL     1     104.682 124.189 146.312  0.00  0.00    +0.000 C 
BRANCH  30  34
ATOM     32  O   UNL     1     103.234 125.873 147.818  0.00  0.00    +0.000 OA
ATOM     33  O   UNL     1     103.862 124.962 148.725  0.00  0.00    +0.000 OA
ATOM     34  C   UNL     1     103.630 125.162 147.958  0.00  0.00    +0.000 C 
ENDBRANCH  30  34
ENDBRANCH  22  31
ENDBRANCH   4  22
TORSDOF 5
ENDMDL
MODEL 9
REMARK VINA RESULT:      -9.3      7.194      8.653
REMARK  Name = 74977725
REMARK  5 active torsions:
REMARK  status: ('A' for Active; 'I' for Inactive)
REMARK    1  A    between atoms: O_2  and  C_17
REMARK    2  A    between atoms: O_2  and  C_19
REMARK    3  A    between atoms: O_11  and  C_33
REMARK    4  A    between atoms: C_16  and  C_18
REMARK    5  A    between atoms: C_26  and  C_28
REMARK                            x       y       z     vdW  Elec       q    Type
REMARK                         _______ _______ _______ _____ _____    ______ ____
ROOT
ATOM      1  O   UNL     1     111.510 127.158 136.172  0.00  0.00    +0.000 OA
ATOM      2  O   UNL     1     113.307 129.361 135.660  0.00  0.00    +0.000 OA
ATOM      3  O   UNL     1     113.795 128.109 136.185  0.00  0.00    +0.000 OA
ATOM      4  C   UNL     1     111.091 129.202 135.373  0.00  0.00    +0.000 A 
ATOM      5  C   UNL     1     110.966 128.396 135.643  0.00  0.00    +0.000 A 
ATOM      6  C   UNL     1     111.884 129.532 135.378  0.00  0.00    +0.000 A 
ATOM      7  C   UNL     1     111.636 127.931 135.914  0.00  0.00    +0.000 A 
ATOM      8  C   UNL     1     112.398 128.248 135.918  0.00  0.00    +0.000 A 
ATOM      9  C   UNL     1     112.541 129.052 135.652  0.00  0.00    +0.000 A 
ATOM     10  C   UNL     1     113.034 127.792 136.181  0.00  0.00    +0.000 A 
ATOM     11  C   UNL     1     112.145 126.702 136.435  0.00  0.00    +0.000 A 
ATOM     12  C   UNL     1     112.907 127.019 136.439  0.00  0.00    +0.000 A 
ENDROOT
BRANCH  11  14
ATOM     13  O   UNL     1     111.211 124.879 138.428  0.00  0.00    +0.000 OA
ATOM     14  C   UNL     1     112.019 125.928 136.693  0.00  0.00    +0.000 A 
ATOM     15  C   UNL     1     111.678 125.790 137.431  0.00  0.00    +0.000 A 
ATOM     16  C   UNL     1     112.235 125.293 136.213  0.00  0.00    +0.000 A 
ATOM     17  C   UNL     1     111.552 125.018 137.690  0.00  0.00    +0.000 A 
ATOM     18  C   UNL     1     112.109 124.519 136.471  0.00  0.00    +0.000 A 
ATOM     19  C   UNL     1     111.767 124.382 137.210  0.00  0.00    +0.000 A 
BRANCH  19  20
ATOM     20  O   UNL     1     111.642 123.609 137.468  0.00  0.00    +0.000 OA
ATOM     21  C   UNL     1     112.025 122.981 137.095  0.00  0.00    +0.000 C 
ENDBRANCH  19  20
ENDBRANCH  11  14
BRANCH   4  22
ATOM     22  O   UNL     1     110.454 129.656 135.112  0.00  0.00    +0.000 OA
BRANCH  22  31
ATOM     23  O   UNL     1     110.207 130.372 136.323  0.00  0.00    +0.000 OA
ATOM     24  O   UNL     1     107.770 130.147 135.960  0.00  0.00    +0.000 OA
ATOM     25  O   UNL     1     108.336 130.938 137.292  0.00  0.00    +0.000 OA
ATOM     26  O   UNL     1     108.829 129.506 134.869  0.00  0.00    +0.000 OA
ATOM     27  C   UNL     1     108.582 130.222 136.081  0.00  0.00    +0.000 C 
ATOM     28  C   UNL     1     108.865 130.618 136.747  0.00  0.00    +0.000 C 
ATOM     29  C   UNL     1     109.111 129.901 135.535  0.00  0.00    +0.000 C 
ATOM     30  C   UNL     1     109.677 130.693 136.868  0.00  0.00    +0.000 C 
ATOM     31  C   UNL     1     109.924 129.976 135.656  0.00  0.00    +0.000 C 
BRANCH  30  34
ATOM     32  O   UNL     1     110.140 131.893 137.490  0.00  0.00    +0.000 OA
ATOM     33  O   UNL     1     110.066 130.681 138.243  0.00  0.00    +0.000 OA
ATOM     34  C   UNL     1     109.961 131.089 137.534  0.00  0.00    +0.000 C 
ENDBRANCH  30  34
ENDBRANCH  22  31
ENDBRANCH   4  22
TORSDOF 5
ENDMDL
MODEL 10
REMARK VINA RESULT:      -9.2      4.360      6.167
REMARK  Name = 74977725
REMARK  5 active torsions:
REMARK  status: ('A' for Active; 'I' for Inactive)
REMARK    1  A    between atoms: O_2  and  C_17
REMARK    2  A    between atoms: O_2  and  C_19
REMARK    3  A    between atoms: O_11  and  C_33
REMARK    4  A    between atoms: C_16  and  C_18
REMARK    5  A    between atoms: C_26  and  C_28
REMARK                            x       y       z     vdW  Elec       q    Type
REMARK                         _______ _______ _______ _____ _____    ______ ____
ROOT
ATOM      1  O   UNL     1     104.259 125.169 146.030  0.00  0.00    +0.000 OA
ATOM      2  O   UNL     1     107.025 125.165 146.863  0.00  0.00    +0.000 OA
ATOM      3  O   UNL     1     106.073 124.248 147.441  0.00  0.00    +0.000 OA
ATOM      4  C   UNL     1     105.970 126.435 145.350  0.00  0.00    +0.000 A 
ATOM      5  C   UNL     1     105.176 126.112 145.416  0.00  0.00    +0.000 A 
ATOM      6  C   UNL     1     106.599 126.116 145.840  0.00  0.00    +0.000 A 
ATOM      7  C   UNL     1     105.023 125.475 145.971  0.00  0.00    +0.000 A 
ATOM      8  C   UNL     1     105.627 125.167 146.441  0.00  0.00    +0.000 A 
ATOM      9  C   UNL     1     106.427 125.478 146.389  0.00  0.00    +0.000 A 
ATOM     10  C   UNL     1     105.468 124.555 146.971  0.00  0.00    +0.000 A 
ATOM     11  C   UNL     1     104.100 124.556 146.559  0.00  0.00    +0.000 A 
ATOM     12  C   UNL     1     104.704 124.250 147.029  0.00  0.00    +0.000 A 
ENDROOT
BRANCH  11  14
ATOM     13  O   UNL     1     101.458 124.687 147.643  0.00  0.00    +0.000 OA
ATOM     14  C   UNL     1     103.336 124.250 146.618  0.00  0.00    +0.000 A 
ATOM     15  C   UNL     1     102.779 124.621 147.101  0.00  0.00    +0.000 A 
ATOM     16  C   UNL     1     103.128 123.573 146.195  0.00  0.00    +0.000 A 
ATOM     17  C   UNL     1     102.015 124.316 147.160  0.00  0.00    +0.000 A 
ATOM     18  C   UNL     1     102.364 123.267 146.254  0.00  0.00    +0.000 A 
ATOM     19  C   UNL     1     101.808 123.639 146.737  0.00  0.00    +0.000 A 
BRANCH  19  20
ATOM     20  O   UNL     1     101.044 123.333 146.796  0.00  0.00    +0.000 OA
ATOM     21  C   UNL     1     100.795 122.740 146.279  0.00  0.00    +0.000 C 
ENDBRANCH  19  20
ENDBRANCH  11  14
BRANCH   4  22
ATOM     22  O   UNL     1     106.127 127.047 144.820  0.00  0.00    +0.000 OA
BRANCH  22  31
ATOM     23  O   UNL     1     106.113 126.256 143.630  0.00  0.00    +0.000 OA
ATOM     24  O   UNL     1     107.965 127.613 142.706  0.00  0.00    +0.000 OA
ATOM     25  O   UNL     1     107.335 126.370 141.825  0.00  0.00    +0.000 OA
ATOM     26  O   UNL     1     107.361 127.952 144.204  0.00  0.00    +0.000 OA
ATOM     27  C   UNL     1     107.348 127.161 143.014  0.00  0.00    +0.000 C 
ATOM     28  C   UNL     1     107.033 126.539 142.574  0.00  0.00    +0.000 C 
ATOM     29  C   UNL     1     107.046 127.331 143.763  0.00  0.00    +0.000 C 
ATOM     30  C   UNL     1     106.416 126.087 142.882  0.00  0.00    +0.000 C 
ATOM     31  C   UNL     1     106.429 126.878 144.071  0.00  0.00    +0.000 C 
BRANCH  30  34
ATOM     32  O   UNL     1     106.429 124.709 142.501  0.00  0.00    +0.000 OA
ATOM     33  O   UNL     1     105.457 125.597 141.942  0.00  0.00    +0.000 OA
ATOM     34  C   UNL     1     106.100 125.465 142.441  0.00  0.00    +0.000 C 
ENDBRANCH  30  34
ENDBRANCH  22  31
ENDBRANCH   4  22
TORSDOF 5
ENDMDL
