MODEL 1
REMARK VINA RESULT:      -9.5      0.000      0.000
REMARK  Name = 
REMARK  3 active torsions:
REMARK  status: ('A' for Active; 'I' for Inactive)
REMARK    1  A    between atoms: C_14  and  C_17
REMARK    2  A    between atoms: C_16  and  C_18
REMARK    3  A    between atoms: C_25  and  C_27
REMARK                            x       y       z     vdW  Elec       q    Type
REMARK                         _______ _______ _______ _____ _____    ______ ____
ROOT
ATOM      1  O   UNL     1     104.435 127.473 140.816  0.00  0.00    +0.000 OA
ATOM      2  O   UNL     1     105.847 128.208 143.869  0.00  0.00    +0.000 OA
ATOM      3  O   UNL     1     103.508 130.380 142.504  0.00  0.00    +0.000 OA
ATOM      4  O   UNL     1     103.260 128.529 140.091  0.00  0.00    +0.000 OA
ATOM      5  C   UNL     1     105.141 127.841 142.343  0.00  0.00    +0.000 A 
ATOM      6  C   UNL     1     104.518 128.074 141.604  0.00  0.00    +0.000 A 
ATOM      7  C   UNL     1     105.224 128.441 143.130  0.00  0.00    +0.000 A 
ATOM      8  C   UNL     1     103.979 128.908 141.652  0.00  0.00    +0.000 A 
ATOM      9  C   UNL     1     104.685 129.275 143.179  0.00  0.00    +0.000 A 
ATOM     10  C   UNL     1     104.063 129.508 142.440  0.00  0.00    +0.000 A 
ATOM     11  C   UNL     1     103.336 129.137 140.874  0.00  0.00    +0.000 A 
ATOM     12  C   UNL     1     102.858 130.629 141.738  0.00  0.00    +0.000 A 
ATOM     13  C   UNL     1     102.771 130.004 140.918  0.00  0.00    +0.000 A 
ENDROOT
BRANCH   5  20
ATOM     14  O   UNL     1     105.341 126.171 142.712  0.00  0.00    +0.000 OA
ATOM     15  O   UNL     1     106.897 127.844 141.410  0.00  0.00    +0.000 OA
ATOM     16  O   UNL     1     107.975 126.177 141.313  0.00  0.00    +0.000 OA
ATOM     17  O   UNL     1     107.297 124.505 142.149  0.00  0.00    +0.000 OA
ATOM     18  C   UNL     1     106.558 127.009 141.828  0.00  0.00    +0.000 C 
ATOM     19  C   UNL     1     107.097 126.175 141.779  0.00  0.00    +0.000 C 
ATOM     20  C   UNL     1     105.680 127.007 142.294  0.00  0.00    +0.000 C 
ATOM     21  C   UNL     1     106.758 125.339 142.197  0.00  0.00    +0.000 C 
ATOM     22  C   UNL     1     105.880 125.337 142.664  0.00  0.00    +0.000 C 
BRANCH  22  24
ATOM     23  O   UNL     1     105.011 124.544 143.922  0.00  0.00    +0.000 OA
ATOM     24  C   UNL     1     105.541 124.501 143.082  0.00  0.00    +0.000 C 
ENDBRANCH  22  24
ENDBRANCH   5  20
BRANCH  12  27
ATOM     25  O   UNL     1     102.634 134.053 141.453  0.00  0.00    +0.000 OA
ATOM     26  O   UNL     1     100.710 133.970 141.947  0.00  0.00    +0.000 OA
ATOM     27  C   UNL     1     102.320 131.464 141.790  0.00  0.00    +0.000 A 
ATOM     28  C   UNL     1     102.746 132.342 141.595  0.00  0.00    +0.000 A 
ATOM     29  C   UNL     1     101.358 131.422 142.038  0.00  0.00    +0.000 A 
ATOM     30  C   UNL     1     102.208 133.177 141.648  0.00  0.00    +0.000 A 
ATOM     31  C   UNL     1     100.822 132.257 142.090  0.00  0.00    +0.000 A 
ATOM     32  C   UNL     1     101.247 133.135 141.895  0.00  0.00    +0.000 A 
ENDBRANCH  12  27
TORSDOF 3
ENDMDL
MODEL 2
REMARK VINA RESULT:      -9.2      6.924      8.820
REMARK  Name = 
REMARK  3 active torsions:
REMARK  status: ('A' for Active; 'I' for Inactive)
REMARK    1  A    between atoms: C_14  and  C_17
REMARK    2  A    between atoms: C_16  and  C_18
REMARK    3  A    between atoms: C_25  and  C_27
REMARK                            x       y       z     vdW  Elec       q    Type
REMARK                         _______ _______ _______ _____ _____    ______ ____
ROOT
ATOM      1  O   UNL     1     111.711 131.474 141.814  0.00  0.00    +0.000 OA
ATOM      2  O   UNL     1     111.330 128.280 143.043  0.00  0.00    +0.000 OA
ATOM      3  O   UNL     1     111.843 130.909 145.252  0.00  0.00    +0.000 OA
ATOM      4  O   UNL     1     111.970 132.823 142.879  0.00  0.00    +0.000 OA
ATOM      5  C   UNL     1     111.520 129.877 142.429  0.00  0.00    +0.000 A 
ATOM      6  C   UNL     1     111.669 130.847 142.584  0.00  0.00    +0.000 A 
ATOM      7  C   UNL     1     111.479 129.250 143.199  0.00  0.00    +0.000 A 
ATOM      8  C   UNL     1     111.776 131.192 143.511  0.00  0.00    +0.000 A 
ATOM      9  C   UNL     1     111.585 129.595 144.126  0.00  0.00    +0.000 A 
ATOM     10  C   UNL     1     111.734 130.565 144.282  0.00  0.00    +0.000 A 
ATOM     11  C   UNL     1     111.930 132.205 143.657  0.00  0.00    +0.000 A 
ATOM     12  C   UNL     1     111.998 131.919 145.422  0.00  0.00    +0.000 A 
ATOM     13  C   UNL     1     112.042 132.571 144.619  0.00  0.00    +0.000 A 
ENDROOT
BRANCH   5  20
ATOM     14  O   UNL     1     110.510 129.480 141.093  0.00  0.00    +0.000 OA
ATOM     15  O   UNL     1     113.115 129.294 141.395  0.00  0.00    +0.000 OA
ATOM     16  O   UNL     1     112.902 128.605 139.542  0.00  0.00    +0.000 OA
ATOM     17  O   UNL     1     111.094 128.500 138.722  0.00  0.00    +0.000 OA
ATOM     18  C   UNL     1     112.211 129.241 140.985  0.00  0.00    +0.000 C 
ATOM     19  C   UNL     1     112.105 128.897 140.059  0.00  0.00    +0.000 C 
ATOM     20  C   UNL     1     111.414 129.533 141.502  0.00  0.00    +0.000 C 
ATOM     21  C   UNL     1     111.200 128.844 139.649  0.00  0.00    +0.000 C 
ATOM     22  C   UNL     1     110.403 129.136 140.166  0.00  0.00    +0.000 C 
BRANCH  22  24
ATOM     23  O   UNL     1     108.688 129.155 140.328  0.00  0.00    +0.000 OA
ATOM     24  C   UNL     1     109.498 129.083 139.756  0.00  0.00    +0.000 C 
ENDBRANCH  22  24
ENDBRANCH   5  20
BRANCH  12  27
ATOM     25  O   UNL     1     110.802 133.749 148.081  0.00  0.00    +0.000 OA
ATOM     26  O   UNL     1     112.421 133.280 149.134  0.00  0.00    +0.000 OA
ATOM     27  C   UNL     1     112.104 132.259 146.350  0.00  0.00    +0.000 A 
ATOM     28  C   UNL     1     111.400 132.834 146.752  0.00  0.00    +0.000 A 
ATOM     29  C   UNL     1     112.914 132.024 146.876  0.00  0.00    +0.000 A 
ATOM     30  C   UNL     1     111.506 133.174 147.680  0.00  0.00    +0.000 A 
ATOM     31  C   UNL     1     113.020 132.364 147.804  0.00  0.00    +0.000 A 
ATOM     32  C   UNL     1     112.316 132.939 148.206  0.00  0.00    +0.000 A 
ENDBRANCH  12  27
TORSDOF 3
ENDMDL
MODEL 3
REMARK VINA RESULT:      -9.0      6.574      8.528
REMARK  Name = 
REMARK  3 active torsions:
REMARK  status: ('A' for Active; 'I' for Inactive)
REMARK    1  A    between atoms: C_14  and  C_17
REMARK    2  A    between atoms: C_16  and  C_18
REMARK    3  A    between atoms: C_25  and  C_27
REMARK                            x       y       z     vdW  Elec       q    Type
REMARK                         _______ _______ _______ _____ _____    ______ ____
ROOT
ATOM      1  O   UNL     1     111.072 131.713 141.798  0.00  0.00    +0.000 OA
ATOM      2  O   UNL     1     109.556 128.899 143.079  0.00  0.00    +0.000 OA
ATOM      3  O   UNL     1     111.142 131.113 145.231  0.00  0.00    +0.000 OA
ATOM      4  O   UNL     1     111.879 132.851 142.835  0.00  0.00    +0.000 OA
ATOM      5  C   UNL     1     110.314 130.306 142.438  0.00  0.00    +0.000 A 
ATOM      6  C   UNL     1     110.831 131.144 142.576  0.00  0.00    +0.000 A 
ATOM      7  C   UNL     1     110.072 129.737 143.217  0.00  0.00    +0.000 A 
ATOM      8  C   UNL     1     111.105 131.414 143.493  0.00  0.00    +0.000 A 
ATOM      9  C   UNL     1     110.347 130.007 144.134  0.00  0.00    +0.000 A 
ATOM     10  C   UNL     1     110.863 130.845 144.272  0.00  0.00    +0.000 A 
ATOM     11  C   UNL     1     111.642 132.289 143.620  0.00  0.00    +0.000 A 
ATOM     12  C   UNL     1     111.680 131.985 145.383  0.00  0.00    +0.000 A 
ATOM     13  C   UNL     1     111.932 132.577 144.572  0.00  0.00    +0.000 A 
ENDROOT
BRANCH   5  20
ATOM     14  O   UNL     1     110.628 129.446 140.980  0.00  0.00    +0.000 OA
ATOM     15  O   UNL     1     108.588 130.947 141.688  0.00  0.00    +0.000 OA
ATOM     16  O   UNL     1     108.039 130.408 139.855  0.00  0.00    +0.000 OA
ATOM     17  O   UNL     1     109.216 129.228 138.772  0.00  0.00    +0.000 OA
ATOM     18  C   UNL     1     109.177 130.357 141.146  0.00  0.00    +0.000 C 
ATOM     19  C   UNL     1     108.902 130.087 140.230  0.00  0.00    +0.000 C 
ATOM     20  C   UNL     1     110.040 130.036 141.522  0.00  0.00    +0.000 C 
ATOM     21  C   UNL     1     109.491 129.497 139.688  0.00  0.00    +0.000 C 
ATOM     22  C   UNL     1     110.354 129.176 140.063  0.00  0.00    +0.000 C 
BRANCH  22  24
ATOM     23  O   UNL     1     111.873 128.402 139.820  0.00  0.00    +0.000 OA
ATOM     24  C   UNL     1     110.943 128.585 139.521  0.00  0.00    +0.000 C 
ENDBRANCH  22  24
ENDBRANCH   5  20
BRANCH  12  27
ATOM     25  O   UNL     1     111.074 133.741 148.281  0.00  0.00    +0.000 OA
ATOM     26  O   UNL     1     112.769 133.049 149.057  0.00  0.00    +0.000 OA
ATOM     27  C   UNL     1     111.953 132.251 146.302  0.00  0.00    +0.000 A 
ATOM     28  C   UNL     1     111.377 132.863 146.833  0.00  0.00    +0.000 A 
ATOM     29  C   UNL     1     112.800 131.904 146.689  0.00  0.00    +0.000 A 
ATOM     30  C   UNL     1     111.650 133.129 147.751  0.00  0.00    +0.000 A 
ATOM     31  C   UNL     1     113.072 132.171 147.607  0.00  0.00    +0.000 A 
ATOM     32  C   UNL     1     112.497 132.783 148.138  0.00  0.00    +0.000 A 
ENDBRANCH  12  27
TORSDOF 3
ENDMDL
MODEL 4
REMARK VINA RESULT:      -9.0      7.631     10.082
REMARK  Name = 
REMARK  3 active torsions:
REMARK  status: ('A' for Active; 'I' for Inactive)
REMARK    1  A    between atoms: C_14  and  C_17
REMARK    2  A    between atoms: C_16  and  C_18
REMARK    3  A    between atoms: C_25  and  C_27
REMARK                            x       y       z     vdW  Elec       q    Type
REMARK                         _______ _______ _______ _____ _____    ______ ____
ROOT
ATOM      1  O   UNL     1     112.499 131.979 143.286  0.00  0.00    +0.000 OA
ATOM      2  O   UNL     1     110.720 129.730 145.193  0.00  0.00    +0.000 OA
ATOM      3  O   UNL     1     112.216 128.662 142.249  0.00  0.00    +0.000 OA
ATOM      4  O   UNL     1     113.266 131.492 141.804  0.00  0.00    +0.000 OA
ATOM      5  C   UNL     1     111.610 130.855 144.240  0.00  0.00    +0.000 A 
ATOM      6  C   UNL     1     112.156 131.058 143.434  0.00  0.00    +0.000 A 
ATOM      7  C   UNL     1     111.266 129.934 144.388  0.00  0.00    +0.000 A 
ATOM      8  C   UNL     1     112.358 130.340 142.776  0.00  0.00    +0.000 A 
ATOM      9  C   UNL     1     111.468 129.216 143.730  0.00  0.00    +0.000 A 
ATOM     10  C   UNL     1     112.014 129.419 142.924  0.00  0.00    +0.000 A 
ATOM     11  C   UNL     1     112.927 130.568 141.942  0.00  0.00    +0.000 A 
ATOM     12  C   UNL     1     112.784 128.866 141.407  0.00  0.00    +0.000 A 
ATOM     13  C   UNL     1     113.142 129.825 141.253  0.00  0.00    +0.000 A 
ENDROOT
BRANCH   5  20
ATOM     14  O   UNL     1     112.004 131.710 145.681  0.00  0.00    +0.000 OA
ATOM     15  O   UNL     1     110.014 132.013 143.988  0.00  0.00    +0.000 OA
ATOM     16  O   UNL     1     109.610 133.449 145.304  0.00  0.00    +0.000 OA
ATOM     17  O   UNL     1     110.802 133.725 146.871  0.00  0.00    +0.000 OA
ATOM     18  C   UNL     1     110.610 132.152 144.772  0.00  0.00    +0.000 C 
ATOM     19  C   UNL     1     110.408 132.869 145.429  0.00  0.00    +0.000 C 
ATOM     20  C   UNL     1     111.408 131.572 144.897  0.00  0.00    +0.000 C 
ATOM     21  C   UNL     1     111.004 133.007 146.213  0.00  0.00    +0.000 C 
ATOM     22  C   UNL     1     111.802 132.428 146.339  0.00  0.00    +0.000 C 
BRANCH  22  24
ATOM     23  O   UNL     1     113.310 132.169 147.130  0.00  0.00    +0.000 OA
ATOM     24  C   UNL     1     112.398 132.566 147.123  0.00  0.00    +0.000 C 
ENDBRANCH  22  24
ENDBRANCH   5  20
BRANCH  12  27
ATOM     25  O   UNL     1     111.866 126.984 138.674  0.00  0.00    +0.000 OA
ATOM     26  O   UNL     1     113.581 125.985 138.785  0.00  0.00    +0.000 OA
ATOM     27  C   UNL     1     112.984 128.146 140.752  0.00  0.00    +0.000 A 
ATOM     28  C   UNL     1     112.325 127.925 140.040  0.00  0.00    +0.000 A 
ATOM     29  C   UNL     1     113.841 127.646 140.807  0.00  0.00    +0.000 A 
ATOM     30  C   UNL     1     112.525 127.204 139.385  0.00  0.00    +0.000 A 
ATOM     31  C   UNL     1     114.040 126.926 140.152  0.00  0.00    +0.000 A 
ATOM     32  C   UNL     1     113.382 126.705 139.441  0.00  0.00    +0.000 A 
ENDBRANCH  12  27
TORSDOF 3
ENDMDL
MODEL 5
REMARK VINA RESULT:      -8.8      6.951     10.044
REMARK  Name = 
REMARK  3 active torsions:
REMARK  status: ('A' for Active; 'I' for Inactive)
REMARK    1  A    between atoms: C_14  and  C_17
REMARK    2  A    between atoms: C_16  and  C_18
REMARK    3  A    between atoms: C_25  and  C_27
REMARK                            x       y       z     vdW  Elec       q    Type
REMARK                         _______ _______ _______ _____ _____    ______ ____
ROOT
ATOM      1  O   UNL     1     113.063 129.342 141.714  0.00  0.00    +0.000 OA
ATOM      2  O   UNL     1     110.165 127.609 142.387  0.00  0.00    +0.000 OA
ATOM      3  O   UNL     1     112.196 126.584 139.765  0.00  0.00    +0.000 OA
ATOM      4  O   UNL     1     114.113 128.868 140.412  0.00  0.00    +0.000 OA
ATOM      5  C   UNL     1     111.614 128.475 142.050  0.00  0.00    +0.000 A 
ATOM      6  C   UNL     1     112.436 128.599 141.506  0.00  0.00    +0.000 A 
ATOM      7  C   UNL     1     110.987 127.732 141.842  0.00  0.00    +0.000 A 
ATOM      8  C   UNL     1     112.632 127.980 140.753  0.00  0.00    +0.000 A 
ATOM      9  C   UNL     1     111.183 127.113 141.089  0.00  0.00    +0.000 A 
ATOM     10  C   UNL     1     112.006 127.237 140.545  0.00  0.00    +0.000 A 
ATOM     11  C   UNL     1     113.493 128.122 140.196  0.00  0.00    +0.000 A 
ATOM     12  C   UNL     1     113.051 126.707 139.193  0.00  0.00    +0.000 A 
ATOM     13  C   UNL     1     113.704 127.481 139.410  0.00  0.00    +0.000 A 
ENDROOT
BRANCH   5  20
ATOM     14  O   UNL     1     111.729 128.875 143.721  0.00  0.00    +0.000 OA
ATOM     15  O   UNL     1     110.599 130.153 141.719  0.00  0.00    +0.000 OA
ATOM     16  O   UNL     1     110.208 131.392 143.225  0.00  0.00    +0.000 OA
ATOM     17  O   UNL     1     110.830 130.952 145.061  0.00  0.00    +0.000 OA
ATOM     18  C   UNL     1     110.911 129.933 142.638  0.00  0.00    +0.000 C 
ATOM     19  C   UNL     1     110.715 130.553 143.390  0.00  0.00    +0.000 C 
ATOM     20  C   UNL     1     111.418 129.095 142.803  0.00  0.00    +0.000 C 
ATOM     21  C   UNL     1     111.026 130.333 144.308  0.00  0.00    +0.000 C 
ATOM     22  C   UNL     1     111.533 129.494 144.474  0.00  0.00    +0.000 C 
BRANCH  22  24
ATOM     23  O   UNL     1     111.925 128.325 145.676  0.00  0.00    +0.000 OA
ATOM     24  C   UNL     1     111.845 129.274 145.393  0.00  0.00    +0.000 C 
ENDBRANCH  22  24
ENDBRANCH   5  20
BRANCH  12  27
ATOM     25  O   UNL     1     111.987 124.958 136.425  0.00  0.00    +0.000 OA
ATOM     26  O   UNL     1     113.818 124.221 136.186  0.00  0.00    +0.000 OA
ATOM     27  C   UNL     1     113.243 126.085 138.441  0.00  0.00    +0.000 A 
ATOM     28  C   UNL     1     112.519 125.832 137.809  0.00  0.00    +0.000 A 
ATOM     29  C   UNL     1     114.159 125.717 138.322  0.00  0.00    +0.000 A 
ATOM     30  C   UNL     1     112.711 125.211 137.057  0.00  0.00    +0.000 A 
ATOM     31  C   UNL     1     114.350 125.096 137.570  0.00  0.00    +0.000 A 
ATOM     32  C   UNL     1     113.627 124.842 136.938  0.00  0.00    +0.000 A 
ENDBRANCH  12  27
TORSDOF 3
ENDMDL
MODEL 6
REMARK VINA RESULT:      -8.8      7.690      8.837
REMARK  Name = 
REMARK  3 active torsions:
REMARK  status: ('A' for Active; 'I' for Inactive)
REMARK    1  A    between atoms: C_14  and  C_17
REMARK    2  A    between atoms: C_16  and  C_18
REMARK    3  A    between atoms: C_25  and  C_27
REMARK                            x       y       z     vdW  Elec       q    Type
REMARK                         _______ _______ _______ _____ _____    ______ ____
ROOT
ATOM      1  O   UNL     1     112.735 130.756 141.590  0.00  0.00    +0.000 OA
ATOM      2  O   UNL     1     111.300 127.920 142.916  0.00  0.00    +0.000 OA
ATOM      3  O   UNL     1     111.525 130.787 144.860  0.00  0.00    +0.000 OA
ATOM      4  O   UNL     1     112.871 132.216 142.524  0.00  0.00    +0.000 OA
ATOM      5  C   UNL     1     112.018 129.338 142.253  0.00  0.00    +0.000 A 
ATOM      6  C   UNL     1     112.297 130.287 142.349  0.00  0.00    +0.000 A 
ATOM      7  C   UNL     1     111.579 128.870 143.012  0.00  0.00    +0.000 A 
ATOM      8  C   UNL     1     112.137 130.768 143.204  0.00  0.00    +0.000 A 
ATOM      9  C   UNL     1     111.419 129.351 143.867  0.00  0.00    +0.000 A 
ATOM     10  C   UNL     1     111.698 130.300 143.963  0.00  0.00    +0.000 A 
ATOM     11  C   UNL     1     112.433 131.757 143.289  0.00  0.00    +0.000 A 
ATOM     12  C   UNL     1     111.813 131.776 144.967  0.00  0.00    +0.000 A 
ATOM     13  C   UNL     1     112.270 132.264 144.177  0.00  0.00    +0.000 A 
ENDROOT
BRANCH   5  20
ATOM     14  O   UNL     1     113.011 128.330 141.272  0.00  0.00    +0.000 OA
ATOM     15  O   UNL     1     110.671 129.431 140.793  0.00  0.00    +0.000 OA
ATOM     16  O   UNL     1     110.991 128.469 139.083  0.00  0.00    +0.000 OA
ATOM     17  O   UNL     1     112.657 127.414 138.832  0.00  0.00    +0.000 OA
ATOM     18  C   UNL     1     111.504 128.903 140.668  0.00  0.00    +0.000 C 
ATOM     19  C   UNL     1     111.664 128.422 139.813  0.00  0.00    +0.000 C 
ATOM     20  C   UNL     1     112.178 128.857 141.398  0.00  0.00    +0.000 C 
ATOM     21  C   UNL     1     112.497 127.895 139.687  0.00  0.00    +0.000 C 
ATOM     22  C   UNL     1     113.171 127.849 140.417  0.00  0.00    +0.000 C 
BRANCH  22  24
ATOM     23  O   UNL     1     114.662 127.246 141.034  0.00  0.00    +0.000 OA
ATOM     24  C   UNL     1     114.005 127.321 140.292  0.00  0.00    +0.000 C 
ENDBRANCH  22  24
ENDBRANCH   5  20
BRANCH  12  27
ATOM     25  O   UNL     1     112.835 132.633 148.142  0.00  0.00    +0.000 OA
ATOM     26  O   UNL     1     111.167 133.685 148.396  0.00  0.00    +0.000 OA
ATOM     27  C   UNL     1     111.651 132.254 145.824  0.00  0.00    +0.000 A 
ATOM     28  C   UNL     1     112.324 132.205 146.555  0.00  0.00    +0.000 A 
ATOM     29  C   UNL     1     110.817 132.780 145.951  0.00  0.00    +0.000 A 
ATOM     30  C   UNL     1     112.162 132.682 147.412  0.00  0.00    +0.000 A 
ATOM     31  C   UNL     1     110.656 133.257 146.808  0.00  0.00    +0.000 A 
ATOM     32  C   UNL     1     111.328 133.208 147.539  0.00  0.00    +0.000 A 
ENDBRANCH  12  27
TORSDOF 3
ENDMDL
MODEL 7
REMARK VINA RESULT:      -8.7      7.563     10.036
REMARK  Name = 
REMARK  3 active torsions:
REMARK  status: ('A' for Active; 'I' for Inactive)
REMARK    1  A    between atoms: C_14  and  C_17
REMARK    2  A    between atoms: C_16  and  C_18
REMARK    3  A    between atoms: C_25  and  C_27
REMARK                            x       y       z     vdW  Elec       q    Type
REMARK                         _______ _______ _______ _____ _____    ______ ____
ROOT
ATOM      1  O   UNL     1     111.117 129.945 144.717  0.00  0.00    +0.000 OA
ATOM      2  O   UNL     1     112.544 132.696 143.215  0.00  0.00    +0.000 OA
ATOM      3  O   UNL     1     112.715 129.609 141.636  0.00  0.00    +0.000 OA
ATOM      4  O   UNL     1     111.177 128.379 143.966  0.00  0.00    +0.000 OA
ATOM      5  C   UNL     1     111.831 131.321 143.966  0.00  0.00    +0.000 A 
ATOM      6  C   UNL     1     111.618 130.349 143.959  0.00  0.00    +0.000 A 
ATOM      7  C   UNL     1     112.332 131.725 143.208  0.00  0.00    +0.000 A 
ATOM      8  C   UNL     1     111.907 129.782 143.195  0.00  0.00    +0.000 A 
ATOM      9  C   UNL     1     112.621 131.158 142.445  0.00  0.00    +0.000 A 
ATOM     10  C   UNL     1     112.408 130.187 142.438  0.00  0.00    +0.000 A 
ATOM     11  C   UNL     1     111.678 128.773 143.203  0.00  0.00    +0.000 A 
ATOM     12  C   UNL     1     112.497 128.597 141.622  0.00  0.00    +0.000 A 
ATOM     13  C   UNL     1     111.975 128.176 142.411  0.00  0.00    +0.000 A 
ENDROOT
BRANCH   5  20
ATOM     14  O   UNL     1     112.141 132.007 145.514  0.00  0.00    +0.000 OA
ATOM     15  O   UNL     1     110.055 132.215 143.926  0.00  0.00    +0.000 OA
ATOM     16  O   UNL     1     109.478 133.349 145.454  0.00  0.00    +0.000 OA
ATOM     17  O   UNL     1     110.677 133.588 147.022  0.00  0.00    +0.000 OA
ATOM     18  C   UNL     1     110.655 132.335 144.710  0.00  0.00    +0.000 C 
ATOM     19  C   UNL     1     110.366 132.902 145.474  0.00  0.00    +0.000 C 
ATOM     20  C   UNL     1     111.542 131.888 144.730  0.00  0.00    +0.000 C 
ATOM     21  C   UNL     1     110.965 133.021 146.258  0.00  0.00    +0.000 C 
ATOM     22  C   UNL     1     111.853 132.574 146.278  0.00  0.00    +0.000 C 
BRANCH  22  24
ATOM     23  O   UNL     1     113.268 132.134 147.155  0.00  0.00    +0.000 OA
ATOM     24  C   UNL     1     112.453 132.695 147.062  0.00  0.00    +0.000 C 
ENDBRANCH  22  24
ENDBRANCH   5  20
BRANCH  12  27
ATOM     25  O   UNL     1     111.955 127.364 138.454  0.00  0.00    +0.000 OA
ATOM     26  O   UNL     1     113.658 126.344 138.558  0.00  0.00    +0.000 OA
ATOM     27  C   UNL     1     112.788 128.033 140.856  0.00  0.00    +0.000 A 
ATOM     28  C   UNL     1     112.226 127.980 140.037  0.00  0.00    +0.000 A 
ATOM     29  C   UNL     1     113.639 127.523 140.909  0.00  0.00    +0.000 A 
ATOM     30  C   UNL     1     112.516 127.417 139.271  0.00  0.00    +0.000 A 
ATOM     31  C   UNL     1     113.929 126.960 140.143  0.00  0.00    +0.000 A 
ATOM     32  C   UNL     1     113.368 126.907 139.324  0.00  0.00    +0.000 A 
ENDBRANCH  12  27
TORSDOF 3
ENDMDL
MODEL 8
REMARK VINA RESULT:      -8.6      4.998      7.614
REMARK  Name = 
REMARK  3 active torsions:
REMARK  status: ('A' for Active; 'I' for Inactive)
REMARK    1  A    between atoms: C_14  and  C_17
REMARK    2  A    between atoms: C_16  and  C_18
REMARK    3  A    between atoms: C_25  and  C_27
REMARK                            x       y       z     vdW  Elec       q    Type
REMARK                         _______ _______ _______ _____ _____    ______ ____
ROOT
ATOM      1  O   UNL     1     109.886 125.814 141.558  0.00  0.00    +0.000 OA
ATOM      2  O   UNL     1     107.649 128.418 141.296  0.00  0.00    +0.000 OA
ATOM      3  O   UNL     1     111.055 129.083 141.245  0.00  0.00    +0.000 OA
ATOM      4  O   UNL     1     111.601 126.096 141.538  0.00  0.00    +0.000 OA
ATOM      5  C   UNL     1     108.768 127.116 141.427  0.00  0.00    +0.000 A 
ATOM      6  C   UNL     1     109.705 126.786 141.463  0.00  0.00    +0.000 A 
ATOM      7  C   UNL     1     108.586 128.089 141.332  0.00  0.00    +0.000 A 
ATOM      8  C   UNL     1     110.461 127.429 141.404  0.00  0.00    +0.000 A 
ATOM      9  C   UNL     1     109.342 128.732 141.273  0.00  0.00    +0.000 A 
ATOM     10  C   UNL     1     110.279 128.402 141.308  0.00  0.00    +0.000 A 
ATOM     11  C   UNL     1     111.431 127.071 141.442  0.00  0.00    +0.000 A 
ATOM     12  C   UNL     1     112.035 128.747 141.282  0.00  0.00    +0.000 A 
ATOM     13  C   UNL     1     112.223 127.735 141.381  0.00  0.00    +0.000 A 
ENDROOT
BRANCH   5  20
ATOM     14  O   UNL     1     107.570 126.305 142.361  0.00  0.00    +0.000 OA
ATOM     15  O   UNL     1     108.139 126.166 139.797  0.00  0.00    +0.000 OA
ATOM     16  O   UNL     1     106.628 124.880 139.916  0.00  0.00    +0.000 OA
ATOM     17  O   UNL     1     105.744 124.544 141.665  0.00  0.00    +0.000 OA
ATOM     18  C   UNL     1     107.698 125.998 140.672  0.00  0.00    +0.000 C 
ATOM     19  C   UNL     1     106.942 125.355 140.731  0.00  0.00    +0.000 C 
ATOM     20  C   UNL     1     108.012 126.473 141.487  0.00  0.00    +0.000 C 
ATOM     21  C   UNL     1     106.500 125.187 141.605  0.00  0.00    +0.000 C 
ATOM     22  C   UNL     1     106.814 125.662 142.421  0.00  0.00    +0.000 C 
BRANCH  22  24
ATOM     23  O   UNL     1     106.758 125.874 144.129  0.00  0.00    +0.000 OA
ATOM     24  C   UNL     1     106.372 125.493 143.296  0.00  0.00    +0.000 C 
ENDBRANCH  22  24
ENDBRANCH   5  20
BRANCH  12  27
ATOM     25  O   UNL     1     113.503 131.710 142.241  0.00  0.00    +0.000 OA
ATOM     26  O   UNL     1     115.045 131.334 141.044  0.00  0.00    +0.000 OA
ATOM     27  C   UNL     1     112.788 129.394 141.222  0.00  0.00    +0.000 A 
ATOM     28  C   UNL     1     112.769 130.229 141.761  0.00  0.00    +0.000 A 
ATOM     29  C   UNL     1     113.559 129.206 140.624  0.00  0.00    +0.000 A 
ATOM     30  C   UNL     1     113.522 130.876 141.702  0.00  0.00    +0.000 A 
ATOM     31  C   UNL     1     114.311 129.852 140.565  0.00  0.00    +0.000 A 
ATOM     32  C   UNL     1     114.293 130.687 141.103  0.00  0.00    +0.000 A 
ENDBRANCH  12  27
TORSDOF 3
ENDMDL
MODEL 9
REMARK VINA RESULT:      -8.6      5.127      9.259
REMARK  Name = 
REMARK  3 active torsions:
REMARK  status: ('A' for Active; 'I' for Inactive)
REMARK    1  A    between atoms: C_14  and  C_17
REMARK    2  A    between atoms: C_16  and  C_18
REMARK    3  A    between atoms: C_25  and  C_27
REMARK                            x       y       z     vdW  Elec       q    Type
REMARK                         _______ _______ _______ _____ _____    ______ ____
ROOT
ATOM      1  O   UNL     1     108.672 126.488 139.093  0.00  0.00    +0.000 OA
ATOM      2  O   UNL     1     110.543 126.860 141.960  0.00  0.00    +0.000 OA
ATOM      3  O   UNL     1     112.136 126.111 138.968  0.00  0.00    +0.000 OA
ATOM      4  O   UNL     1     109.424 126.114 137.571  0.00  0.00    +0.000 OA
ATOM      5  C   UNL     1     109.608 126.674 140.526  0.00  0.00    +0.000 A 
ATOM      6  C   UNL     1     109.554 126.489 139.551  0.00  0.00    +0.000 A 
ATOM      7  C   UNL     1     110.490 126.674 140.985  0.00  0.00    +0.000 A 
ATOM      8  C   UNL     1     110.383 126.303 139.034  0.00  0.00    +0.000 A 
ATOM      9  C   UNL     1     111.319 126.489 140.468  0.00  0.00    +0.000 A 
ATOM     10  C   UNL     1     111.265 126.303 139.492  0.00  0.00    +0.000 A 
ATOM     11  C   UNL     1     110.311 126.111 138.019  0.00  0.00    +0.000 A 
ATOM     12  C   UNL     1     112.088 125.917 137.951  0.00  0.00    +0.000 A 
ATOM     13  C   UNL     1     111.170 125.917 137.474  0.00  0.00    +0.000 A 
ENDROOT
BRANCH   5  20
ATOM     14  O   UNL     1     108.454 127.794 141.142  0.00  0.00    +0.000 OA
ATOM     15  O   UNL     1     108.601 125.177 141.362  0.00  0.00    +0.000 OA
ATOM     16  O   UNL     1     106.944 125.549 142.396  0.00  0.00    +0.000 OA
ATOM     17  O   UNL     1     106.293 127.417 142.594  0.00  0.00    +0.000 OA
ATOM     18  C   UNL     1     108.276 126.111 141.461  0.00  0.00    +0.000 C 
ATOM     19  C   UNL     1     107.447 126.297 141.978  0.00  0.00    +0.000 C 
ATOM     20  C   UNL     1     108.779 126.860 141.043  0.00  0.00    +0.000 C 
ATOM     21  C   UNL     1     107.122 127.231 142.077  0.00  0.00    +0.000 C 
ATOM     22  C   UNL     1     107.625 127.980 141.659  0.00  0.00    +0.000 C 
BRANCH  22  24
ATOM     23  O   UNL     1     107.349 129.542 140.988  0.00  0.00    +0.000 OA
ATOM     24  C   UNL     1     107.300 128.915 141.758  0.00  0.00    +0.000 C 
ENDBRANCH  22  24
ENDBRANCH   5  20
BRANCH  12  27
ATOM     25  O   UNL     1     114.658 127.017 135.942  0.00  0.00    +0.000 OA
ATOM     26  O   UNL     1     115.413 125.178 135.898  0.00  0.00    +0.000 OA
ATOM     27  C   UNL     1     112.920 125.732 137.438  0.00  0.00    +0.000 A 
ATOM     28  C   UNL     1     113.374 126.467 136.946  0.00  0.00    +0.000 A 
ATOM     29  C   UNL     1     113.296 124.812 137.417  0.00  0.00    +0.000 A 
ATOM     30  C   UNL     1     114.205 126.282 136.433  0.00  0.00    +0.000 A 
ATOM     31  C   UNL     1     114.127 124.628 136.903  0.00  0.00    +0.000 A 
ATOM     32  C   UNL     1     114.582 125.362 136.411  0.00  0.00    +0.000 A 
ENDBRANCH  12  27
TORSDOF 3
ENDMDL
MODEL 10
REMARK VINA RESULT:      -8.6      3.614      5.188
REMARK  Name = 
REMARK  3 active torsions:
REMARK  status: ('A' for Active; 'I' for Inactive)
REMARK    1  A    between atoms: C_14  and  C_17
REMARK    2  A    between atoms: C_16  and  C_18
REMARK    3  A    between atoms: C_25  and  C_27
REMARK                            x       y       z     vdW  Elec       q    Type
REMARK                         _______ _______ _______ _____ _____    ______ ____
ROOT
ATOM      1  O   UNL     1     105.923 127.470 147.450  0.00  0.00    +0.000 OA
ATOM      2  O   UNL     1     106.221 124.689 145.441  0.00  0.00    +0.000 OA
ATOM      3  O   UNL     1     105.297 127.722 144.029  0.00  0.00    +0.000 OA
ATOM      4  O   UNL     1     105.463 129.011 146.790  0.00  0.00    +0.000 OA
ATOM      5  C   UNL     1     106.072 126.079 146.446  0.00  0.00    +0.000 A 
ATOM      6  C   UNL     1     105.870 127.047 146.552  0.00  0.00    +0.000 A 
ATOM      7  C   UNL     1     106.019 125.656 145.548  0.00  0.00    +0.000 A 
ATOM      8  C   UNL     1     105.614 127.591 145.760  0.00  0.00    +0.000 A 
ATOM      9  C   UNL     1     105.763 126.200 144.756  0.00  0.00    +0.000 A 
ATOM     10  C   UNL     1     105.561 127.168 144.862  0.00  0.00    +0.000 A 
ATOM     11  C   UNL     1     105.407 128.597 145.887  0.00  0.00    +0.000 A 
ATOM     12  C   UNL     1     105.084 128.730 144.132  0.00  0.00    +0.000 A 
ATOM     13  C   UNL     1     105.140 129.171 145.067  0.00  0.00    +0.000 A 
ENDROOT
BRANCH   5  20
ATOM     14  O   UNL     1     105.624 125.141 147.818  0.00  0.00    +0.000 OA
ATOM     15  O   UNL     1     107.992 125.778 146.868  0.00  0.00    +0.000 OA
ATOM     16  O   UNL     1     108.503 124.690 148.451  0.00  0.00    +0.000 OA
ATOM     17  O   UNL     1     107.095 123.902 149.612  0.00  0.00    +0.000 OA
ATOM     18  C   UNL     1     107.288 125.384 147.448  0.00  0.00    +0.000 C 
ATOM     19  C   UNL     1     107.543 124.840 148.240  0.00  0.00    +0.000 C 
ATOM     20  C   UNL     1     106.328 125.535 147.237  0.00  0.00    +0.000 C 
ATOM     21  C   UNL     1     106.839 124.446 148.820  0.00  0.00    +0.000 C 
ATOM     22  C   UNL     1     105.879 124.596 148.609  0.00  0.00    +0.000 C 
BRANCH  22  24
ATOM     23  O   UNL     1     104.276 124.625 149.238  0.00  0.00    +0.000 OA
ATOM     24  C   UNL     1     105.174 124.202 149.190  0.00  0.00    +0.000 C 
ENDBRANCH  22  24
ENDBRANCH   5  20
BRANCH  12  27
ATOM     25  O   UNL     1     105.983 130.548 141.349  0.00  0.00    +0.000 OA
ATOM     26  O   UNL     1     104.065 130.894 140.955  0.00  0.00    +0.000 OA
ATOM     27  C   UNL     1     104.829 129.271 143.338  0.00  0.00    +0.000 A 
ATOM     28  C   UNL     1     105.534 129.639 142.740  0.00  0.00    +0.000 A 
ATOM     29  C   UNL     1     103.870 129.444 143.141  0.00  0.00    +0.000 A 
ATOM     30  C   UNL     1     105.279 130.180 141.946  0.00  0.00    +0.000 A 
ATOM     31  C   UNL     1     103.616 129.985 142.347  0.00  0.00    +0.000 A 
ATOM     32  C   UNL     1     104.320 130.353 141.749  0.00  0.00    +0.000 A 
ENDBRANCH  12  27
TORSDOF 3
ENDMDL
