MODEL 1
REMARK VINA RESULT:     -10.3      0.000      0.000
REMARK  Name = 44258137
REMARK  6 active torsions:
REMARK  status: ('A' for Active; 'I' for Inactive)
REMARK    1  A    between atoms: O_1  and  C_16
REMARK    2  A    between atoms: O_1  and  C_21
REMARK    3  A    between atoms: O_5  and  C_20
REMARK    4  A    between atoms: O_5  and  C_27
REMARK    5  A    between atoms: C_19  and  C_25
REMARK    6  A    between atoms: C_30  and  C_33
REMARK                            x       y       z     vdW  Elec       q    Type
REMARK                         _______ _______ _______ _____ _____    ______ ____
ROOT
ATOM      1  O   UNL     1     105.759 126.309 141.433  0.00  0.00    +0.000 OA
ENDROOT
BRANCH   1   9
ATOM      2  O   UNL     1     107.168 126.502 141.293  0.00  0.00    +0.000 OA
ATOM      3  O   UNL     1     107.462 124.075 140.909  0.00  0.00    +0.000 OA
ATOM      4  O   UNL     1     108.773 125.076 140.897  0.00  0.00    +0.000 OA
ATOM      5  C   UNL     1     106.610 125.191 141.171  0.00  0.00    +0.000 C 
ATOM      6  C   UNL     1     107.364 124.884 141.037  0.00  0.00    +0.000 C 
ATOM      7  C   UNL     1     108.019 125.384 141.031  0.00  0.00    +0.000 C 
ATOM      8  C   UNL     1     107.921 126.193 141.159  0.00  0.00    +0.000 C 
ATOM      9  C   UNL     1     106.512 126.000 141.299  0.00  0.00    +0.000 C 
BRANCH   8  11
ATOM     10  O   UNL     1     108.556 127.395 140.718  0.00  0.00    +0.000 OA
ATOM     11  C   UNL     1     108.577 126.695 141.153  0.00  0.00    +0.000 C 
ENDBRANCH   8  11
BRANCH   5  12
ATOM     12  O   UNL     1     105.955 124.691 141.177  0.00  0.00    +0.000 OA
BRANCH  12  17
ATOM     13  O   UNL     1     105.775 124.880 139.772  0.00  0.00    +0.000 OA
ATOM     14  O   UNL     1     104.867 123.451 141.148  0.00  0.00    +0.000 OA
ATOM     15  O   UNL     1     104.144 123.021 139.728  0.00  0.00    +0.000 OA
ATOM     16  O   UNL     1     104.509 123.831 138.338  0.00  0.00    +0.000 OA
ATOM     17  C   UNL     1     105.593 124.475 140.467  0.00  0.00    +0.000 C 
ATOM     18  C   UNL     1     105.049 123.856 140.452  0.00  0.00    +0.000 C 
ATOM     19  C   UNL     1     104.687 123.640 139.743  0.00  0.00    +0.000 C 
ATOM     20  C   UNL     1     104.870 124.045 139.048  0.00  0.00    +0.000 C 
ATOM     21  C   UNL     1     105.414 124.666 139.062  0.00  0.00    +0.000 C 
ENDBRANCH  12  17
ENDBRANCH   5  12
ENDBRANCH   1   9
BRANCH   1  23
ATOM     22  O   UNL     1     105.020 127.771 141.241  0.00  0.00    +0.000 OA
ATOM     23  C   UNL     1     105.621 126.790 142.088  0.00  0.00    +0.000 A 
ATOM     24  C   UNL     1     105.852 126.540 142.839  0.00  0.00    +0.000 A 
ATOM     25  C   UNL     1     105.251 127.522 141.992  0.00  0.00    +0.000 A 
ATOM     26  C   UNL     1     105.713 127.021 143.495  0.00  0.00    +0.000 A 
ATOM     27  C   UNL     1     105.112 128.003 142.648  0.00  0.00    +0.000 A 
ATOM     28  C   UNL     1     105.344 127.752 143.399  0.00  0.00    +0.000 A 
BRANCH  26  33
ATOM     29  O   UNL     1     105.587 126.109 144.588  0.00  0.00    +0.000 OA
ATOM     30  O   UNL     1     107.351 127.337 145.816  0.00  0.00    +0.000 OA
ATOM     31  O   UNL     1     107.244 126.430 146.933  0.00  0.00    +0.000 OA
ATOM     32  O   UNL     1     105.316 124.240 146.806  0.00  0.00    +0.000 OA
ATOM     33  C   UNL     1     105.945 126.770 144.246  0.00  0.00    +0.000 A 
ATOM     34  C   UNL     1     106.532 127.179 144.655  0.00  0.00    +0.000 A 
ATOM     35  C   UNL     1     105.818 125.858 145.339  0.00  0.00    +0.000 A 
ATOM     36  C   UNL     1     106.406 126.266 145.749  0.00  0.00    +0.000 A 
ATOM     37  C   UNL     1     106.763 126.928 145.407  0.00  0.00    +0.000 A 
ATOM     38  C   UNL     1     105.439 125.168 145.684  0.00  0.00    +0.000 A 
ATOM     39  C   UNL     1     106.655 126.014 146.531  0.00  0.00    +0.000 A 
ATOM     40  C   UNL     1     105.675 124.901 146.466  0.00  0.00    +0.000 A 
ATOM     41  C   UNL     1     106.287 125.327 146.893  0.00  0.00    +0.000 A 
ENDBRANCH  26  33
ENDBRANCH   1  23
TORSDOF 6
ENDMDL
MODEL 2
REMARK VINA RESULT:     -10.3      7.233      9.202
REMARK  Name = 44258137
REMARK  6 active torsions:
REMARK  status: ('A' for Active; 'I' for Inactive)
REMARK    1  A    between atoms: O_1  and  C_16
REMARK    2  A    between atoms: O_1  and  C_21
REMARK    3  A    between atoms: O_5  and  C_20
REMARK    4  A    between atoms: O_5  and  C_27
REMARK    5  A    between atoms: C_19  and  C_25
REMARK    6  A    between atoms: C_30  and  C_33
REMARK                            x       y       z     vdW  Elec       q    Type
REMARK                         _______ _______ _______ _____ _____    ______ ____
ROOT
ATOM      1  O   UNL     1     111.706 129.272 136.677  0.00  0.00    +0.000 OA
ENDROOT
BRANCH   1   9
ATOM      2  O   UNL     1     112.122 129.536 138.019  0.00  0.00    +0.000 OA
ATOM      3  O   UNL     1     109.830 129.062 138.823  0.00  0.00    +0.000 OA
ATOM      4  O   UNL     1     111.010 129.483 139.896  0.00  0.00    +0.000 OA
ATOM      5  C   UNL     1     110.767 129.167 137.750  0.00  0.00    +0.000 C 
ATOM      6  C   UNL     1     110.594 129.220 138.555  0.00  0.00    +0.000 C 
ATOM      7  C   UNL     1     111.183 129.430 139.091  0.00  0.00    +0.000 C 
ATOM      8  C   UNL     1     111.947 129.588 138.823  0.00  0.00    +0.000 C 
ATOM      9  C   UNL     1     111.531 129.325 137.482  0.00  0.00    +0.000 C 
BRANCH   8  11
ATOM     10  O   UNL     1     112.956 130.503 139.257  0.00  0.00    +0.000 OA
ATOM     11  C   UNL     1     112.538 129.799 139.360  0.00  0.00    +0.000 C 
ENDBRANCH   8  11
BRANCH   5  12
ATOM     12  O   UNL     1     110.178 128.956 137.213  0.00  0.00    +0.000 OA
BRANCH  12  17
ATOM     13  O   UNL     1     109.790 130.326 137.091  0.00  0.00    +0.000 OA
ATOM     14  O   UNL     1     108.879 128.507 136.300  0.00  0.00    +0.000 OA
ATOM     15  O   UNL     1     107.842 129.653 135.720  0.00  0.00    +0.000 OA
ATOM     16  O   UNL     1     108.104 131.247 136.055  0.00  0.00    +0.000 OA
ATOM     17  C   UNL     1     109.659 129.529 136.923  0.00  0.00    +0.000 C 
ATOM     18  C   UNL     1     109.010 129.305 136.467  0.00  0.00    +0.000 C 
ATOM     19  C   UNL     1     108.491 129.877 136.177  0.00  0.00    +0.000 C 
ATOM     20  C   UNL     1     108.622 130.674 136.344  0.00  0.00    +0.000 C 
ATOM     21  C   UNL     1     109.272 130.899 136.802  0.00  0.00    +0.000 C 
ENDBRANCH  12  17
ENDBRANCH   5  12
ENDBRANCH   1   9
BRANCH   1  23
ATOM     22  O   UNL     1     112.873 130.066 135.824  0.00  0.00    +0.000 OA
ATOM     23  C   UNL     1     112.379 128.868 136.427  0.00  0.00    +0.000 A 
ATOM     24  C   UNL     1     112.469 128.067 136.602  0.00  0.00    +0.000 A 
ATOM     25  C   UNL     1     112.964 129.265 136.000  0.00  0.00    +0.000 A 
ATOM     26  C   UNL     1     113.143 127.663 136.352  0.00  0.00    +0.000 A 
ATOM     27  C   UNL     1     113.638 128.860 135.749  0.00  0.00    +0.000 A 
ATOM     28  C   UNL     1     113.727 128.059 135.925  0.00  0.00    +0.000 A 
BRANCH  26  33
ATOM     29  O   UNL     1     112.643 126.324 136.314  0.00  0.00    +0.000 OA
ATOM     30  O   UNL     1     114.674 125.531 137.483  0.00  0.00    +0.000 OA
ATOM     31  O   UNL     1     114.193 124.172 137.458  0.00  0.00    +0.000 OA
ATOM     32  O   UNL     1     111.607 123.604 136.226  0.00  0.00    +0.000 OA
ATOM     33  C   UNL     1     113.232 126.861 136.528  0.00  0.00    +0.000 A 
ATOM     34  C   UNL     1     113.909 126.597 136.917  0.00  0.00    +0.000 A 
ATOM     35  C   UNL     1     112.731 125.523 136.489  0.00  0.00    +0.000 A 
ATOM     36  C   UNL     1     113.408 125.258 136.879  0.00  0.00    +0.000 A 
ATOM     37  C   UNL     1     113.998 125.796 137.094  0.00  0.00    +0.000 A 
ATOM     38  C   UNL     1     112.111 124.974 136.261  0.00  0.00    +0.000 A 
ATOM     39  C   UNL     1     113.512 124.427 137.068  0.00  0.00    +0.000 A 
ATOM     40  C   UNL     1     112.197 124.138 136.442  0.00  0.00    +0.000 A 
ATOM     41  C   UNL     1     112.903 123.863 136.848  0.00  0.00    +0.000 A 
ENDBRANCH  26  33
ENDBRANCH   1  23
TORSDOF 6
ENDMDL
MODEL 3
REMARK VINA RESULT:     -10.2      6.967      9.322
REMARK  Name = 44258137
REMARK  6 active torsions:
REMARK  status: ('A' for Active; 'I' for Inactive)
REMARK    1  A    between atoms: O_1  and  C_16
REMARK    2  A    between atoms: O_1  and  C_21
REMARK    3  A    between atoms: O_5  and  C_20
REMARK    4  A    between atoms: O_5  and  C_27
REMARK    5  A    between atoms: C_19  and  C_25
REMARK    6  A    between atoms: C_30  and  C_33
REMARK                            x       y       z     vdW  Elec       q    Type
REMARK                         _______ _______ _______ _____ _____    ______ ____
ROOT
ATOM      1  O   UNL     1     110.862 129.043 136.481  0.00  0.00    +0.000 OA
ENDROOT
BRANCH   1   9
ATOM      2  O   UNL     1     112.225 129.472 136.520  0.00  0.00    +0.000 OA
ATOM      3  O   UNL     1     112.010 129.934 138.942  0.00  0.00    +0.000 OA
ATOM      4  O   UNL     1     113.445 130.209 138.173  0.00  0.00    +0.000 OA
ATOM      5  C   UNL     1     111.436 129.489 137.712  0.00  0.00    +0.000 C 
ATOM      6  C   UNL     1     112.082 129.780 138.135  0.00  0.00    +0.000 C 
ATOM      7  C   UNL     1     112.798 129.917 137.751  0.00  0.00    +0.000 C 
ATOM      8  C   UNL     1     112.870 129.763 136.943  0.00  0.00    +0.000 C 
ATOM      9  C   UNL     1     111.507 129.334 136.905  0.00  0.00    +0.000 C 
BRANCH   8  11
ATOM     10  O   UNL     1     113.601 130.324 135.851  0.00  0.00    +0.000 OA
ATOM     11  C   UNL     1     113.587 129.900 136.559  0.00  0.00    +0.000 C 
ENDBRANCH   8  11
BRANCH   5  12
ATOM     12  O   UNL     1     110.719 129.352 138.096  0.00  0.00    +0.000 OA
BRANCH  12  17
ATOM     13  O   UNL     1     110.351 130.719 137.907  0.00  0.00    +0.000 OA
ATOM     14  O   UNL     1     109.360 129.111 138.999  0.00  0.00    +0.000 OA
ATOM     15  O   UNL     1     108.312 130.358 139.262  0.00  0.00    +0.000 OA
ATOM     16  O   UNL     1     108.624 131.846 138.621  0.00  0.00    +0.000 OA
ATOM     17  C   UNL     1     110.195 129.975 138.228  0.00  0.00    +0.000 C 
ATOM     18  C   UNL     1     109.516 129.855 138.679  0.00  0.00    +0.000 C 
ATOM     19  C   UNL     1     108.991 130.478 138.811  0.00  0.00    +0.000 C 
ATOM     20  C   UNL     1     109.147 131.222 138.490  0.00  0.00    +0.000 C 
ATOM     21  C   UNL     1     109.828 131.343 138.038  0.00  0.00    +0.000 C 
ENDBRANCH  12  17
ENDBRANCH   5  12
ENDBRANCH   1   9
BRANCH   1  23
ATOM     22  O   UNL     1     110.407 129.215 134.905  0.00  0.00    +0.000 OA
ATOM     23  C   UNL     1     110.963 128.419 135.953  0.00  0.00    +0.000 A 
ATOM     24  C   UNL     1     111.292 127.708 136.212  0.00  0.00    +0.000 A 
ATOM     25  C   UNL     1     110.735 128.505 135.164  0.00  0.00    +0.000 A 
ATOM     26  C   UNL     1     111.394 127.083 135.683  0.00  0.00    +0.000 A 
ATOM     27  C   UNL     1     110.837 127.880 134.635  0.00  0.00    +0.000 A 
ATOM     28  C   UNL     1     111.166 127.169 134.895  0.00  0.00    +0.000 A 
BRANCH  26  33
ATOM     29  O   UNL     1     112.515 126.346 136.176  0.00  0.00    +0.000 OA
ATOM     30  O   UNL     1     111.130 124.296 136.257  0.00  0.00    +0.000 OA
ATOM     31  O   UNL     1     112.246 123.528 136.756  0.00  0.00    +0.000 OA
ATOM     32  O   UNL     1     114.810 124.861 137.180  0.00  0.00    +0.000 OA
ATOM     33  C   UNL     1     111.723 126.372 135.943  0.00  0.00    +0.000 A 
ATOM     34  C   UNL     1     111.262 125.689 135.970  0.00  0.00    +0.000 A 
ATOM     35  C   UNL     1     112.844 125.636 136.436  0.00  0.00    +0.000 A 
ATOM     36  C   UNL     1     112.383 124.952 136.463  0.00  0.00    +0.000 A 
ATOM     37  C   UNL     1     111.591 124.979 136.230  0.00  0.00    +0.000 A 
ATOM     38  C   UNL     1     113.669 125.621 136.676  0.00  0.00    +0.000 A 
ATOM     39  C   UNL     1     112.715 124.207 136.732  0.00  0.00    +0.000 A 
ATOM     40  C   UNL     1     114.019 124.884 136.948  0.00  0.00    +0.000 A 
ATOM     41  C   UNL     1     113.538 124.173 136.976  0.00  0.00    +0.000 A 
ENDBRANCH  26  33
ENDBRANCH   1  23
TORSDOF 6
ENDMDL
MODEL 4
REMARK VINA RESULT:     -10.2      7.213      9.425
REMARK  Name = 44258137
REMARK  6 active torsions:
REMARK  status: ('A' for Active; 'I' for Inactive)
REMARK    1  A    between atoms: O_1  and  C_16
REMARK    2  A    between atoms: O_1  and  C_21
REMARK    3  A    between atoms: O_5  and  C_20
REMARK    4  A    between atoms: O_5  and  C_27
REMARK    5  A    between atoms: C_19  and  C_25
REMARK    6  A    between atoms: C_30  and  C_33
REMARK                            x       y       z     vdW  Elec       q    Type
REMARK                         _______ _______ _______ _____ _____    ______ ____
ROOT
ATOM      1  O   UNL     1     111.783 129.338 136.992  0.00  0.00    +0.000 OA
ENDROOT
BRANCH   1   9
ATOM      2  O   UNL     1     110.752 128.854 136.129  0.00  0.00    +0.000 OA
ATOM      3  O   UNL     1     109.155 128.884 138.020  0.00  0.00    +0.000 OA
ATOM      4  O   UNL     1     108.656 128.390 136.527  0.00  0.00    +0.000 OA
ATOM      5  C   UNL     1     110.469 129.111 137.507  0.00  0.00    +0.000 C 
ATOM      6  C   UNL     1     109.687 128.874 137.390  0.00  0.00    +0.000 C 
ATOM      7  C   UNL     1     109.438 128.627 136.644  0.00  0.00    +0.000 C 
ATOM      8  C   UNL     1     109.970 128.617 136.013  0.00  0.00    +0.000 C 
ATOM      9  C   UNL     1     111.001 129.101 136.876  0.00  0.00    +0.000 C 
BRANCH   8  11
ATOM     10  O   UNL     1     109.832 128.860 134.612  0.00  0.00    +0.000 OA
ATOM     11  C   UNL     1     109.721 128.370 135.266  0.00  0.00    +0.000 C 
ENDBRANCH   8  11
BRANCH   5  12
ATOM     12  O   UNL     1     110.718 129.358 138.253  0.00  0.00    +0.000 OA
BRANCH  12  17
ATOM     13  O   UNL     1     110.254 130.681 137.976  0.00  0.00    +0.000 OA
ATOM     14  O   UNL     1     111.070 129.807 139.801  0.00  0.00    +0.000 OA
ATOM     15  O   UNL     1     110.781 131.354 140.298  0.00  0.00    +0.000 OA
ATOM     16  O   UNL     1     110.142 132.452 139.246  0.00  0.00    +0.000 OA
ATOM     17  C   UNL     1     110.574 130.132 138.502  0.00  0.00    +0.000 C 
ATOM     18  C   UNL     1     110.750 130.356 139.275  0.00  0.00    +0.000 C 
ATOM     19  C   UNL     1     110.606 131.129 139.524  0.00  0.00    +0.000 C 
ATOM     20  C   UNL     1     110.286 131.679 138.998  0.00  0.00    +0.000 C 
ATOM     21  C   UNL     1     110.110 131.454 138.223  0.00  0.00    +0.000 C 
ENDBRANCH  12  17
ENDBRANCH   5  12
ENDBRANCH   1   9
BRANCH   1  23
ATOM     22  O   UNL     1     112.838 130.102 135.980  0.00  0.00    +0.000 OA
ATOM     23  C   UNL     1     112.398 128.915 136.643  0.00  0.00    +0.000 A 
ATOM     24  C   UNL     1     112.487 128.110 136.800  0.00  0.00    +0.000 A 
ATOM     25  C   UNL     1     112.926 129.297 136.136  0.00  0.00    +0.000 A 
ATOM     26  C   UNL     1     113.102 127.686 136.451  0.00  0.00    +0.000 A 
ATOM     27  C   UNL     1     113.542 128.873 135.787  0.00  0.00    +0.000 A 
ATOM     28  C   UNL     1     113.630 128.068 135.945  0.00  0.00    +0.000 A 
BRANCH  26  33
ATOM     29  O   UNL     1     112.616 126.346 136.352  0.00  0.00    +0.000 OA
ATOM     30  O   UNL     1     114.597 125.535 137.592  0.00  0.00    +0.000 OA
ATOM     31  O   UNL     1     114.129 124.173 137.506  0.00  0.00    +0.000 OA
ATOM     32  O   UNL     1     111.608 123.622 136.139  0.00  0.00    +0.000 OA
ATOM     33  C   UNL     1     113.190 126.881 136.608  0.00  0.00    +0.000 A 
ATOM     34  C   UNL     1     113.850 126.611 137.022  0.00  0.00    +0.000 A 
ATOM     35  C   UNL     1     112.703 125.541 136.509  0.00  0.00    +0.000 A 
ATOM     36  C   UNL     1     113.363 125.270 136.922  0.00  0.00    +0.000 A 
ATOM     37  C   UNL     1     113.937 125.805 137.179  0.00  0.00    +0.000 A 
ATOM     38  C   UNL     1     112.098 124.994 136.237  0.00  0.00    +0.000 A 
ATOM     39  C   UNL     1     113.465 124.434 137.092  0.00  0.00    +0.000 A 
ATOM     40  C   UNL     1     112.183 124.154 136.397  0.00  0.00    +0.000 A 
ATOM     41  C   UNL     1     112.871 123.873 136.828  0.00  0.00    +0.000 A 
ENDBRANCH  26  33
ENDBRANCH   1  23
TORSDOF 6
ENDMDL
MODEL 5
REMARK VINA RESULT:     -10.2      6.410      8.787
REMARK  Name = 44258137
REMARK  6 active torsions:
REMARK  status: ('A' for Active; 'I' for Inactive)
REMARK    1  A    between atoms: O_1  and  C_16
REMARK    2  A    between atoms: O_1  and  C_21
REMARK    3  A    between atoms: O_5  and  C_20
REMARK    4  A    between atoms: O_5  and  C_27
REMARK    5  A    between atoms: C_19  and  C_25
REMARK    6  A    between atoms: C_30  and  C_33
REMARK                            x       y       z     vdW  Elec       q    Type
REMARK                         _______ _______ _______ _____ _____    ______ ____
ROOT
ATOM      1  O   UNL     1     112.041 128.801 139.898  0.00  0.00    +0.000 OA
ENDROOT
BRANCH   1   9
ATOM      2  O   UNL     1     113.005 129.578 139.183  0.00  0.00    +0.000 OA
ATOM      3  O   UNL     1     111.208 130.476 137.737  0.00  0.00    +0.000 OA
ATOM      4  O   UNL     1     112.770 130.953 137.504  0.00  0.00    +0.000 OA
ATOM      5  C   UNL     1     111.624 129.638 138.818  0.00  0.00    +0.000 C 
ATOM      6  C   UNL     1     111.807 130.176 138.219  0.00  0.00    +0.000 C 
ATOM      7  C   UNL     1     112.587 130.415 138.103  0.00  0.00    +0.000 C 
ATOM      8  C   UNL     1     113.186 130.115 138.585  0.00  0.00    +0.000 C 
ATOM      9  C   UNL     1     112.223 129.339 139.300  0.00  0.00    +0.000 C 
BRANCH   8  11
ATOM     10  O   UNL     1     114.412 130.635 139.104  0.00  0.00    +0.000 OA
ATOM     11  C   UNL     1     113.968 130.354 138.468  0.00  0.00    +0.000 C 
ENDBRANCH   8  11
BRANCH   5  12
ATOM     12  O   UNL     1     110.844 129.400 138.934  0.00  0.00    +0.000 OA
BRANCH  12  17
ATOM     13  O   UNL     1     110.624 130.519 139.794  0.00  0.00    +0.000 OA
ATOM     14  O   UNL     1     109.242 129.016 139.027  0.00  0.00    +0.000 OA
ATOM     15  O   UNL     1     108.222 129.943 139.933  0.00  0.00    +0.000 OA
ATOM     16  O   UNL     1     108.804 131.255 140.747  0.00  0.00    +0.000 OA
ATOM     17  C   UNL     1     110.333 129.863 139.387  0.00  0.00    +0.000 C 
ATOM     18  C   UNL     1     109.533 129.672 139.434  0.00  0.00    +0.000 C 
ATOM     19  C   UNL     1     109.022 130.135 139.887  0.00  0.00    +0.000 C 
ATOM     20  C   UNL     1     109.313 130.791 140.294  0.00  0.00    +0.000 C 
ATOM     21  C   UNL     1     110.115 130.984 140.248  0.00  0.00    +0.000 C 
ENDBRANCH  12  17
ENDBRANCH   5  12
ENDBRANCH   1   9
BRANCH   1  23
ATOM     22  O   UNL     1     112.787 128.543 141.347  0.00  0.00    +0.000 OA
ATOM     23  C   UNL     1     112.509 128.132 140.007  0.00  0.00    +0.000 A 
ATOM     24  C   UNL     1     112.605 127.590 139.392  0.00  0.00    +0.000 A 
ATOM     25  C   UNL     1     112.882 128.002 140.732  0.00  0.00    +0.000 A 
ATOM     26  C   UNL     1     113.073 126.920 139.501  0.00  0.00    +0.000 A 
ATOM     27  C   UNL     1     113.351 127.332 140.841  0.00  0.00    +0.000 A 
ATOM     28  C   UNL     1     113.446 126.791 140.225  0.00  0.00    +0.000 A 
BRANCH  26  33
ATOM     29  O   UNL     1     112.505 126.056 138.514  0.00  0.00    +0.000 OA
ATOM     30  O   UNL     1     114.775 125.403 137.778  0.00  0.00    +0.000 OA
ATOM     31  O   UNL     1     114.228 124.524 136.774  0.00  0.00    +0.000 OA
ATOM     32  O   UNL     1     111.328 124.302 136.509  0.00  0.00    +0.000 OA
ATOM     33  C   UNL     1     113.168 126.379 138.885  0.00  0.00    +0.000 A 
ATOM     34  C   UNL     1     113.924 126.161 138.640  0.00  0.00    +0.000 A 
ATOM     35  C   UNL     1     112.599 125.516 137.898  0.00  0.00    +0.000 A 
ATOM     36  C   UNL     1     113.356 125.298 137.652  0.00  0.00    +0.000 A 
ATOM     37  C   UNL     1     114.019 125.621 138.024  0.00  0.00    +0.000 A 
ATOM     38  C   UNL     1     111.901 125.187 137.520  0.00  0.00    +0.000 A 
ATOM     39  C   UNL     1     113.467 124.736 137.012  0.00  0.00    +0.000 A 
ATOM     40  C   UNL     1     111.992 124.623 136.878  0.00  0.00    +0.000 A 
ATOM     41  C   UNL     1     112.781 124.396 136.622  0.00  0.00    +0.000 A 
ENDBRANCH  26  33
ENDBRANCH   1  23
TORSDOF 6
ENDMDL
MODEL 6
REMARK VINA RESULT:     -10.1      6.436      9.210
REMARK  Name = 44258137
REMARK  6 active torsions:
REMARK  status: ('A' for Active; 'I' for Inactive)
REMARK    1  A    between atoms: O_1  and  C_16
REMARK    2  A    between atoms: O_1  and  C_21
REMARK    3  A    between atoms: O_5  and  C_20
REMARK    4  A    between atoms: O_5  and  C_27
REMARK    5  A    between atoms: C_19  and  C_25
REMARK    6  A    between atoms: C_30  and  C_33
REMARK                            x       y       z     vdW  Elec       q    Type
REMARK                         _______ _______ _______ _____ _____    ______ ____
ROOT
ATOM      1  O   UNL     1     111.274 129.401 137.251  0.00  0.00    +0.000 OA
ENDROOT
BRANCH   1   9
ATOM      2  O   UNL     1     112.528 130.009 137.566  0.00  0.00    +0.000 OA
ATOM      3  O   UNL     1     111.957 129.940 139.973  0.00  0.00    +0.000 OA
ATOM      4  O   UNL     1     113.402 130.571 139.486  0.00  0.00    +0.000 OA
ATOM      5  C   UNL     1     111.615 129.670 138.613  0.00  0.00    +0.000 C 
ATOM      6  C   UNL     1     112.148 129.963 139.171  0.00  0.00    +0.000 C 
ATOM      7  C   UNL     1     112.869 130.278 138.927  0.00  0.00    +0.000 C 
ATOM      8  C   UNL     1     113.060 130.301 138.125  0.00  0.00    +0.000 C 
ATOM      9  C   UNL     1     111.805 129.693 137.810  0.00  0.00    +0.000 C 
BRANCH   8  11
ATOM     10  O   UNL     1     113.804 131.178 137.277  0.00  0.00    +0.000 OA
ATOM     11  C   UNL     1     113.783 130.616 137.881  0.00  0.00    +0.000 C 
ENDBRANCH   8  11
BRANCH   5  12
ATOM     12  O   UNL     1     110.893 129.355 138.856  0.00  0.00    +0.000 OA
BRANCH  12  17
ATOM     13  O   UNL     1     110.310 130.660 138.838  0.00  0.00    +0.000 OA
ATOM     14  O   UNL     1     109.513 128.748 139.526  0.00  0.00    +0.000 OA
ATOM     15  O   UNL     1     108.240 129.749 139.842  0.00  0.00    +0.000 OA
ATOM     16  O   UNL     1     108.348 131.358 139.489  0.00  0.00    +0.000 OA
ATOM     17  C   UNL     1     110.256 129.855 139.015  0.00  0.00    +0.000 C 
ATOM     18  C   UNL     1     109.567 129.552 139.349  0.00  0.00    +0.000 C 
ATOM     19  C   UNL     1     108.930 130.053 139.508  0.00  0.00    +0.000 C 
ATOM     20  C   UNL     1     108.983 130.857 139.331  0.00  0.00    +0.000 C 
ATOM     21  C   UNL     1     109.674 131.161 138.996  0.00  0.00    +0.000 C 
ENDBRANCH  12  17
ENDBRANCH   5  12
ENDBRANCH   1   9
BRANCH   1  23
ATOM     22  O   UNL     1     111.079 129.902 135.692  0.00  0.00    +0.000 OA
ATOM     23  C   UNL     1     111.544 128.931 136.631  0.00  0.00    +0.000 A 
ATOM     24  C   UNL     1     111.912 128.210 136.789  0.00  0.00    +0.000 A 
ATOM     25  C   UNL     1     111.447 129.181 135.850  0.00  0.00    +0.000 A 
ATOM     26  C   UNL     1     112.183 127.739 136.168  0.00  0.00    +0.000 A 
ATOM     27  C   UNL     1     111.718 128.710 135.229  0.00  0.00    +0.000 A 
ATOM     28  C   UNL     1     112.086 127.989 135.389  0.00  0.00    +0.000 A 
BRANCH  26  33
ATOM     29  O   UNL     1     112.098 126.333 136.410  0.00  0.00    +0.000 OA
ATOM     30  O   UNL     1     114.559 126.223 136.643  0.00  0.00    +0.000 OA
ATOM     31  O   UNL     1     114.501 124.803 136.890  0.00  0.00    +0.000 OA
ATOM     32  O   UNL     1     111.903 123.469 136.901  0.00  0.00    +0.000 OA
ATOM     33  C   UNL     1     112.551 127.018 136.328  0.00  0.00    +0.000 A 
ATOM     34  C   UNL     1     113.371 126.981 136.406  0.00  0.00    +0.000 A 
ATOM     35  C   UNL     1     112.465 125.612 136.570  0.00  0.00    +0.000 A 
ATOM     36  C   UNL     1     113.285 125.575 136.648  0.00  0.00    +0.000 A 
ATOM     37  C   UNL     1     113.739 126.260 136.566  0.00  0.00    +0.000 A 
ATOM     38  C   UNL     1     111.982 124.906 136.653  0.00  0.00    +0.000 A 
ATOM     39  C   UNL     1     113.679 124.830 136.814  0.00  0.00    +0.000 A 
ATOM     40  C   UNL     1     112.359 124.151 136.819  0.00  0.00    +0.000 A 
ATOM     41  C   UNL     1     113.213 124.114 136.900  0.00  0.00    +0.000 A 
ENDBRANCH  26  33
ENDBRANCH   1  23
TORSDOF 6
ENDMDL
MODEL 7
REMARK VINA RESULT:     -10.0      7.037      8.783
REMARK  Name = 44258137
REMARK  6 active torsions:
REMARK  status: ('A' for Active; 'I' for Inactive)
REMARK    1  A    between atoms: O_1  and  C_16
REMARK    2  A    between atoms: O_1  and  C_21
REMARK    3  A    between atoms: O_5  and  C_20
REMARK    4  A    between atoms: O_5  and  C_27
REMARK    5  A    between atoms: C_19  and  C_25
REMARK    6  A    between atoms: C_30  and  C_33
REMARK                            x       y       z     vdW  Elec       q    Type
REMARK                         _______ _______ _______ _____ _____    ______ ____
ROOT
ATOM      1  O   UNL     1     111.107 128.858 138.188  0.00  0.00    +0.000 OA
ENDROOT
BRANCH   1   9
ATOM      2  O   UNL     1     112.280 129.635 137.936  0.00  0.00    +0.000 OA
ATOM      3  O   UNL     1     111.575 129.936 135.583  0.00  0.00    +0.000 OA
ATOM      4  O   UNL     1     112.982 130.613 136.115  0.00  0.00    +0.000 OA
ATOM      5  C   UNL     1     111.340 129.397 136.885  0.00  0.00    +0.000 C 
ATOM      6  C   UNL     1     111.810 129.836 136.368  0.00  0.00    +0.000 C 
ATOM      7  C   UNL     1     112.513 130.174 136.633  0.00  0.00    +0.000 C 
ATOM      8  C   UNL     1     112.748 130.073 137.418  0.00  0.00    +0.000 C 
ATOM      9  C   UNL     1     111.576 129.297 137.670  0.00  0.00    +0.000 C 
BRANCH   8  11
ATOM     10  O   UNL     1     113.453 130.882 138.362  0.00  0.00    +0.000 OA
ATOM     11  C   UNL     1     113.453 130.412 137.684  0.00  0.00    +0.000 C 
ENDBRANCH   8  11
BRANCH   5  12
ATOM     12  O   UNL     1     110.637 129.059 136.620  0.00  0.00    +0.000 OA
BRANCH  12  17
ATOM     13  O   UNL     1     109.935 130.271 136.900  0.00  0.00    +0.000 OA
ATOM     14  O   UNL     1     109.306 128.468 135.844  0.00  0.00    +0.000 OA
ATOM     15  O   UNL     1     107.938 129.385 135.737  0.00  0.00    +0.000 OA
ATOM     16  O   UNL     1     107.902 130.893 136.406  0.00  0.00    +0.000 OA
ATOM     17  C   UNL     1     109.953 129.517 136.566  0.00  0.00    +0.000 C 
ATOM     18  C   UNL     1     109.288 129.222 136.179  0.00  0.00    +0.000 C 
ATOM     19  C   UNL     1     108.603 129.680 136.125  0.00  0.00    +0.000 C 
ATOM     20  C   UNL     1     108.585 130.434 136.459  0.00  0.00    +0.000 C 
ATOM     21  C   UNL     1     109.251 130.730 136.847  0.00  0.00    +0.000 C 
ENDBRANCH  12  17
ENDBRANCH   5  12
ENDBRANCH   1   9
BRANCH   1  23
ATOM     22  O   UNL     1     111.017 128.920 139.834  0.00  0.00    +0.000 OA
ATOM     23  C   UNL     1     111.444 128.259 138.642  0.00  0.00    +0.000 A 
ATOM     24  C   UNL     1     111.827 127.627 138.274  0.00  0.00    +0.000 A 
ATOM     25  C   UNL     1     111.400 128.289 139.466  0.00  0.00    +0.000 A 
ATOM     26  C   UNL     1     112.164 127.027 138.728  0.00  0.00    +0.000 A 
ATOM     27  C   UNL     1     111.737 127.689 139.920  0.00  0.00    +0.000 A 
ATOM     28  C   UNL     1     112.119 127.058 139.550  0.00  0.00    +0.000 A 
BRANCH  26  33
ATOM     29  O   UNL     1     112.104 125.805 137.988  0.00  0.00    +0.000 OA
ATOM     30  O   UNL     1     114.576 125.683 137.988  0.00  0.00    +0.000 OA
ATOM     31  O   UNL     1     114.543 124.449 137.241  0.00  0.00    +0.000 OA
ATOM     32  O   UNL     1     111.960 123.318 136.480  0.00  0.00    +0.000 OA
ATOM     33  C   UNL     1     112.547 126.396 138.358  0.00  0.00    +0.000 A 
ATOM     34  C   UNL     1     113.370 126.355 138.358  0.00  0.00    +0.000 A 
ATOM     35  C   UNL     1     112.485 125.175 137.618  0.00  0.00    +0.000 A 
ATOM     36  C   UNL     1     113.309 125.133 137.618  0.00  0.00    +0.000 A 
ATOM     37  C   UNL     1     113.752 125.724 137.988  0.00  0.00    +0.000 A 
ATOM     38  C   UNL     1     112.014 124.567 137.236  0.00  0.00    +0.000 A 
ATOM     39  C   UNL     1     113.718 124.482 137.236  0.00  0.00    +0.000 A 
ATOM     40  C   UNL     1     112.405 123.906 136.849  0.00  0.00    +0.000 A 
ATOM     41  C   UNL     1     113.263 123.864 136.849  0.00  0.00    +0.000 A 
ENDBRANCH  26  33
ENDBRANCH   1  23
TORSDOF 6
ENDMDL
MODEL 8
REMARK VINA RESULT:     -10.0      5.640      8.616
REMARK  Name = 44258137
REMARK  6 active torsions:
REMARK  status: ('A' for Active; 'I' for Inactive)
REMARK    1  A    between atoms: O_1  and  C_16
REMARK    2  A    between atoms: O_1  and  C_21
REMARK    3  A    between atoms: O_5  and  C_20
REMARK    4  A    between atoms: O_5  and  C_27
REMARK    5  A    between atoms: C_19  and  C_25
REMARK    6  A    between atoms: C_30  and  C_33
REMARK                            x       y       z     vdW  Elec       q    Type
REMARK                         _______ _______ _______ _____ _____    ______ ____
ROOT
ATOM      1  O   UNL     1     109.917 128.037 138.254  0.00  0.00    +0.000 OA
ENDROOT
BRANCH   1   9
ATOM      2  O   UNL     1     109.300 127.705 137.009  0.00  0.00    +0.000 OA
ATOM      3  O   UNL     1     110.328 129.701 135.967  0.00  0.00    +0.000 OA
ATOM      4  O   UNL     1     109.368 128.704 135.069  0.00  0.00    +0.000 OA
ATOM      5  C   UNL     1     110.123 128.870 137.111  0.00  0.00    +0.000 C 
ATOM      6  C   UNL     1     109.985 129.036 136.314  0.00  0.00    +0.000 C 
ATOM      7  C   UNL     1     109.506 128.538 135.865  0.00  0.00    +0.000 C 
ATOM      8  C   UNL     1     109.163 127.873 136.213  0.00  0.00    +0.000 C 
ATOM      9  C   UNL     1     109.780 128.204 137.458  0.00  0.00    +0.000 C 
BRANCH   8  11
ATOM     10  O   UNL     1     107.947 127.139 136.054  0.00  0.00    +0.000 OA
ATOM     11  C   UNL     1     108.682 127.374 135.763  0.00  0.00    +0.000 C 
ENDBRANCH   8  11
BRANCH   5  12
ATOM     12  O   UNL     1     110.603 129.368 137.560  0.00  0.00    +0.000 OA
BRANCH  12  17
ATOM     13  O   UNL     1     109.477 130.198 137.852  0.00  0.00    +0.000 OA
ATOM     14  O   UNL     1     111.594 130.447 138.318  0.00  0.00    +0.000 OA
ATOM     15  O   UNL     1     110.963 131.817 138.988  0.00  0.00    +0.000 OA
ATOM     16  O   UNL     1     109.341 132.106 138.901  0.00  0.00    +0.000 OA
ATOM     17  C   UNL     1     110.288 130.053 137.895  0.00  0.00    +0.000 C 
ATOM     18  C   UNL     1     110.783 130.592 138.274  0.00  0.00    +0.000 C 
ATOM     19  C   UNL     1     110.468 131.277 138.610  0.00  0.00    +0.000 C 
ATOM     20  C   UNL     1     109.657 131.422 138.566  0.00  0.00    +0.000 C 
ATOM     21  C   UNL     1     109.161 130.882 138.187  0.00  0.00    +0.000 C 
ENDBRANCH  12  17
ENDBRANCH   5  12
ENDBRANCH   1   9
BRANCH   1  23
ATOM     22  O   UNL     1     109.044 127.339 139.467  0.00  0.00    +0.000 OA
ATOM     23  C   UNL     1     110.085 127.266 138.490  0.00  0.00    +0.000 A 
ATOM     24  C   UNL     1     110.689 126.842 138.121  0.00  0.00    +0.000 A 
ATOM     25  C   UNL     1     109.648 126.916 139.098  0.00  0.00    +0.000 A 
ATOM     26  C   UNL     1     110.857 126.070 138.358  0.00  0.00    +0.000 A 
ATOM     27  C   UNL     1     109.816 126.143 139.334  0.00  0.00    +0.000 A 
ATOM     28  C   UNL     1     110.421 125.721 138.964  0.00  0.00    +0.000 A 
BRANCH  26  33
ATOM     29  O   UNL     1     112.250 125.809 138.172  0.00  0.00    +0.000 OA
ATOM     30  O   UNL     1     111.700 124.061 136.509  0.00  0.00    +0.000 OA
ATOM     31  O   UNL     1     113.100 123.777 136.302  0.00  0.00    +0.000 OA
ATOM     32  O   UNL     1     115.093 125.291 137.807  0.00  0.00    +0.000 OA
ATOM     33  C   UNL     1     111.461 125.648 137.987  0.00  0.00    +0.000 A 
ATOM     34  C   UNL     1     111.278 125.065 137.433  0.00  0.00    +0.000 A 
ATOM     35  C   UNL     1     112.854 125.387 137.802  0.00  0.00    +0.000 A 
ATOM     36  C   UNL     1     112.672 124.804 137.247  0.00  0.00    +0.000 A 
ATOM     37  C   UNL     1     111.883 124.643 137.063  0.00  0.00    +0.000 A 
ATOM     38  C   UNL     1     113.671 125.564 138.003  0.00  0.00    +0.000 A 
ATOM     39  C   UNL     1     113.292 124.358 136.856  0.00  0.00    +0.000 A 
ATOM     40  C   UNL     1     114.306 125.128 137.621  0.00  0.00    +0.000 A 
ATOM     41  C   UNL     1     114.115 124.521 137.043  0.00  0.00    +0.000 A 
ENDBRANCH  26  33
ENDBRANCH   1  23
TORSDOF 6
ENDMDL
MODEL 9
REMARK VINA RESULT:      -9.9      8.043     10.306
REMARK  Name = 44258137
REMARK  6 active torsions:
REMARK  status: ('A' for Active; 'I' for Inactive)
REMARK    1  A    between atoms: O_1  and  C_16
REMARK    2  A    between atoms: O_1  and  C_21
REMARK    3  A    between atoms: O_5  and  C_20
REMARK    4  A    between atoms: O_5  and  C_27
REMARK    5  A    between atoms: C_19  and  C_25
REMARK    6  A    between atoms: C_30  and  C_33
REMARK                            x       y       z     vdW  Elec       q    Type
REMARK                         _______ _______ _______ _____ _____    ______ ____
ROOT
ATOM      1  O   UNL     1     113.335 129.876 137.392  0.00  0.00    +0.000 OA
ENDROOT
BRANCH   1   9
ATOM      2  O   UNL     1     112.268 130.819 137.277  0.00  0.00    +0.000 OA
ATOM      3  O   UNL     1     111.598 130.348 139.612  0.00  0.00    +0.000 OA
ATOM      4  O   UNL     1     110.755 131.449 138.719  0.00  0.00    +0.000 OA
ATOM      5  C   UNL     1     112.467 130.111 138.503  0.00  0.00    +0.000 C 
ATOM      6  C   UNL     1     111.821 130.505 138.834  0.00  0.00    +0.000 C 
ATOM      7  C   UNL     1     111.400 131.055 138.388  0.00  0.00    +0.000 C 
ATOM      8  C   UNL     1     111.623 131.212 137.609  0.00  0.00    +0.000 C 
ATOM      9  C   UNL     1     112.690 130.269 137.724  0.00  0.00    +0.000 C 
BRANCH   8  11
ATOM     10  O   UNL     1     111.581 132.435 136.871  0.00  0.00    +0.000 OA
ATOM     11  C   UNL     1     111.201 131.763 137.162  0.00  0.00    +0.000 C 
ENDBRANCH   8  11
BRANCH   5  12
ATOM     12  O   UNL     1     112.888 129.561 138.949  0.00  0.00    +0.000 OA
BRANCH  12  17
ATOM     13  O   UNL     1     113.729 130.603 139.448  0.00  0.00    +0.000 OA
ATOM     14  O   UNL     1     113.620 128.485 139.964  0.00  0.00    +0.000 OA
ATOM     15  O   UNL     1     114.826 128.990 140.971  0.00  0.00    +0.000 OA
ATOM     16  O   UNL     1     115.301 130.570 140.962  0.00  0.00    +0.000 OA
ATOM     17  C   UNL     1     113.492 129.813 139.453  0.00  0.00    +0.000 C 
ATOM     18  C   UNL     1     113.857 129.276 139.960  0.00  0.00    +0.000 C 
ATOM     19  C   UNL     1     114.461 129.527 140.463  0.00  0.00    +0.000 C 
ATOM     20  C   UNL     1     114.698 130.317 140.459  0.00  0.00    +0.000 C 
ATOM     21  C   UNL     1     114.332 130.856 139.951  0.00  0.00    +0.000 C 
ENDBRANCH  12  17
ENDBRANCH   5  12
ENDBRANCH   1   9
BRANCH   1  23
ATOM     22  O   UNL     1     114.356 130.349 136.187  0.00  0.00    +0.000 OA
ATOM     23  C   UNL     1     113.271 129.539 136.643  0.00  0.00    +0.000 A 
ATOM     24  C   UNL     1     112.697 128.965 136.495  0.00  0.00    +0.000 A 
ATOM     25  C   UNL     1     113.782 129.776 136.039  0.00  0.00    +0.000 A 
ATOM     26  C   UNL     1     112.634 128.628 135.745  0.00  0.00    +0.000 A 
ATOM     27  C   UNL     1     113.719 129.439 135.289  0.00  0.00    +0.000 A 
ATOM     28  C   UNL     1     113.144 128.865 135.142  0.00  0.00    +0.000 A 
BRANCH  26  33
ATOM     29  O   UNL     1     112.167 127.283 135.872  0.00  0.00    +0.000 OA
ATOM     30  O   UNL     1     110.121 127.873 134.612  0.00  0.00    +0.000 OA
ATOM     31  O   UNL     1     109.627 126.522 134.726  0.00  0.00    +0.000 OA
ATOM     32  O   UNL     1     111.234 124.537 136.143  0.00  0.00    +0.000 OA
ATOM     33  C   UNL     1     112.059 128.054 135.598  0.00  0.00    +0.000 A 
ATOM     34  C   UNL     1     111.377 128.251 135.178  0.00  0.00    +0.000 A 
ATOM     35  C   UNL     1     111.594 126.709 135.726  0.00  0.00    +0.000 A 
ATOM     36  C   UNL     1     110.911 126.905 135.306  0.00  0.00    +0.000 A 
ATOM     37  C   UNL     1     110.803 127.677 135.032  0.00  0.00    +0.000 A 
ATOM     38  C   UNL     1     111.718 125.910 136.016  0.00  0.00    +0.000 A 
ATOM     39  C   UNL     1     110.306 126.317 135.148  0.00  0.00    +0.000 A 
ATOM     40  C   UNL     1     111.123 125.307 135.868  0.00  0.00    +0.000 A 
ATOM     41  C   UNL     1     110.413 125.512 135.430  0.00  0.00    +0.000 A 
ENDBRANCH  26  33
ENDBRANCH   1  23
TORSDOF 6
ENDMDL
