MODEL 1
REMARK VINA RESULT:      -7.5      0.000      0.000
REMARK  Name = 5386963
REMARK  7 active torsions:
REMARK  status: ('A' for Active; 'I' for Inactive)
REMARK    1  A    between atoms: O_2  and  C_15
REMARK    2  A    between atoms: O_3  and  C_17
REMARK    3  A    between atoms: O_4  and  C_19
REMARK    4  A    between atoms: O_8  and  C_23
REMARK    5  A    between atoms: O_9  and  C_24
REMARK    6  A    between atoms: O_10  and  C_25
REMARK    7  A    between atoms: C_13  and  C_14
REMARK                            x       y       z     vdW  Elec       q    Type
REMARK                         _______ _______ _______ _____ _____    ______ ____
ROOT
ATOM      1  O   UNL     1     113.370 126.781 136.760  0.00  0.00    +0.000 OA
ATOM      2  O   UNL     1     111.229 125.004 135.965  0.00  0.00    +0.000 OA
ATOM      3  O   UNL     1     111.051 126.427 135.805  0.00  0.00    +0.000 OA
ATOM      4  O   UNL     1     113.646 123.928 137.046  0.00  0.00    +0.000 OA
ATOM      5  C   UNL     1     112.287 125.880 136.358  0.00  0.00    +0.000 A 
ATOM      6  C   UNL     1     113.043 125.992 136.669  0.00  0.00    +0.000 A 
ATOM      7  C   UNL     1     112.904 127.464 136.523  0.00  0.00    +0.000 A 
ATOM      8  C   UNL     1     112.116 127.346 136.199  0.00  0.00    +0.000 A 
ATOM      9  C   UNL     1     111.806 126.549 136.116  0.00  0.00    +0.000 A 
ATOM     10  C   UNL     1     113.496 125.341 136.899  0.00  0.00    +0.000 A 
ATOM     11  C   UNL     1     111.985 125.116 136.276  0.00  0.00    +0.000 A 
ATOM     12  C   UNL     1     112.437 124.466 136.505  0.00  0.00    +0.000 A 
ATOM     13  C   UNL     1     113.193 124.579 136.816  0.00  0.00    +0.000 A 
ENDROOT
BRANCH   7  14
ATOM     14  C   UNL     1     113.209 128.225 136.606  0.00  0.00    +0.000 A 
ATOM     15  C   UNL     1     113.100 128.639 137.312  0.00  0.00    +0.000 A 
ATOM     16  C   UNL     1     113.623 128.574 135.984  0.00  0.00    +0.000 A 
ATOM     17  C   UNL     1     113.928 129.336 136.067  0.00  0.00    +0.000 A 
ATOM     18  C   UNL     1     113.405 129.400 137.396  0.00  0.00    +0.000 A 
ATOM     19  C   UNL     1     113.820 129.749 136.772  0.00  0.00    +0.000 A 
BRANCH  17  20
ATOM     20  O   UNL     1     114.342 129.685 135.445  0.00  0.00    +0.000 OA
ATOM     21  C   UNL     1     114.696 129.214 134.867  0.00  0.00    +0.000 C 
ENDBRANCH  17  20
BRANCH  18  22
ATOM     22  O   UNL     1     113.296 129.813 138.101  0.00  0.00    +0.000 OA
ATOM     23  C   UNL     1     113.234 129.402 138.814  0.00  0.00    +0.000 C 
ENDBRANCH  18  22
BRANCH  19  24
ATOM     24  O   UNL     1     114.124 130.511 136.857  0.00  0.00    +0.000 OA
ATOM     25  C   UNL     1     113.659 131.166 136.668  0.00  0.00    +0.000 C 
ENDBRANCH  19  24
ENDBRANCH   7  14
BRANCH   8  26
ATOM     26  O   UNL     1     111.661 127.995 135.969  0.00  0.00    +0.000 OA
ATOM     27  C   UNL     1     111.043 127.895 135.431  0.00  0.00    +0.000 C 
ENDBRANCH   8  26
BRANCH  10  28
ATOM     28  O   UNL     1     114.252 125.454 137.210  0.00  0.00    +0.000 OA
ATOM     29  C   UNL     1     114.904 125.106 136.845  0.00  0.00    +0.000 C 
ENDBRANCH  10  28
BRANCH  12  30
ATOM     30  O   UNL     1     112.135 123.703 136.423  0.00  0.00    +0.000 OA
ATOM     31  C   UNL     1     111.812 123.314 137.075  0.00  0.00    +0.000 C 
ENDBRANCH  12  30
TORSDOF 7
ENDMDL
MODEL 2
REMARK VINA RESULT:      -7.4      0.968      4.772
REMARK  Name = 5386963
REMARK  7 active torsions:
REMARK  status: ('A' for Active; 'I' for Inactive)
REMARK    1  A    between atoms: O_2  and  C_15
REMARK    2  A    between atoms: O_3  and  C_17
REMARK    3  A    between atoms: O_4  and  C_19
REMARK    4  A    between atoms: O_8  and  C_23
REMARK    5  A    between atoms: O_9  and  C_24
REMARK    6  A    between atoms: O_10  and  C_25
REMARK    7  A    between atoms: C_13  and  C_14
REMARK                            x       y       z     vdW  Elec       q    Type
REMARK                         _______ _______ _______ _____ _____    ______ ____
ROOT
ATOM      1  O   UNL     1     113.094 127.584 136.565  0.00  0.00    +0.000 OA
ATOM      2  O   UNL     1     112.699 129.799 138.384  0.00  0.00    +0.000 OA
ATOM      3  O   UNL     1     112.295 128.476 138.796  0.00  0.00    +0.000 OA
ATOM      4  O   UNL     1     113.873 130.256 135.819  0.00  0.00    +0.000 OA
ATOM      5  C   UNL     1     112.895 128.707 137.485  0.00  0.00    +0.000 A 
ATOM      6  C   UNL     1     113.156 128.419 136.757  0.00  0.00    +0.000 A 
ATOM      7  C   UNL     1     112.756 127.041 137.138  0.00  0.00    +0.000 A 
ATOM      8  C   UNL     1     112.483 127.341 137.897  0.00  0.00    +0.000 A 
ATOM      9  C   UNL     1     112.554 128.180 138.071  0.00  0.00    +0.000 A 
ATOM     10  C   UNL     1     113.482 128.935 136.201  0.00  0.00    +0.000 A 
ATOM     11  C   UNL     1     112.960 129.511 137.657  0.00  0.00    +0.000 A 
ATOM     12  C   UNL     1     113.286 130.027 137.102  0.00  0.00    +0.000 A 
ATOM     13  C   UNL     1     113.547 129.739 136.374  0.00  0.00    +0.000 A 
ENDROOT
BRANCH   7  14
ATOM     14  C   UNL     1     112.692 126.237 136.963  0.00  0.00    +0.000 A 
ATOM     15  C   UNL     1     113.308 125.723 137.154  0.00  0.00    +0.000 A 
ATOM     16  C   UNL     1     112.012 125.947 136.597  0.00  0.00    +0.000 A 
ATOM     17  C   UNL     1     111.948 125.144 136.422  0.00  0.00    +0.000 A 
ATOM     18  C   UNL     1     113.245 124.920 136.979  0.00  0.00    +0.000 A 
ATOM     19  C   UNL     1     112.565 124.630 136.613  0.00  0.00    +0.000 A 
BRANCH  17  20
ATOM     20  O   UNL     1     111.269 124.853 136.056  0.00  0.00    +0.000 OA
ATOM     21  C   UNL     1     110.813 125.348 135.579  0.00  0.00    +0.000 C 
ENDBRANCH  17  20
BRANCH  18  22
ATOM     22  O   UNL     1     113.862 124.406 137.170  0.00  0.00    +0.000 OA
ATOM     23  C   UNL     1     114.634 124.692 137.230  0.00  0.00    +0.000 C 
ENDBRANCH  18  22
BRANCH  19  24
ATOM     24  O   UNL     1     112.502 123.826 136.438  0.00  0.00    +0.000 OA
ATOM     25  C   UNL     1     112.146 123.312 136.976  0.00  0.00    +0.000 C 
ENDBRANCH  19  24
ENDBRANCH   7  14
BRANCH   8  26
ATOM     26  O   UNL     1     112.157 126.827 138.454  0.00  0.00    +0.000 OA
ATOM     27  C   UNL     1     112.182 127.018 139.256  0.00  0.00    +0.000 C 
ENDBRANCH   8  26
BRANCH  10  28
ATOM     28  O   UNL     1     113.743 128.647 135.474  0.00  0.00    +0.000 OA
ATOM     29  C   UNL     1     114.527 128.757 135.244  0.00  0.00    +0.000 C 
ENDBRANCH  10  28
BRANCH  12  30
ATOM     30  O   UNL     1     113.351 130.832 137.274  0.00  0.00    +0.000 OA
ATOM     31  C   UNL     1     112.751 131.351 137.052  0.00  0.00    +0.000 C 
ENDBRANCH  12  30
TORSDOF 7
ENDMDL
MODEL 3
REMARK VINA RESULT:      -7.1      1.209      2.351
REMARK  Name = 5386963
REMARK  7 active torsions:
REMARK  status: ('A' for Active; 'I' for Inactive)
REMARK    1  A    between atoms: O_2  and  C_15
REMARK    2  A    between atoms: O_3  and  C_17
REMARK    3  A    between atoms: O_4  and  C_19
REMARK    4  A    between atoms: O_8  and  C_23
REMARK    5  A    between atoms: O_9  and  C_24
REMARK    6  A    between atoms: O_10  and  C_25
REMARK    7  A    between atoms: C_13  and  C_14
REMARK                            x       y       z     vdW  Elec       q    Type
REMARK                         _______ _______ _______ _____ _____    ______ ____
ROOT
ATOM      1  O   UNL     1     112.178 127.154 136.432  0.00  0.00    +0.000 OA
ATOM      2  O   UNL     1     112.310 124.938 138.288  0.00  0.00    +0.000 OA
ATOM      3  O   UNL     1     112.890 126.204 138.668  0.00  0.00    +0.000 OA
ATOM      4  O   UNL     1     111.044 124.595 135.749  0.00  0.00    +0.000 OA
ATOM      5  C   UNL     1     112.244 126.031 137.370  0.00  0.00    +0.000 A 
ATOM      6  C   UNL     1     112.010 126.338 136.641  0.00  0.00    +0.000 A 
ATOM      7  C   UNL     1     112.594 127.659 136.989  0.00  0.00    +0.000 A 
ATOM      8  C   UNL     1     112.837 127.339 137.750  0.00  0.00    +0.000 A 
ATOM      9  C   UNL     1     112.661 126.519 137.941  0.00  0.00    +0.000 A 
ATOM     10  C   UNL     1     111.610 125.859 136.100  0.00  0.00    +0.000 A 
ATOM     11  C   UNL     1     112.077 125.245 137.558  0.00  0.00    +0.000 A 
ATOM     12  C   UNL     1     111.678 124.767 137.019  0.00  0.00    +0.000 A 
ATOM     13  C   UNL     1     111.444 125.074 136.290  0.00  0.00    +0.000 A 
ENDROOT
BRANCH   7  14
ATOM     14  C   UNL     1     112.759 128.444 136.798  0.00  0.00    +0.000 A 
ATOM     15  C   UNL     1     113.462 128.635 136.411  0.00  0.00    +0.000 A 
ATOM     16  C   UNL     1     112.221 129.038 136.993  0.00  0.00    +0.000 A 
ATOM     17  C   UNL     1     112.386 129.823 136.801  0.00  0.00    +0.000 A 
ATOM     18  C   UNL     1     113.627 129.419 136.219  0.00  0.00    +0.000 A 
ATOM     19  C   UNL     1     113.089 130.014 136.414  0.00  0.00    +0.000 A 
BRANCH  17  20
ATOM     20  O   UNL     1     111.849 130.418 136.996  0.00  0.00    +0.000 OA
ATOM     21  C   UNL     1     111.041 130.253 137.022  0.00  0.00    +0.000 C 
ENDBRANCH  17  20
BRANCH  18  22
ATOM     22  O   UNL     1     114.331 129.610 135.832  0.00  0.00    +0.000 OA
ATOM     23  C   UNL     1     114.639 129.100 135.261  0.00  0.00    +0.000 C 
ENDBRANCH  18  22
BRANCH  19  24
ATOM     24  O   UNL     1     113.255 130.799 136.222  0.00  0.00    +0.000 OA
ATOM     25  C   UNL     1     113.658 131.280 136.758  0.00  0.00    +0.000 C 
ENDBRANCH  19  24
ENDBRANCH   7  14
BRANCH   8  26
ATOM     26  O   UNL     1     113.237 127.815 138.292  0.00  0.00    +0.000 OA
ATOM     27  C   UNL     1     113.220 127.629 139.095  0.00  0.00    +0.000 C 
ENDBRANCH   8  26
BRANCH  10  28
ATOM     28  O   UNL     1     111.377 126.166 135.371  0.00  0.00    +0.000 OA
ATOM     29  C   UNL     1     110.581 126.163 135.158  0.00  0.00    +0.000 C 
ENDBRANCH  10  28
BRANCH  12  30
ATOM     30  O   UNL     1     111.511 123.981 137.208  0.00  0.00    +0.000 OA
ATOM     31  C   UNL     1     112.041 123.385 137.000  0.00  0.00    +0.000 C 
ENDBRANCH  12  30
TORSDOF 7
ENDMDL
MODEL 4
REMARK VINA RESULT:      -7.0      1.988      2.876
REMARK  Name = 5386963
REMARK  7 active torsions:
REMARK  status: ('A' for Active; 'I' for Inactive)
REMARK    1  A    between atoms: O_2  and  C_15
REMARK    2  A    between atoms: O_3  and  C_17
REMARK    3  A    between atoms: O_4  and  C_19
REMARK    4  A    between atoms: O_8  and  C_23
REMARK    5  A    between atoms: O_9  and  C_24
REMARK    6  A    between atoms: O_10  and  C_25
REMARK    7  A    between atoms: C_13  and  C_14
REMARK                            x       y       z     vdW  Elec       q    Type
REMARK                         _______ _______ _______ _____ _____    ______ ____
ROOT
ATOM      1  O   UNL     1     113.281 126.327 138.246  0.00  0.00    +0.000 OA
ATOM      2  O   UNL     1     111.048 124.562 137.723  0.00  0.00    +0.000 OA
ATOM      3  O   UNL     1     110.890 125.621 138.691  0.00  0.00    +0.000 OA
ATOM      4  O   UNL     1     113.515 124.190 136.329  0.00  0.00    +0.000 OA
ATOM      5  C   UNL     1     112.152 125.433 137.980  0.00  0.00    +0.000 A 
ATOM      6  C   UNL     1     112.931 125.661 137.833  0.00  0.00    +0.000 A 
ATOM      7  C   UNL     1     112.814 126.763 138.821  0.00  0.00    +0.000 A 
ATOM      8  C   UNL     1     112.002 126.526 138.974  0.00  0.00    +0.000 A 
ATOM      9  C   UNL     1     111.669 125.856 138.550  0.00  0.00    +0.000 A 
ATOM     10  C   UNL     1     113.386 125.246 137.282  0.00  0.00    +0.000 A 
ATOM     11  C   UNL     1     111.828 124.790 137.576  0.00  0.00    +0.000 A 
ATOM     12  C   UNL     1     112.281 124.376 137.026  0.00  0.00    +0.000 A 
ATOM     13  C   UNL     1     113.060 124.604 136.879  0.00  0.00    +0.000 A 
ENDROOT
BRANCH   7  14
ATOM     14  C   UNL     1     113.141 127.405 139.223  0.00  0.00    +0.000 A 
ATOM     15  C   UNL     1     113.030 128.171 138.937  0.00  0.00    +0.000 A 
ATOM     16  C   UNL     1     113.580 127.281 139.911  0.00  0.00    +0.000 A 
ATOM     17  C   UNL     1     113.907 127.923 140.313  0.00  0.00    +0.000 A 
ATOM     18  C   UNL     1     113.357 128.812 139.338  0.00  0.00    +0.000 A 
ATOM     19  C   UNL     1     113.796 128.688 140.027  0.00  0.00    +0.000 A 
BRANCH  17  20
ATOM     20  O   UNL     1     114.345 127.799 141.000  0.00  0.00    +0.000 OA
ATOM     21  C   UNL     1     114.746 127.087 141.113  0.00  0.00    +0.000 C 
ENDBRANCH  17  20
BRANCH  18  22
ATOM     22  O   UNL     1     113.246 129.578 139.052  0.00  0.00    +0.000 OA
ATOM     23  C   UNL     1     113.179 129.710 138.240  0.00  0.00    +0.000 C 
ENDBRANCH  18  22
BRANCH  19  24
ATOM     24  O   UNL     1     114.123 129.331 140.428  0.00  0.00    +0.000 OA
ATOM     25  C   UNL     1     113.687 129.719 141.011  0.00  0.00    +0.000 C 
ENDBRANCH  19  24
ENDBRANCH   7  14
BRANCH   8  26
ATOM     26  O   UNL     1     111.545 126.938 139.524  0.00  0.00    +0.000 OA
ATOM     27  C   UNL     1     110.925 126.558 139.913  0.00  0.00    +0.000 C 
ENDBRANCH   8  26
BRANCH  10  28
ATOM     28  O   UNL     1     114.165 125.474 137.135  0.00  0.00    +0.000 OA
ATOM     29  C   UNL     1     114.783 124.951 137.290  0.00  0.00    +0.000 C 
ENDBRANCH  10  28
BRANCH  12  30
ATOM     30  O   UNL     1     111.957 123.734 136.622  0.00  0.00    +0.000 OA
ATOM     31  C   UNL     1     111.982 122.981 136.956  0.00  0.00    +0.000 C 
ENDBRANCH  12  30
TORSDOF 7
ENDMDL
MODEL 5
REMARK VINA RESULT:      -7.0     12.095     13.284
REMARK  Name = 5386963
REMARK  7 active torsions:
REMARK  status: ('A' for Active; 'I' for Inactive)
REMARK    1  A    between atoms: O_2  and  C_15
REMARK    2  A    between atoms: O_3  and  C_17
REMARK    3  A    between atoms: O_4  and  C_19
REMARK    4  A    between atoms: O_8  and  C_23
REMARK    5  A    between atoms: O_9  and  C_24
REMARK    6  A    between atoms: O_10  and  C_25
REMARK    7  A    between atoms: C_13  and  C_14
REMARK                            x       y       z     vdW  Elec       q    Type
REMARK                         _______ _______ _______ _____ _____    ______ ____
ROOT
ATOM      1  O   UNL     1     104.482 124.950 147.011  0.00  0.00    +0.000 OA
ATOM      2  O   UNL     1     103.267 122.903 145.366  0.00  0.00    +0.000 OA
ATOM      3  O   UNL     1     104.493 123.521 144.921  0.00  0.00    +0.000 OA
ATOM      4  O   UNL     1     102.034 123.668 147.828  0.00  0.00    +0.000 OA
ATOM      5  C   UNL     1     103.865 123.913 146.179  0.00  0.00    +0.000 A 
ATOM      6  C   UNL     1     103.859 124.378 146.861  0.00  0.00    +0.000 A 
ATOM      7  C   UNL     1     105.120 125.041 146.443  0.00  0.00    +0.000 A 
ATOM      8  C   UNL     1     105.127 124.557 145.732  0.00  0.00    +0.000 A 
ATOM      9  C   UNL     1     104.494 123.989 145.600  0.00  0.00    +0.000 A 
ATOM     10  C   UNL     1     103.248 124.296 147.411  0.00  0.00    +0.000 A 
ATOM     11  C   UNL     1     103.261 123.367 146.047  0.00  0.00    +0.000 A 
ATOM     12  C   UNL     1     102.651 123.285 146.596  0.00  0.00    +0.000 A 
ATOM     13  C   UNL     1     102.645 123.750 147.278  0.00  0.00    +0.000 A 
ENDROOT
BRANCH   7  14
ATOM     14  C   UNL     1     105.723 125.588 146.578  0.00  0.00    +0.000 A 
ATOM     15  C   UNL     1     106.442 125.339 146.895  0.00  0.00    +0.000 A 
ATOM     16  C   UNL     1     105.606 126.384 146.395  0.00  0.00    +0.000 A 
ATOM     17  C   UNL     1     106.208 126.931 146.530  0.00  0.00    +0.000 A 
ATOM     18  C   UNL     1     107.045 125.885 147.030  0.00  0.00    +0.000 A 
ATOM     19  C   UNL     1     106.928 126.682 146.848  0.00  0.00    +0.000 A 
BRANCH  17  20
ATOM     20  O   UNL     1     106.092 127.727 146.347  0.00  0.00    +0.000 OA
ATOM     21  C   UNL     1     105.331 128.044 146.348  0.00  0.00    +0.000 C 
ENDBRANCH  17  20
BRANCH  18  22
ATOM     22  O   UNL     1     107.764 125.636 147.348  0.00  0.00    +0.000 OA
ATOM     23  C   UNL     1     107.778 125.047 147.926  0.00  0.00    +0.000 C 
ENDBRANCH  18  22
BRANCH  19  24
ATOM     24  O   UNL     1     107.531 127.228 146.983  0.00  0.00    +0.000 OA
ATOM     25  C   UNL     1     107.984 127.508 146.353  0.00  0.00    +0.000 C 
ENDBRANCH  19  24
ENDBRANCH   7  14
BRANCH   8  26
ATOM     26  O   UNL     1     105.735 124.636 145.181  0.00  0.00    +0.000 OA
ATOM     27  C   UNL     1     105.580 124.536 144.377  0.00  0.00    +0.000 C 
ENDBRANCH   8  26
BRANCH  10  28
ATOM     28  O   UNL     1     103.242 124.760 148.093  0.00  0.00    +0.000 OA
ATOM     29  C   UNL     1     103.284 124.404 148.835  0.00  0.00    +0.000 C 
ENDBRANCH  10  28
BRANCH  12  30
ATOM     30  O   UNL     1     102.047 122.739 146.464  0.00  0.00    +0.000 OA
ATOM     31  C   UNL     1     101.352 122.975 146.089  0.00  0.00    +0.000 C 
ENDBRANCH  12  30
TORSDOF 7
ENDMDL
MODEL 6
REMARK VINA RESULT:      -7.0      2.032      5.417
REMARK  Name = 5386963
REMARK  7 active torsions:
REMARK  status: ('A' for Active; 'I' for Inactive)
REMARK    1  A    between atoms: O_2  and  C_15
REMARK    2  A    between atoms: O_3  and  C_17
REMARK    3  A    between atoms: O_4  and  C_19
REMARK    4  A    between atoms: O_8  and  C_23
REMARK    5  A    between atoms: O_9  and  C_24
REMARK    6  A    between atoms: O_10  and  C_25
REMARK    7  A    between atoms: C_13  and  C_14
REMARK                            x       y       z     vdW  Elec       q    Type
REMARK                         _______ _______ _______ _____ _____    ______ ____
ROOT
ATOM      1  O   UNL     1     113.202 128.274 138.736  0.00  0.00    +0.000 OA
ATOM      2  O   UNL     1     113.636 129.413 141.361  0.00  0.00    +0.000 OA
ATOM      3  O   UNL     1     113.168 128.051 141.258  0.00  0.00    +0.000 OA
ATOM      4  O   UNL     1     114.134 130.985 139.026  0.00  0.00    +0.000 OA
ATOM      5  C   UNL     1     113.422 128.852 140.064  0.00  0.00    +0.000 A 
ATOM      6  C   UNL     1     113.434 128.928 139.243  0.00  0.00    +0.000 A 
ATOM      7  C   UNL     1     112.954 127.531 139.090  0.00  0.00    +0.000 A 
ATOM      8  C   UNL     1     112.941 127.452 139.946  0.00  0.00    +0.000 A 
ATOM      9  C   UNL     1     113.177 128.118 140.436  0.00  0.00    +0.000 A 
ATOM     10  C   UNL     1     113.671 129.639 138.896  0.00  0.00    +0.000 A 
ATOM     11  C   UNL     1     113.647 129.488 140.539  0.00  0.00    +0.000 A 
ATOM     12  C   UNL     1     113.884 130.198 140.194  0.00  0.00    +0.000 A 
ATOM     13  C   UNL     1     113.896 130.274 139.373  0.00  0.00    +0.000 A 
ENDROOT
BRANCH   7  14
ATOM     14  C   UNL     1     112.729 126.897 138.611  0.00  0.00    +0.000 A 
ATOM     15  C   UNL     1     113.284 126.327 138.394  0.00  0.00    +0.000 A 
ATOM     16  C   UNL     1     111.949 126.833 138.351  0.00  0.00    +0.000 A 
ATOM     17  C   UNL     1     111.724 126.200 137.873  0.00  0.00    +0.000 A 
ATOM     18  C   UNL     1     113.060 125.694 137.916  0.00  0.00    +0.000 A 
ATOM     19  C   UNL     1     112.279 125.630 137.655  0.00  0.00    +0.000 A 
BRANCH  17  20
ATOM     20  O   UNL     1     110.944 126.135 137.612  0.00  0.00    +0.000 OA
ATOM     21  C   UNL     1     110.479 126.811 137.530  0.00  0.00    +0.000 C 
ENDBRANCH  17  20
BRANCH  18  22
ATOM     22  O   UNL     1     113.616 125.124 137.699  0.00  0.00    +0.000 OA
ATOM     23  C   UNL     1     114.412 125.330 137.629  0.00  0.00    +0.000 C 
ENDBRANCH  18  22
BRANCH  19  24
ATOM     24  O   UNL     1     112.056 124.996 137.177  0.00  0.00    +0.000 OA
ATOM     25  C   UNL     1     111.736 124.315 137.516  0.00  0.00    +0.000 C 
ENDBRANCH  19  24
ENDBRANCH   7  14
BRANCH   8  26
ATOM     26  O   UNL     1     112.704 126.743 140.294  0.00  0.00    +0.000 OA
ATOM     27  C   UNL     1     112.379 126.744 141.052  0.00  0.00    +0.000 C 
ENDBRANCH   8  26
BRANCH  10  28
ATOM     28  O   UNL     1     113.683 129.714 138.075  0.00  0.00    +0.000 OA
ATOM     29  C   UNL     1     113.223 130.291 137.707  0.00  0.00    +0.000 C 
ENDBRANCH  10  28
BRANCH  12  30
ATOM     30  O   UNL     1     114.110 130.834 140.669  0.00  0.00    +0.000 OA
ATOM     31  C   UNL     1     114.905 130.952 140.852  0.00  0.00    +0.000 C 
ENDBRANCH  12  30
TORSDOF 7
ENDMDL
MODEL 7
REMARK VINA RESULT:      -7.0     10.744     12.029
REMARK  Name = 5386963
REMARK  7 active torsions:
REMARK  status: ('A' for Active; 'I' for Inactive)
REMARK    1  A    between atoms: O_2  and  C_15
REMARK    2  A    between atoms: O_3  and  C_17
REMARK    3  A    between atoms: O_4  and  C_19
REMARK    4  A    between atoms: O_8  and  C_23
REMARK    5  A    between atoms: O_9  and  C_24
REMARK    6  A    between atoms: O_10  and  C_25
REMARK    7  A    between atoms: C_13  and  C_14
REMARK                            x       y       z     vdW  Elec       q    Type
REMARK                         _______ _______ _______ _____ _____    ______ ____
ROOT
ATOM      1  O   UNL     1     106.389 126.161 145.387  0.00  0.00    +0.000 OA
ATOM      2  O   UNL     1     105.483 124.857 142.968  0.00  0.00    +0.000 OA
ATOM      3  O   UNL     1     105.176 124.255 144.243  0.00  0.00    +0.000 OA
ATOM      4  O   UNL     1     106.961 127.298 142.803  0.00  0.00    +0.000 OA
ATOM      5  C   UNL     1     105.931 125.502 144.161  0.00  0.00    +0.000 A 
ATOM      6  C   UNL     1     106.327 126.125 144.532  0.00  0.00    +0.000 A 
ATOM      7  C   UNL     1     106.034 125.541 145.865  0.00  0.00    +0.000 A 
ATOM      8  C   UNL     1     105.622 124.893 145.480  0.00  0.00    +0.000 A 
ATOM      9  C   UNL     1     105.570 124.874 144.622  0.00  0.00    +0.000 A 
ATOM     10  C   UNL     1     106.671 126.723 144.078  0.00  0.00    +0.000 A 
ATOM     11  C   UNL     1     105.879 125.479 143.338  0.00  0.00    +0.000 A 
ATOM     12  C   UNL     1     106.222 126.077 142.886  0.00  0.00    +0.000 A 
ATOM     13  C   UNL     1     106.618 126.699 143.256  0.00  0.00    +0.000 A 
ENDROOT
BRANCH   7  14
ATOM     14  C   UNL     1     106.088 125.567 146.688  0.00  0.00    +0.000 A 
ATOM     15  C   UNL     1     106.736 125.228 147.070  0.00  0.00    +0.000 A 
ATOM     16  C   UNL     1     105.495 125.933 147.129  0.00  0.00    +0.000 A 
ATOM     17  C   UNL     1     105.549 125.960 147.952  0.00  0.00    +0.000 A 
ATOM     18  C   UNL     1     106.791 125.254 147.892  0.00  0.00    +0.000 A 
ATOM     19  C   UNL     1     106.197 125.620 148.334  0.00  0.00    +0.000 A 
BRANCH  17  20
ATOM     20  O   UNL     1     104.956 126.325 148.394  0.00  0.00    +0.000 OA
ATOM     21  C   UNL     1     104.540 126.963 148.078  0.00  0.00    +0.000 C 
ENDBRANCH  17  20
BRANCH  18  22
ATOM     22  O   UNL     1     107.439 124.914 148.273  0.00  0.00    +0.000 OA
ATOM     23  C   UNL     1     108.188 124.955 147.930  0.00  0.00    +0.000 C 
ENDBRANCH  18  22
BRANCH  19  24
ATOM     24  O   UNL     1     106.252 125.646 149.156  0.00  0.00    +0.000 OA
ATOM     25  C   UNL     1     105.928 125.039 149.612  0.00  0.00    +0.000 C 
ENDBRANCH  19  24
ENDBRANCH   7  14
BRANCH   8  26
ATOM     26  O   UNL     1     105.278 124.293 145.930  0.00  0.00    +0.000 OA
ATOM     27  C   UNL     1     104.629 123.876 145.635  0.00  0.00    +0.000 C 
ENDBRANCH   8  26
BRANCH  10  28
ATOM     28  O   UNL     1     107.066 127.345 144.449  0.00  0.00    +0.000 OA
ATOM     29  C   UNL     1     106.799 128.119 144.352  0.00  0.00    +0.000 C 
ENDBRANCH  10  28
BRANCH  12  30
ATOM     30  O   UNL     1     106.169 126.054 142.062  0.00  0.00    +0.000 OA
ATOM     31  C   UNL     1     106.766 125.695 141.621  0.00  0.00    +0.000 C 
ENDBRANCH  12  30
TORSDOF 7
ENDMDL
MODEL 8
REMARK VINA RESULT:      -6.9      1.697      4.963
REMARK  Name = 5386963
REMARK  7 active torsions:
REMARK  status: ('A' for Active; 'I' for Inactive)
REMARK    1  A    between atoms: O_2  and  C_15
REMARK    2  A    between atoms: O_3  and  C_17
REMARK    3  A    between atoms: O_4  and  C_19
REMARK    4  A    between atoms: O_8  and  C_23
REMARK    5  A    between atoms: O_9  and  C_24
REMARK    6  A    between atoms: O_10  and  C_25
REMARK    7  A    between atoms: C_13  and  C_14
REMARK                            x       y       z     vdW  Elec       q    Type
REMARK                         _______ _______ _______ _____ _____    ______ ____
ROOT
ATOM      1  O   UNL     1     113.141 127.583 139.153  0.00  0.00    +0.000 OA
ATOM      2  O   UNL     1     113.590 130.375 138.540  0.00  0.00    +0.000 OA
ATOM      3  O   UNL     1     113.209 129.479 137.475  0.00  0.00    +0.000 OA
ATOM      4  O   UNL     1     113.904 129.438 141.221  0.00  0.00    +0.000 OA
ATOM      5  C   UNL     1     113.369 128.997 138.845  0.00  0.00    +0.000 A 
ATOM      6  C   UNL     1     113.348 128.381 139.393  0.00  0.00    +0.000 A 
ATOM      7  C   UNL     1     112.954 127.423 138.329  0.00  0.00    +0.000 A 
ATOM      8  C   UNL     1     112.977 128.065 137.757  0.00  0.00    +0.000 A 
ATOM      9  C   UNL     1     113.186 128.857 138.017  0.00  0.00    +0.000 A 
ATOM     10  C   UNL     1     113.526 128.528 140.186  0.00  0.00    +0.000 A 
ATOM     11  C   UNL     1     113.569 129.760 139.089  0.00  0.00    +0.000 A 
ATOM     12  C   UNL     1     113.747 129.907 139.880  0.00  0.00    +0.000 A 
ATOM     13  C   UNL     1     113.726 129.291 140.429  0.00  0.00    +0.000 A 
ENDROOT
BRANCH   7  14
ATOM     14  C   UNL     1     112.755 126.659 138.089  0.00  0.00    +0.000 A 
ATOM     15  C   UNL     1     111.967 126.414 138.105  0.00  0.00    +0.000 A 
ATOM     16  C   UNL     1     113.343 126.141 137.832  0.00  0.00    +0.000 A 
ATOM     17  C   UNL     1     113.144 125.377 137.591  0.00  0.00    +0.000 A 
ATOM     18  C   UNL     1     111.768 125.652 137.864  0.00  0.00    +0.000 A 
ATOM     19  C   UNL     1     112.356 125.132 137.607  0.00  0.00    +0.000 A 
BRANCH  17  20
ATOM     20  O   UNL     1     113.731 124.859 137.335  0.00  0.00    +0.000 OA
ATOM     21  C   UNL     1     114.516 124.982 137.555  0.00  0.00    +0.000 C 
ENDBRANCH  17  20
BRANCH  18  22
ATOM     22  O   UNL     1     110.980 125.407 137.880  0.00  0.00    +0.000 OA
ATOM     23  C   UNL     1     110.447 125.764 138.399  0.00  0.00    +0.000 C 
ENDBRANCH  18  22
BRANCH  19  24
ATOM     24  O   UNL     1     112.156 124.370 137.367  0.00  0.00    +0.000 OA
ATOM     25  C   UNL     1     111.959 124.222 136.580  0.00  0.00    +0.000 C 
ENDBRANCH  19  24
ENDBRANCH   7  14
BRANCH   8  26
ATOM     26  O   UNL     1     112.799 127.921 136.965  0.00  0.00    +0.000 OA
ATOM     27  C   UNL     1     113.101 128.415 136.378  0.00  0.00    +0.000 C 
ENDBRANCH   8  26
BRANCH  10  28
ATOM     28  O   UNL     1     113.505 127.912 140.735  0.00  0.00    +0.000 OA
ATOM     29  C   UNL     1     112.960 127.931 141.354  0.00  0.00    +0.000 C 
ENDBRANCH  10  28
BRANCH  12  30
ATOM     30  O   UNL     1     113.947 130.669 140.124  0.00  0.00    +0.000 OA
ATOM     31  C   UNL     1     114.739 130.879 140.216  0.00  0.00    +0.000 C 
ENDBRANCH  12  30
TORSDOF 7
ENDMDL
MODEL 9
REMARK VINA RESULT:      -6.9      1.816      4.662
REMARK  Name = 5386963
REMARK  7 active torsions:
REMARK  status: ('A' for Active; 'I' for Inactive)
REMARK    1  A    between atoms: O_2  and  C_15
REMARK    2  A    between atoms: O_3  and  C_17
REMARK    3  A    between atoms: O_4  and  C_19
REMARK    4  A    between atoms: O_8  and  C_23
REMARK    5  A    between atoms: O_9  and  C_24
REMARK    6  A    between atoms: O_10  and  C_25
REMARK    7  A    between atoms: C_13  and  C_14
REMARK                            x       y       z     vdW  Elec       q    Type
REMARK                         _______ _______ _______ _____ _____    ______ ____
ROOT
ATOM      1  O   UNL     1     110.761 127.665 136.450  0.00  0.00    +0.000 OA
ATOM      2  O   UNL     1     110.530 129.944 134.682  0.00  0.00    +0.000 OA
ATOM      3  O   UNL     1     111.837 129.384 134.934  0.00  0.00    +0.000 OA
ATOM      4  O   UNL     1     108.190 128.841 135.895  0.00  0.00    +0.000 OA
ATOM      5  C   UNL     1     110.642 128.819 135.555  0.00  0.00    +0.000 A 
ATOM      6  C   UNL     1     110.289 128.260 136.048  0.00  0.00    +0.000 A 
ATOM      7  C   UNL     1     111.613 127.651 136.336  0.00  0.00    +0.000 A 
ATOM      8  C   UNL     1     111.981 128.234 135.822  0.00  0.00    +0.000 A 
ATOM      9  C   UNL     1     111.492 128.821 135.429  0.00  0.00    +0.000 A 
ATOM     10  C   UNL     1     109.471 128.267 136.162  0.00  0.00    +0.000 A 
ATOM     11  C   UNL     1     110.177 129.385 135.175  0.00  0.00    +0.000 A 
ATOM     12  C   UNL     1     109.361 129.392 135.288  0.00  0.00    +0.000 A 
ATOM     13  C   UNL     1     109.008 128.833 135.782  0.00  0.00    +0.000 A 
ENDROOT
BRANCH   7  14
ATOM     14  C   UNL     1     112.074 127.084 136.718  0.00  0.00    +0.000 A 
ATOM     15  C   UNL     1     112.179 126.340 136.376  0.00  0.00    +0.000 A 
ATOM     16  C   UNL     1     112.431 127.260 137.440  0.00  0.00    +0.000 A 
ATOM     17  C   UNL     1     112.893 126.692 137.822  0.00  0.00    +0.000 A 
ATOM     18  C   UNL     1     112.640 125.773 136.757  0.00  0.00    +0.000 A 
ATOM     19  C   UNL     1     112.998 125.949 137.480  0.00  0.00    +0.000 A 
BRANCH  17  20
ATOM     20  O   UNL     1     113.250 126.867 138.544  0.00  0.00    +0.000 OA
ATOM     21  C   UNL     1     112.887 127.392 139.067  0.00  0.00    +0.000 C 
ENDBRANCH  17  20
BRANCH  18  22
ATOM     22  O   UNL     1     112.745 125.029 136.415  0.00  0.00    +0.000 OA
ATOM     23  C   UNL     1     112.104 124.637 136.075  0.00  0.00    +0.000 C 
ENDBRANCH  18  22
BRANCH  19  24
ATOM     24  O   UNL     1     113.459 125.380 137.860  0.00  0.00    +0.000 OA
ATOM     25  C   UNL     1     114.267 125.330 137.702  0.00  0.00    +0.000 C 
ENDBRANCH  19  24
ENDBRANCH   7  14
BRANCH   8  26
ATOM     26  O   UNL     1     112.798 128.229 135.707  0.00  0.00    +0.000 OA
ATOM     27  C   UNL     1     113.171 128.885 135.374  0.00  0.00    +0.000 C 
ENDBRANCH   8  26
BRANCH  10  28
ATOM     28  O   UNL     1     109.118 127.708 136.655  0.00  0.00    +0.000 OA
ATOM     29  C   UNL     1     108.622 127.132 136.337  0.00  0.00    +0.000 C 
ENDBRANCH  10  28
BRANCH  12  30
ATOM     30  O   UNL     1     108.896 129.959 134.908  0.00  0.00    +0.000 OA
ATOM     31  C   UNL     1     108.734 130.677 135.279  0.00  0.00    +0.000 C 
ENDBRANCH  12  30
TORSDOF 7
ENDMDL
MODEL 10
REMARK VINA RESULT:      -6.8      1.171      4.761
REMARK  Name = 5386963
REMARK  7 active torsions:
REMARK  status: ('A' for Active; 'I' for Inactive)
REMARK    1  A    between atoms: O_2  and  C_15
REMARK    2  A    between atoms: O_3  and  C_17
REMARK    3  A    between atoms: O_4  and  C_19
REMARK    4  A    between atoms: O_8  and  C_23
REMARK    5  A    between atoms: O_9  and  C_24
REMARK    6  A    between atoms: O_10  and  C_25
REMARK    7  A    between atoms: C_13  and  C_14
REMARK                            x       y       z     vdW  Elec       q    Type
REMARK                         _______ _______ _______ _____ _____    ______ ____
ROOT
ATOM      1  O   UNL     1     112.806 127.840 137.539  0.00  0.00    +0.000 OA
ATOM      2  O   UNL     1     112.161 130.224 136.031  0.00  0.00    +0.000 OA
ATOM      3  O   UNL     1     111.811 128.935 135.484  0.00  0.00    +0.000 OA
ATOM      4  O   UNL     1     113.470 130.450 138.561  0.00  0.00    +0.000 OA
ATOM      5  C   UNL     1     112.480 129.048 136.777  0.00  0.00    +0.000 A 
ATOM      6  C   UNL     1     112.805 128.694 137.448  0.00  0.00    +0.000 A 
ATOM      7  C   UNL     1     112.464 127.347 136.924  0.00  0.00    +0.000 A 
ATOM      8  C   UNL     1     112.125 127.716 136.225  0.00  0.00    +0.000 A 
ATOM      9  C   UNL     1     112.134 128.573 136.151  0.00  0.00    +0.000 A 
ATOM     10  C   UNL     1     113.135 129.162 138.043  0.00  0.00    +0.000 A 
ATOM     11  C   UNL     1     112.486 129.870 136.702  0.00  0.00    +0.000 A 
ATOM     12  C   UNL     1     112.815 130.337 137.296  0.00  0.00    +0.000 A 
ATOM     13  C   UNL     1     113.140 129.983 137.966  0.00  0.00    +0.000 A 
ENDROOT
BRANCH   7  14
ATOM     14  C   UNL     1     112.460 126.526 137.002  0.00  0.00    +0.000 A 
ATOM     15  C   UNL     1     113.079 126.079 136.690  0.00  0.00    +0.000 A 
ATOM     16  C   UNL     1     111.837 126.152 137.394  0.00  0.00    +0.000 A 
ATOM     17  C   UNL     1     111.834 125.330 137.472  0.00  0.00    +0.000 A 
ATOM     18  C   UNL     1     113.076 125.258 136.768  0.00  0.00    +0.000 A 
ATOM     19  C   UNL     1     112.453 124.883 137.160  0.00  0.00    +0.000 A 
BRANCH  17  20
ATOM     20  O   UNL     1     111.212 124.956 137.863  0.00  0.00    +0.000 OA
ATOM     21  C   UNL     1     110.777 125.363 138.434  0.00  0.00    +0.000 C 
ENDBRANCH  17  20
BRANCH  18  22
ATOM     22  O   UNL     1     113.695 124.811 136.456  0.00  0.00    +0.000 OA
ATOM     23  C   UNL     1     114.468 125.098 136.487  0.00  0.00    +0.000 C 
ENDBRANCH  18  22
BRANCH  19  24
ATOM     24  O   UNL     1     112.450 124.062 137.238  0.00  0.00    +0.000 OA
ATOM     25  C   UNL     1     112.062 123.595 136.679  0.00  0.00    +0.000 C 
ENDBRANCH  19  24
ENDBRANCH   7  14
BRANCH   8  26
ATOM     26  O   UNL     1     111.795 127.251 135.629  0.00  0.00    +0.000 OA
ATOM     27  C   UNL     1     111.212 127.565 135.136  0.00  0.00    +0.000 C 
ENDBRANCH   8  26
BRANCH  10  28
ATOM     28  O   UNL     1     113.460 128.807 138.713  0.00  0.00    +0.000 OA
ATOM     29  C   UNL     1     113.139 128.961 139.457  0.00  0.00    +0.000 C 
ENDBRANCH  10  28
BRANCH  12  30
ATOM     30  O   UNL     1     112.821 131.159 137.220  0.00  0.00    +0.000 OA
ATOM     31  C   UNL     1     113.460 131.536 136.863  0.00  0.00    +0.000 C 
ENDBRANCH  12  30
TORSDOF 7
ENDMDL
