MODEL 1
REMARK VINA RESULT:     -10.2      0.000      0.000
REMARK  Name = 44258370
REMARK  7 active torsions:
REMARK  status: ('A' for Active; 'I' for Inactive)
REMARK    1  A    between atoms: O_1  and  C_17
REMARK    2  A    between atoms: O_1  and  C_22
REMARK    3  A    between atoms: O_10  and  C_31
REMARK    4  A    between atoms: C_19  and  C_27
REMARK    5  A    between atoms: C_21  and  C_28
REMARK    6  A    between atoms: C_26  and  C_29
REMARK    7  A    between atoms: C_37  and  C_39
REMARK                            x       y       z     vdW  Elec       q    Type
REMARK                         _______ _______ _______ _____ _____    ______ ____
ROOT
ATOM      1  O   UNL     1     106.878 125.693 146.967  0.00  0.00    +0.000 OA
ATOM      2  O   UNL     1     105.048 124.464 148.095  0.00  0.00    +0.000 OA
ATOM      3  O   UNL     1     106.615 124.202 148.540  0.00  0.00    +0.000 OA
ATOM      4  C   UNL     1     105.484 125.414 147.120  0.00  0.00    +0.000 C 
ATOM      5  C   UNL     1     105.658 124.874 147.719  0.00  0.00    +0.000 C 
ATOM      6  C   UNL     1     106.094 125.824 146.744  0.00  0.00    +0.000 C 
ATOM      7  C   UNL     1     106.442 124.743 147.941  0.00  0.00    +0.000 C 
ATOM      8  C   UNL     1     107.051 125.152 147.565  0.00  0.00    +0.000 C 
ENDROOT
BRANCH   6  12
ATOM      9  O   UNL     1     106.266 125.386 145.162  0.00  0.00    +0.000 OA
ATOM     10  O   UNL     1     105.386 128.016 144.333  0.00  0.00    +0.000 OA
ATOM     11  O   UNL     1     106.185 125.684 143.754  0.00  0.00    +0.000 OA
ATOM     12  C   UNL     1     105.919 126.365 146.146  0.00  0.00    +0.000 A 
ATOM     13  C   UNL     1     106.005 126.145 145.354  0.00  0.00    +0.000 A 
ATOM     14  C   UNL     1     105.659 127.124 146.338  0.00  0.00    +0.000 A 
ATOM     15  C   UNL     1     105.831 126.686 144.756  0.00  0.00    +0.000 A 
ATOM     16  C   UNL     1     105.485 127.663 145.738  0.00  0.00    +0.000 A 
ATOM     17  C   UNL     1     105.570 127.444 144.948  0.00  0.00    +0.000 A 
ATOM     18  C   UNL     1     105.924 126.446 143.936  0.00  0.00    +0.000 A 
ATOM     19  C   UNL     1     105.744 127.002 143.308  0.00  0.00    +0.000 A 
ATOM     20  C   UNL     1     105.473 127.794 143.508  0.00  0.00    +0.000 A 
BRANCH  20  23
ATOM     21  O   UNL     1     106.338 129.529 141.408  0.00  0.00    +0.000 OA
ATOM     22  O   UNL     1     104.771 129.962 141.120  0.00  0.00    +0.000 OA
ATOM     23  C   UNL     1     105.298 128.336 142.911  0.00  0.00    +0.000 A 
ATOM     24  C   UNL     1     105.906 128.661 142.458  0.00  0.00    +0.000 A 
ATOM     25  C   UNL     1     104.515 128.552 142.767  0.00  0.00    +0.000 A 
ATOM     26  C   UNL     1     105.730 129.203 141.861  0.00  0.00    +0.000 A 
ATOM     27  C   UNL     1     104.340 129.094 142.170  0.00  0.00    +0.000 A 
ATOM     28  C   UNL     1     104.947 129.420 141.717  0.00  0.00    +0.000 A 
ENDBRANCH  20  23
BRANCH  14  29
ATOM     29  O   UNL     1     105.573 127.342 147.128  0.00  0.00    +0.000 OA
ATOM     30  C   UNL     1     105.496 128.139 147.329  0.00  0.00    +0.000 C 
ENDBRANCH  14  29
ENDBRANCH   6  12
BRANCH   8  32
ATOM     31  O   UNL     1     108.437 125.489 147.473  0.00  0.00    +0.000 OA
ATOM     32  C   UNL     1     107.834 125.021 147.788  0.00  0.00    +0.000 C 
ENDBRANCH   8  32
BRANCH   4  33
ATOM     33  O   UNL     1     104.700 125.545 146.898  0.00  0.00    +0.000 OA
BRANCH  33  38
ATOM     34  O   UNL     1     104.458 124.264 146.315  0.00  0.00    +0.000 OA
ATOM     35  O   UNL     1     103.174 125.550 147.524  0.00  0.00    +0.000 OA
ATOM     36  O   UNL     1     102.168 124.270 147.254  0.00  0.00    +0.000 OA
ATOM     37  O   UNL     1     102.689 122.987 146.358  0.00  0.00    +0.000 OA
ATOM     38  C   UNL     1     104.198 124.906 146.763  0.00  0.00    +0.000 C 
ATOM     39  C   UNL     1     103.435 124.908 147.076  0.00  0.00    +0.000 C 
ATOM     40  C   UNL     1     102.931 124.268 146.941  0.00  0.00    +0.000 C 
ATOM     41  C   UNL     1     103.192 123.626 146.493  0.00  0.00    +0.000 C 
ATOM     42  C   UNL     1     103.955 123.624 146.180  0.00  0.00    +0.000 C 
BRANCH  42  44
ATOM     43  O   UNL     1     104.432 123.090 144.943  0.00  0.00    +0.000 OA
ATOM     44  C   UNL     1     104.215 122.983 145.732  0.00  0.00    +0.000 C 
ENDBRANCH  42  44
ENDBRANCH  33  38
ENDBRANCH   4  33
TORSDOF 7
ENDMDL
MODEL 2
REMARK VINA RESULT:     -10.1      7.156     10.140
REMARK  Name = 44258370
REMARK  7 active torsions:
REMARK  status: ('A' for Active; 'I' for Inactive)
REMARK    1  A    between atoms: O_1  and  C_17
REMARK    2  A    between atoms: O_1  and  C_22
REMARK    3  A    between atoms: O_10  and  C_31
REMARK    4  A    between atoms: C_19  and  C_27
REMARK    5  A    between atoms: C_21  and  C_28
REMARK    6  A    between atoms: C_26  and  C_29
REMARK    7  A    between atoms: C_37  and  C_39
REMARK                            x       y       z     vdW  Elec       q    Type
REMARK                         _______ _______ _______ _____ _____    ______ ____
ROOT
ATOM      1  O   UNL     1     110.163 130.958 141.942  0.00  0.00    +0.000 OA
ATOM      2  O   UNL     1     111.935 130.660 140.238  0.00  0.00    +0.000 OA
ATOM      3  O   UNL     1     110.346 130.597 139.796  0.00  0.00    +0.000 OA
ATOM      4  C   UNL     1     111.548 130.890 141.595  0.00  0.00    +0.000 C 
ATOM      5  C   UNL     1     111.344 130.760 140.806  0.00  0.00    +0.000 C 
ATOM      6  C   UNL     1     110.958 130.990 142.163  0.00  0.00    +0.000 C 
ATOM      7  C   UNL     1     110.550 130.728 140.585  0.00  0.00    +0.000 C 
ATOM      8  C   UNL     1     109.960 130.827 141.153  0.00  0.00    +0.000 C 
ENDROOT
BRANCH   6  12
ATOM      9  O   UNL     1     111.487 132.478 142.640  0.00  0.00    +0.000 OA
ATOM     10  O   UNL     1     111.782 131.509 145.352  0.00  0.00    +0.000 OA
ATOM     11  O   UNL     1     111.963 133.382 143.658  0.00  0.00    +0.000 OA
ATOM     12  C   UNL     1     111.162 131.121 142.951  0.00  0.00    +0.000 A 
ATOM     13  C   UNL     1     111.427 131.865 143.190  0.00  0.00    +0.000 A 
ATOM     14  C   UNL     1     111.102 130.508 143.500  0.00  0.00    +0.000 A 
ATOM     15  C   UNL     1     111.632 131.996 143.978  0.00  0.00    +0.000 A 
ATOM     16  C   UNL     1     111.307 130.641 144.289  0.00  0.00    +0.000 A 
ATOM     17  C   UNL     1     111.571 131.384 144.528  0.00  0.00    +0.000 A 
ATOM     18  C   UNL     1     111.907 132.776 144.215  0.00  0.00    +0.000 A 
ATOM     19  C   UNL     1     112.121 132.919 145.033  0.00  0.00    +0.000 A 
ATOM     20  C   UNL     1     112.058 132.281 145.606  0.00  0.00    +0.000 A 
BRANCH  20  23
ATOM     21  O   UNL     1     111.482 133.438 148.155  0.00  0.00    +0.000 OA
ATOM     22  O   UNL     1     112.875 132.796 148.762  0.00  0.00    +0.000 OA
ATOM     23  C   UNL     1     112.262 132.410 146.395  0.00  0.00    +0.000 A 
ATOM     24  C   UNL     1     111.770 132.860 146.881  0.00  0.00    +0.000 A 
ATOM     25  C   UNL     1     112.959 132.089 146.699  0.00  0.00    +0.000 A 
ATOM     26  C   UNL     1     111.974 132.988 147.670  0.00  0.00    +0.000 A 
ATOM     27  C   UNL     1     113.163 132.218 147.488  0.00  0.00    +0.000 A 
ATOM     28  C   UNL     1     112.671 132.667 147.973  0.00  0.00    +0.000 A 
ENDBRANCH  20  23
BRANCH  14  29
ATOM     29  O   UNL     1     110.837 129.765 143.262  0.00  0.00    +0.000 OA
ATOM     30  C   UNL     1     110.590 129.215 143.825  0.00  0.00    +0.000 C 
ENDBRANCH  14  29
ENDBRANCH   6  12
BRANCH   8  32
ATOM     31  O   UNL     1     108.616 131.291 141.295  0.00  0.00    +0.000 OA
ATOM     32  C   UNL     1     109.166 130.795 140.932  0.00  0.00    +0.000 C 
ENDBRANCH   8  32
BRANCH   4  33
ATOM     33  O   UNL     1     112.343 130.922 141.815  0.00  0.00    +0.000 OA
BRANCH  33  38
ATOM     34  O   UNL     1     112.640 129.568 141.469  0.00  0.00    +0.000 OA
ATOM     35  O   UNL     1     113.867 131.371 141.373  0.00  0.00    +0.000 OA
ATOM     36  O   UNL     1     114.928 130.241 140.804  0.00  0.00    +0.000 OA
ATOM     37  O   UNL     1     114.463 128.664 140.679  0.00  0.00    +0.000 OA
ATOM     38  C   UNL     1     112.872 130.358 141.532  0.00  0.00    +0.000 C 
ATOM     39  C   UNL     1     113.635 130.582 141.310  0.00  0.00    +0.000 C 
ATOM     40  C   UNL     1     114.165 130.017 141.026  0.00  0.00    +0.000 C 
ATOM     41  C   UNL     1     113.932 129.228 140.963  0.00  0.00    +0.000 C 
ATOM     42  C   UNL     1     113.170 129.004 141.185  0.00  0.00    +0.000 C 
BRANCH  42  44
ATOM     43  O   UNL     1     112.782 127.775 141.802  0.00  0.00    +0.000 OA
ATOM     44  C   UNL     1     112.938 128.215 141.122  0.00  0.00    +0.000 C 
ENDBRANCH  42  44
ENDBRANCH  33  38
ENDBRANCH   4  33
TORSDOF 7
ENDMDL
MODEL 3
REMARK VINA RESULT:      -9.9      1.789      5.890
REMARK  Name = 44258370
REMARK  7 active torsions:
REMARK  status: ('A' for Active; 'I' for Inactive)
REMARK    1  A    between atoms: O_1  and  C_17
REMARK    2  A    between atoms: O_1  and  C_22
REMARK    3  A    between atoms: O_10  and  C_31
REMARK    4  A    between atoms: C_19  and  C_27
REMARK    5  A    between atoms: C_21  and  C_28
REMARK    6  A    between atoms: C_26  and  C_29
REMARK    7  A    between atoms: C_37  and  C_39
REMARK                            x       y       z     vdW  Elec       q    Type
REMARK                         _______ _______ _______ _____ _____    ______ ____
ROOT
ATOM      1  O   UNL     1     105.162 128.215 143.457  0.00  0.00    +0.000 OA
ATOM      2  O   UNL     1     106.475 127.833 141.393  0.00  0.00    +0.000 OA
ATOM      3  O   UNL     1     105.089 128.727 141.335  0.00  0.00    +0.000 OA
ATOM      4  C   UNL     1     106.293 127.640 142.797  0.00  0.00    +0.000 C 
ATOM      5  C   UNL     1     106.037 127.960 142.081  0.00  0.00    +0.000 C 
ATOM      6  C   UNL     1     105.855 127.768 143.485  0.00  0.00    +0.000 C 
ATOM      7  C   UNL     1     105.344 128.408 142.052  0.00  0.00    +0.000 C 
ATOM      8  C   UNL     1     104.907 128.535 142.740  0.00  0.00    +0.000 C 
ENDROOT
BRANCH   6  12
ATOM      9  O   UNL     1     105.211 126.350 144.031  0.00  0.00    +0.000 OA
ATOM     10  O   UNL     1     106.896 126.483 146.381  0.00  0.00    +0.000 OA
ATOM     11  O   UNL     1     105.124 125.298 145.014  0.00  0.00    +0.000 OA
ATOM     12  C   UNL     1     106.111 127.448 144.201  0.00  0.00    +0.000 A 
ATOM     13  C   UNL     1     105.788 126.739 144.474  0.00  0.00    +0.000 A 
ATOM     14  C   UNL     1     106.688 127.836 144.644  0.00  0.00    +0.000 A 
ATOM     15  C   UNL     1     106.044 126.419 145.190  0.00  0.00    +0.000 A 
ATOM     16  C   UNL     1     106.943 127.515 145.360  0.00  0.00    +0.000 A 
ATOM     17  C   UNL     1     106.621 126.807 145.633  0.00  0.00    +0.000 A 
ATOM     18  C   UNL     1     105.701 125.680 145.464  0.00  0.00    +0.000 A 
ATOM     19  C   UNL     1     105.962 125.341 146.208  0.00  0.00    +0.000 A 
ATOM     20  C   UNL     1     106.564 125.745 146.670  0.00  0.00    +0.000 A 
BRANCH  20  23
ATOM     21  O   UNL     1     108.659 124.676 148.294  0.00  0.00    +0.000 OA
ATOM     22  O   UNL     1     107.592 124.472 149.536  0.00  0.00    +0.000 OA
ATOM     23  C   UNL     1     106.821 125.427 147.386  0.00  0.00    +0.000 A 
ATOM     24  C   UNL     1     107.612 125.211 147.481  0.00  0.00    +0.000 A 
ATOM     25  C   UNL     1     106.288 125.325 148.007  0.00  0.00    +0.000 A 
ATOM     26  C   UNL     1     107.868 124.892 148.199  0.00  0.00    +0.000 A 
ATOM     27  C   UNL     1     106.545 125.007 148.724  0.00  0.00    +0.000 A 
ATOM     28  C   UNL     1     107.335 124.790 148.820  0.00  0.00    +0.000 A 
ENDBRANCH  20  23
BRANCH  14  29
ATOM     29  O   UNL     1     107.010 128.545 144.371  0.00  0.00    +0.000 OA
ATOM     30  C   UNL     1     107.459 129.016 144.878  0.00  0.00    +0.000 C 
ENDBRANCH  14  29
ENDBRANCH   6  12
BRANCH   8  32
ATOM     31  O   UNL     1     104.021 129.485 143.336  0.00  0.00    +0.000 OA
ATOM     32  C   UNL     1     104.215 128.982 142.711  0.00  0.00    +0.000 C 
ENDBRANCH   8  32
BRANCH   4  33
ATOM     33  O   UNL     1     106.985 127.193 142.825  0.00  0.00    +0.000 OA
BRANCH  33  38
ATOM     34  O   UNL     1     106.478 126.128 142.018  0.00  0.00    +0.000 OA
ATOM     35  O   UNL     1     108.502 126.916 142.237  0.00  0.00    +0.000 OA
ATOM     36  O   UNL     1     108.753 125.713 141.136  0.00  0.00    +0.000 OA
ATOM     37  O   UNL     1     107.488 124.788 140.624  0.00  0.00    +0.000 OA
ATOM     38  C   UNL     1     107.110 126.592 142.275  0.00  0.00    +0.000 C 
ATOM     39  C   UNL     1     107.869 126.454 141.981  0.00  0.00    +0.000 C 
ATOM     40  C   UNL     1     107.995 125.852 141.430  0.00  0.00    +0.000 C 
ATOM     41  C   UNL     1     107.362 125.389 141.174  0.00  0.00    +0.000 C 
ATOM     42  C   UNL     1     106.603 125.527 141.468  0.00  0.00    +0.000 C 
BRANCH  42  44
ATOM     43  O   UNL     1     105.591 124.556 141.739  0.00  0.00    +0.000 OA
ATOM     44  C   UNL     1     105.971 125.065 141.212  0.00  0.00    +0.000 C 
ENDBRANCH  42  44
ENDBRANCH  33  38
ENDBRANCH   4  33
TORSDOF 7
ENDMDL
MODEL 4
REMARK VINA RESULT:      -9.9      7.557     10.158
REMARK  Name = 44258370
REMARK  7 active torsions:
REMARK  status: ('A' for Active; 'I' for Inactive)
REMARK    1  A    between atoms: O_1  and  C_17
REMARK    2  A    between atoms: O_1  and  C_22
REMARK    3  A    between atoms: O_10  and  C_31
REMARK    4  A    between atoms: C_19  and  C_27
REMARK    5  A    between atoms: C_21  and  C_28
REMARK    6  A    between atoms: C_26  and  C_29
REMARK    7  A    between atoms: C_37  and  C_39
REMARK                            x       y       z     vdW  Elec       q    Type
REMARK                         _______ _______ _______ _____ _____    ______ ____
ROOT
ATOM      1  O   UNL     1     114.058 129.497 140.217  0.00  0.00    +0.000 OA
ATOM      2  O   UNL     1     112.663 129.983 142.204  0.00  0.00    +0.000 OA
ATOM      3  O   UNL     1     113.834 131.048 141.737  0.00  0.00    +0.000 OA
ATOM      4  C   UNL     1     113.008 129.126 141.113  0.00  0.00    +0.000 C 
ATOM      5  C   UNL     1     113.129 129.821 141.541  0.00  0.00    +0.000 C 
ATOM      6  C   UNL     1     113.473 128.964 140.451  0.00  0.00    +0.000 C 
ATOM      7  C   UNL     1     113.714 130.353 141.308  0.00  0.00    +0.000 C 
ATOM      8  C   UNL     1     114.178 130.191 140.646  0.00  0.00    +0.000 C 
ENDROOT
BRANCH   6  12
ATOM      9  O   UNL     1     112.588 128.997 139.058  0.00  0.00    +0.000 OA
ATOM     10  O   UNL     1     112.991 126.150 138.728  0.00  0.00    +0.000 OA
ATOM     11  O   UNL     1     112.008 128.338 137.915  0.00  0.00    +0.000 OA
ATOM     12  C   UNL     1     113.352 128.269 140.023  0.00  0.00    +0.000 A 
ATOM     13  C   UNL     1     112.909 128.286 139.326  0.00  0.00    +0.000 A 
ATOM     14  C   UNL     1     113.674 127.558 140.290  0.00  0.00    +0.000 A 
ATOM     15  C   UNL     1     112.789 127.592 138.898  0.00  0.00    +0.000 A 
ATOM     16  C   UNL     1     113.552 126.864 139.861  0.00  0.00    +0.000 A 
ATOM     17  C   UNL     1     113.110 126.880 139.165  0.00  0.00    +0.000 A 
ATOM     18  C   UNL     1     112.326 127.622 138.174  0.00  0.00    +0.000 A 
ATOM     19  C   UNL     1     112.196 126.903 137.723  0.00  0.00    +0.000 A 
ATOM     20  C   UNL     1     112.531 126.161 138.002  0.00  0.00    +0.000 A 
BRANCH  20  23
ATOM     21  O   UNL     1     113.459 124.221 136.121  0.00  0.00    +0.000 OA
ATOM     22  O   UNL     1     112.051 123.377 136.296  0.00  0.00    +0.000 OA
ATOM     23  C   UNL     1     112.411 125.465 137.576  0.00  0.00    +0.000 A 
ATOM     24  C   UNL     1     112.995 125.191 137.061  0.00  0.00    +0.000 A 
ATOM     25  C   UNL     1     111.708 125.044 137.663  0.00  0.00    +0.000 A 
ATOM     26  C   UNL     1     112.875 124.495 136.635  0.00  0.00    +0.000 A 
ATOM     27  C   UNL     1     111.588 124.348 137.237  0.00  0.00    +0.000 A 
ATOM     28  C   UNL     1     112.171 124.073 136.723  0.00  0.00    +0.000 A 
ENDBRANCH  20  23
BRANCH  14  29
ATOM     29  O   UNL     1     114.116 127.542 140.986  0.00  0.00    +0.000 OA
ATOM     30  C   UNL     1     114.586 126.886 141.160  0.00  0.00    +0.000 C 
ENDBRANCH  14  29
ENDBRANCH   6  12
BRANCH   8  32
ATOM     31  O   UNL     1     115.522 130.453 140.237  0.00  0.00    +0.000 OA
ATOM     32  C   UNL     1     114.763 130.724 140.412  0.00  0.00    +0.000 C 
ENDBRANCH   8  32
BRANCH   4  33
ATOM     33  O   UNL     1     112.423 128.593 141.347  0.00  0.00    +0.000 OA
BRANCH  33  38
ATOM     34  O   UNL     1     111.316 129.455 141.072  0.00  0.00    +0.000 OA
ATOM     35  O   UNL     1     111.611 127.962 142.638  0.00  0.00    +0.000 OA
ATOM     36  O   UNL     1     110.099 128.508 143.008  0.00  0.00    +0.000 OA
ATOM     37  O   UNL     1     109.399 129.685 142.089  0.00  0.00    +0.000 OA
ATOM     38  C   UNL     1     111.667 128.866 141.532  0.00  0.00    +0.000 C 
ATOM     39  C   UNL     1     111.262 128.551 142.177  0.00  0.00    +0.000 C 
ATOM     40  C   UNL     1     110.505 128.824 142.363  0.00  0.00    +0.000 C 
ATOM     41  C   UNL     1     110.155 129.412 141.903  0.00  0.00    +0.000 C 
ATOM     42  C   UNL     1     110.561 129.728 141.258  0.00  0.00    +0.000 C 
BRANCH  42  44
ATOM     43  O   UNL     1     110.017 130.164 140.010  0.00  0.00    +0.000 OA
ATOM     44  C   UNL     1     110.210 130.316 140.798  0.00  0.00    +0.000 C 
ENDBRANCH  42  44
ENDBRANCH  33  38
ENDBRANCH   4  33
TORSDOF 7
ENDMDL
MODEL 5
REMARK VINA RESULT:      -9.9      8.409     10.724
REMARK  Name = 44258370
REMARK  7 active torsions:
REMARK  status: ('A' for Active; 'I' for Inactive)
REMARK    1  A    between atoms: O_1  and  C_17
REMARK    2  A    between atoms: O_1  and  C_22
REMARK    3  A    between atoms: O_10  and  C_31
REMARK    4  A    between atoms: C_19  and  C_27
REMARK    5  A    between atoms: C_21  and  C_28
REMARK    6  A    between atoms: C_26  and  C_29
REMARK    7  A    between atoms: C_37  and  C_39
REMARK                            x       y       z     vdW  Elec       q    Type
REMARK                         _______ _______ _______ _____ _____    ______ ____
ROOT
ATOM      1  O   UNL     1     113.480 125.690 137.374  0.00  0.00    +0.000 OA
ATOM      2  O   UNL     1     111.278 124.633 137.779  0.00  0.00    +0.000 OA
ATOM      3  O   UNL     1     112.365 123.914 136.767  0.00  0.00    +0.000 OA
ATOM      4  C   UNL     1     112.202 125.697 138.015  0.00  0.00    +0.000 C 
ATOM      5  C   UNL     1     112.012 124.986 137.644  0.00  0.00    +0.000 C 
ATOM      6  C   UNL     1     112.937 126.049 137.880  0.00  0.00    +0.000 C 
ATOM      7  C   UNL     1     112.556 124.626 137.138  0.00  0.00    +0.000 C 
ATOM      8  C   UNL     1     113.289 124.978 137.003  0.00  0.00    +0.000 C 
ENDROOT
BRANCH   6  12
ATOM      9  O   UNL     1     113.345 126.061 139.479  0.00  0.00    +0.000 OA
ATOM     10  O   UNL     1     113.702 128.932 139.371  0.00  0.00    +0.000 OA
ATOM     11  O   UNL     1     113.743 126.761 140.675  0.00  0.00    +0.000 OA
ATOM     12  C   UNL     1     113.127 126.761 138.251  0.00  0.00    +0.000 A 
ATOM     13  C   UNL     1     113.331 126.767 139.051  0.00  0.00    +0.000 A 
ATOM     14  C   UNL     1     113.112 127.467 137.824  0.00  0.00    +0.000 A 
ATOM     15  C   UNL     1     113.521 127.479 139.422  0.00  0.00    +0.000 A 
ATOM     16  C   UNL     1     113.302 128.178 138.196  0.00  0.00    +0.000 A 
ATOM     17  C   UNL     1     113.506 128.184 138.995  0.00  0.00    +0.000 A 
ATOM     18  C   UNL     1     113.732 127.472 140.256  0.00  0.00    +0.000 A 
ATOM     19  C   UNL     1     113.931 128.209 140.649  0.00  0.00    +0.000 A 
ATOM     20  C   UNL     1     113.916 128.944 140.203  0.00  0.00    +0.000 A 
BRANCH  20  23
ATOM     21  O   UNL     1     113.181 131.129 141.893  0.00  0.00    +0.000 OA
ATOM     22  O   UNL     1     114.675 131.796 141.681  0.00  0.00    +0.000 OA
ATOM     23  C   UNL     1     114.105 129.657 140.573  0.00  0.00    +0.000 A 
ATOM     24  C   UNL     1     113.548 130.036 141.048  0.00  0.00    +0.000 A 
ATOM     25  C   UNL     1     114.852 129.991 140.467  0.00  0.00    +0.000 A 
ATOM     26  C   UNL     1     113.738 130.750 141.418  0.00  0.00    +0.000 A 
ATOM     27  C   UNL     1     115.042 130.704 140.836  0.00  0.00    +0.000 A 
ATOM     28  C   UNL     1     114.485 131.083 141.312  0.00  0.00    +0.000 A 
ENDBRANCH  20  23
BRANCH  14  29
ATOM     29  O   UNL     1     112.908 127.461 137.025  0.00  0.00    +0.000 OA
ATOM     30  C   UNL     1     113.094 128.107 136.547  0.00  0.00    +0.000 C 
ENDBRANCH  14  29
ENDBRANCH   6  12
BRANCH   8  32
ATOM     31  O   UNL     1     114.638 124.647 136.669  0.00  0.00    +0.000 OA
ATOM     32  C   UNL     1     113.832 124.618 136.497  0.00  0.00    +0.000 C 
ENDBRANCH   8  32
BRANCH   4  33
ATOM     33  O   UNL     1     111.659 126.057 138.521  0.00  0.00    +0.000 OA
BRANCH  33  38
ATOM     34  O   UNL     1     110.710 126.347 137.493  0.00  0.00    +0.000 OA
ATOM     35  O   UNL     1     110.430 125.898 139.611  0.00  0.00    +0.000 OA
ATOM     36  O   UNL     1     108.867 126.108 139.127  0.00  0.00    +0.000 OA
ATOM     37  O   UNL     1     108.532 126.477 137.555  0.00  0.00    +0.000 OA
ATOM     38  C   UNL     1     110.878 126.162 138.279  0.00  0.00    +0.000 C 
ATOM     39  C   UNL     1     110.263 126.083 138.824  0.00  0.00    +0.000 C 
ATOM     40  C   UNL     1     109.481 126.188 138.582  0.00  0.00    +0.000 C 
ATOM     41  C   UNL     1     109.314 126.372 137.796  0.00  0.00    +0.000 C 
ATOM     42  C   UNL     1     109.929 126.452 137.251  0.00  0.00    +0.000 C 
BRANCH  42  44
ATOM     43  O   UNL     1     109.939 127.386 136.170  0.00  0.00    +0.000 OA
ATOM     44  C   UNL     1     109.761 126.636 136.465  0.00  0.00    +0.000 C 
ENDBRANCH  42  44
ENDBRANCH  33  38
ENDBRANCH   4  33
TORSDOF 7
ENDMDL
MODEL 6
REMARK VINA RESULT:      -9.8      7.193      9.978
REMARK  Name = 44258370
REMARK  7 active torsions:
REMARK  status: ('A' for Active; 'I' for Inactive)
REMARK    1  A    between atoms: O_1  and  C_17
REMARK    2  A    between atoms: O_1  and  C_22
REMARK    3  A    between atoms: O_10  and  C_31
REMARK    4  A    between atoms: C_19  and  C_27
REMARK    5  A    between atoms: C_21  and  C_28
REMARK    6  A    between atoms: C_26  and  C_29
REMARK    7  A    between atoms: C_37  and  C_39
REMARK                            x       y       z     vdW  Elec       q    Type
REMARK                         _______ _______ _______ _____ _____    ______ ____
ROOT
ATOM      1  O   UNL     1     111.071 126.384 136.511  0.00  0.00    +0.000 OA
ATOM      2  O   UNL     1     111.515 125.140 138.605  0.00  0.00    +0.000 OA
ATOM      3  O   UNL     1     111.258 124.319 137.197  0.00  0.00    +0.000 OA
ATOM      4  C   UNL     1     111.347 126.379 137.913  0.00  0.00    +0.000 C 
ATOM      5  C   UNL     1     111.366 125.554 137.906  0.00  0.00    +0.000 C 
ATOM      6  C   UNL     1     111.199 126.794 137.215  0.00  0.00    +0.000 C 
ATOM      7  C   UNL     1     111.238 125.144 137.202  0.00  0.00    +0.000 C 
ATOM      8  C   UNL     1     111.090 125.559 136.505  0.00  0.00    +0.000 C 
ENDROOT
BRANCH   6  12
ATOM      9  O   UNL     1     109.752 127.583 137.286  0.00  0.00    +0.000 OA
ATOM     10  O   UNL     1     111.132 130.128 137.243  0.00  0.00    +0.000 OA
ATOM     11  O   UNL     1     108.978 128.800 137.330  0.00  0.00    +0.000 OA
ATOM     12  C   UNL     1     111.180 127.618 137.222  0.00  0.00    +0.000 A 
ATOM     13  C   UNL     1     110.456 128.013 137.257  0.00  0.00    +0.000 A 
ATOM     14  C   UNL     1     111.883 128.048 137.194  0.00  0.00    +0.000 A 
ATOM     15  C   UNL     1     110.436 128.838 137.264  0.00  0.00    +0.000 A 
ATOM     16  C   UNL     1     111.863 128.873 137.201  0.00  0.00    +0.000 A 
ATOM     17  C   UNL     1     111.140 129.268 137.236  0.00  0.00    +0.000 A 
ATOM     18  C   UNL     1     109.676 129.238 137.301  0.00  0.00    +0.000 A 
ATOM     19  C   UNL     1     109.648 130.096 137.309  0.00  0.00    +0.000 A 
ATOM     20  C   UNL     1     110.382 130.544 137.279  0.00  0.00    +0.000 A 
BRANCH  20  23
ATOM     21  O   UNL     1     110.262 133.006 138.727  0.00  0.00    +0.000 OA
ATOM     22  O   UNL     1     110.313 133.844 137.306  0.00  0.00    +0.000 OA
ATOM     23  C   UNL     1     110.365 131.369 137.286  0.00  0.00    +0.000 A 
ATOM     24  C   UNL     1     110.322 131.775 138.003  0.00  0.00    +0.000 A 
ATOM     25  C   UNL     1     110.390 131.788 136.576  0.00  0.00    +0.000 A 
ATOM     26  C   UNL     1     110.305 132.600 138.010  0.00  0.00    +0.000 A 
ATOM     27  C   UNL     1     110.373 132.613 136.583  0.00  0.00    +0.000 A 
ATOM     28  C   UNL     1     110.331 133.019 137.299  0.00  0.00    +0.000 A 
ENDBRANCH  20  23
BRANCH  14  29
ATOM     29  O   UNL     1     112.606 127.654 137.158  0.00  0.00    +0.000 OA
ATOM     30  C   UNL     1     113.289 128.062 136.940  0.00  0.00    +0.000 C 
ENDBRANCH  14  29
ENDBRANCH   6  12
BRANCH   8  32
ATOM     31  O   UNL     1     110.901 125.560 135.089  0.00  0.00    +0.000 OA
ATOM     32  C   UNL     1     110.962 125.148 135.801  0.00  0.00    +0.000 C 
ENDBRANCH   8  32
BRANCH   4  33
ATOM     33  O   UNL     1     111.476 126.789 138.618  0.00  0.00    +0.000 OA
BRANCH  33  38
ATOM     34  O   UNL     1     110.290 126.338 139.276  0.00  0.00    +0.000 OA
ATOM     35  O   UNL     1     112.282 126.771 140.057  0.00  0.00    +0.000 OA
ATOM     36  O   UNL     1     111.500 126.310 141.435  0.00  0.00    +0.000 OA
ATOM     37  O   UNL     1     109.912 125.868 141.373  0.00  0.00    +0.000 OA
ATOM     38  C   UNL     1     111.085 126.559 139.306  0.00  0.00    +0.000 C 
ATOM     39  C   UNL     1     111.488 126.550 140.026  0.00  0.00    +0.000 C 
ATOM     40  C   UNL     1     111.096 126.319 140.715  0.00  0.00    +0.000 C 
ATOM     41  C   UNL     1     110.302 126.098 140.684  0.00  0.00    +0.000 C 
ATOM     42  C   UNL     1     109.899 126.107 139.964  0.00  0.00    +0.000 C 
BRANCH  42  44
ATOM     43  O   UNL     1     108.529 126.442 139.733  0.00  0.00    +0.000 OA
ATOM     44  C   UNL     1     109.106 125.886 139.933  0.00  0.00    +0.000 C 
ENDBRANCH  42  44
ENDBRANCH  33  38
ENDBRANCH   4  33
TORSDOF 7
ENDMDL
MODEL 7
REMARK VINA RESULT:      -9.7      0.841      1.913
REMARK  Name = 44258370
REMARK  7 active torsions:
REMARK  status: ('A' for Active; 'I' for Inactive)
REMARK    1  A    between atoms: O_1  and  C_17
REMARK    2  A    between atoms: O_1  and  C_22
REMARK    3  A    between atoms: O_10  and  C_31
REMARK    4  A    between atoms: C_19  and  C_27
REMARK    5  A    between atoms: C_21  and  C_28
REMARK    6  A    between atoms: C_26  and  C_29
REMARK    7  A    between atoms: C_37  and  C_39
REMARK                            x       y       z     vdW  Elec       q    Type
REMARK                         _______ _______ _______ _____ _____    ______ ____
ROOT
ATOM      1  O   UNL     1     106.817 125.663 146.730  0.00  0.00    +0.000 OA
ATOM      2  O   UNL     1     105.079 124.245 147.778  0.00  0.00    +0.000 OA
ATOM      3  O   UNL     1     106.597 124.300 148.422  0.00  0.00    +0.000 OA
ATOM      4  C   UNL     1     105.478 125.162 146.758  0.00  0.00    +0.000 C 
ATOM      5  C   UNL     1     105.659 124.718 147.428  0.00  0.00    +0.000 C 
ATOM      6  C   UNL     1     106.058 125.636 146.408  0.00  0.00    +0.000 C 
ATOM      7  C   UNL     1     106.418 124.746 147.750  0.00  0.00    +0.000 C 
ATOM      8  C   UNL     1     106.996 125.218 147.401  0.00  0.00    +0.000 C 
ENDROOT
BRANCH   6  12
ATOM      9  O   UNL     1     105.722 127.245 146.552  0.00  0.00    +0.000 OA
ATOM     10  O   UNL     1     105.329 127.424 143.690  0.00  0.00    +0.000 OA
ATOM     11  O   UNL     1     105.370 128.518 145.973  0.00  0.00    +0.000 OA
ATOM     12  C   UNL     1     105.877 126.080 145.737  0.00  0.00    +0.000 A 
ATOM     13  C   UNL     1     105.709 126.885 145.810  0.00  0.00    +0.000 A 
ATOM     14  C   UNL     1     105.865 125.721 144.995  0.00  0.00    +0.000 A 
ATOM     15  C   UNL     1     105.528 127.330 145.139  0.00  0.00    +0.000 A 
ATOM     16  C   UNL     1     105.684 126.167 144.325  0.00  0.00    +0.000 A 
ATOM     17  C   UNL     1     105.516 126.971 144.396  0.00  0.00    +0.000 A 
ATOM     18  C   UNL     1     105.355 128.167 145.227  0.00  0.00    +0.000 A 
ATOM     19  C   UNL     1     105.166 128.637 144.533  0.00  0.00    +0.000 A 
ATOM     20  C   UNL     1     105.153 128.262 143.759  0.00  0.00    +0.000 A 
BRANCH  20  23
ATOM     21  O   UNL     1     105.973 129.505 141.319  0.00  0.00    +0.000 OA
ATOM     22  O   UNL     1     104.430 130.034 141.070  0.00  0.00    +0.000 OA
ATOM     23  C   UNL     1     104.973 128.705 143.087  0.00  0.00    +0.000 A 
ATOM     24  C   UNL     1     105.564 128.883 142.539  0.00  0.00    +0.000 A 
ATOM     25  C   UNL     1     104.201 128.970 142.962  0.00  0.00    +0.000 A 
ATOM     26  C   UNL     1     105.382 129.326 141.867  0.00  0.00    +0.000 A 
ATOM     27  C   UNL     1     104.021 129.412 142.290  0.00  0.00    +0.000 A 
ATOM     28  C   UNL     1     104.611 129.591 141.742  0.00  0.00    +0.000 A 
ENDBRANCH  20  23
BRANCH  14  29
ATOM     29  O   UNL     1     106.033 124.917 144.923  0.00  0.00    +0.000 OA
ATOM     30  C   UNL     1     106.145 124.584 144.177  0.00  0.00    +0.000 C 
ENDBRANCH  14  29
ENDBRANCH   6  12
BRANCH   8  32
ATOM     31  O   UNL     1     108.409 125.348 147.231  0.00  0.00    +0.000 OA
ATOM     32  C   UNL     1     107.756 125.246 147.723  0.00  0.00    +0.000 C 
ENDBRANCH   8  32
BRANCH   4  33
ATOM     33  O   UNL     1     104.719 125.135 146.436  0.00  0.00    +0.000 OA
BRANCH  33  38
ATOM     34  O   UNL     1     104.071 125.761 147.545  0.00  0.00    +0.000 OA
ATOM     35  O   UNL     1     103.379 124.208 146.177  0.00  0.00    +0.000 OA
ATOM     36  O   UNL     1     102.061 124.371 147.156  0.00  0.00    +0.000 OA
ATOM     37  O   UNL     1     102.084 125.461 148.394  0.00  0.00    +0.000 OA
ATOM     38  C   UNL     1     104.061 125.216 146.925  0.00  0.00    +0.000 C 
ATOM     39  C   UNL     1     103.391 124.753 146.796  0.00  0.00    +0.000 C 
ATOM     40  C   UNL     1     102.731 124.834 147.286  0.00  0.00    +0.000 C 
ATOM     41  C   UNL     1     102.743 125.380 147.905  0.00  0.00    +0.000 C 
ATOM     42  C   UNL     1     103.413 125.843 148.034  0.00  0.00    +0.000 C 
BRANCH  42  44
ATOM     43  O   UNL     1     103.471 127.196 148.491  0.00  0.00    +0.000 OA
ATOM     44  C   UNL     1     103.424 126.388 148.653  0.00  0.00    +0.000 C 
ENDBRANCH  42  44
ENDBRANCH  33  38
ENDBRANCH   4  33
TORSDOF 7
ENDMDL
MODEL 8
REMARK VINA RESULT:      -9.7      8.258     11.148
REMARK  Name = 44258370
REMARK  7 active torsions:
REMARK  status: ('A' for Active; 'I' for Inactive)
REMARK    1  A    between atoms: O_1  and  C_17
REMARK    2  A    between atoms: O_1  and  C_22
REMARK    3  A    between atoms: O_10  and  C_31
REMARK    4  A    between atoms: C_19  and  C_27
REMARK    5  A    between atoms: C_21  and  C_28
REMARK    6  A    between atoms: C_26  and  C_29
REMARK    7  A    between atoms: C_37  and  C_39
REMARK                            x       y       z     vdW  Elec       q    Type
REMARK                         _______ _______ _______ _____ _____    ______ ____
ROOT
ATOM      1  O   UNL     1     110.189 131.387 136.501  0.00  0.00    +0.000 OA
ATOM      2  O   UNL     1     110.543 132.402 138.731  0.00  0.00    +0.000 OA
ATOM      3  O   UNL     1     109.918 133.308 137.502  0.00  0.00    +0.000 OA
ATOM      4  C   UNL     1     110.619 131.272 137.860  0.00  0.00    +0.000 C 
ATOM      5  C   UNL     1     110.425 132.063 137.988  0.00  0.00    +0.000 C 
ATOM      6  C   UNL     1     110.501 130.933 137.116  0.00  0.00    +0.000 C 
ATOM      7  C   UNL     1     110.112 132.516 137.373  0.00  0.00    +0.000 C 
ATOM      8  C   UNL     1     109.994 132.178 136.630  0.00  0.00    +0.000 C 
ENDROOT
BRANCH   6  12
ATOM      9  O   UNL     1     109.327 129.776 137.175  0.00  0.00    +0.000 OA
ATOM     10  O   UNL     1     111.299 127.737 136.597  0.00  0.00    +0.000 OA
ATOM     11  O   UNL     1     108.903 128.401 137.081  0.00  0.00    +0.000 OA
ATOM     12  C   UNL     1     110.696 130.142 136.988  0.00  0.00    +0.000 A 
ATOM     13  C   UNL     1     110.108 129.563 137.017  0.00  0.00    +0.000 A 
ATOM     14  C   UNL     1     111.477 129.929 136.831  0.00  0.00    +0.000 A 
ATOM     15  C   UNL     1     110.303 128.772 136.890  0.00  0.00    +0.000 A 
ATOM     16  C   UNL     1     111.671 129.137 136.703  0.00  0.00    +0.000 A 
ATOM     17  C   UNL     1     111.084 128.559 136.732  0.00  0.00    +0.000 A 
ATOM     18  C   UNL     1     109.682 128.178 136.923  0.00  0.00    +0.000 A 
ATOM     19  C   UNL     1     109.877 127.353 136.791  0.00  0.00    +0.000 A 
ATOM     20  C   UNL     1     110.692 127.131 136.627  0.00  0.00    +0.000 A 
BRANCH  20  23
ATOM     21  O   UNL     1     111.553 124.599 137.635  0.00  0.00    +0.000 OA
ATOM     22  O   UNL     1     111.479 123.967 136.113  0.00  0.00    +0.000 OA
ATOM     23  C   UNL     1     110.888 126.340 136.499  0.00  0.00    +0.000 A 
ATOM     24  C   UNL     1     111.122 125.865 137.132  0.00  0.00    +0.000 A 
ATOM     25  C   UNL     1     110.852 126.024 135.737  0.00  0.00    +0.000 A 
ATOM     26  C   UNL     1     111.319 125.074 137.002  0.00  0.00    +0.000 A 
ATOM     27  C   UNL     1     111.048 125.233 135.609  0.00  0.00    +0.000 A 
ATOM     28  C   UNL     1     111.282 124.758 136.241  0.00  0.00    +0.000 A 
ENDBRANCH  20  23
BRANCH  14  29
ATOM     29  O   UNL     1     112.064 130.508 136.801  0.00  0.00    +0.000 OA
ATOM     30  C   UNL     1     112.805 130.327 136.487  0.00  0.00    +0.000 C 
ENDBRANCH  14  29
ENDBRANCH   6  12
BRANCH   8  32
ATOM     31  O   UNL     1     109.240 132.270 135.420  0.00  0.00    +0.000 OA
ATOM     32  C   UNL     1     109.682 132.631 136.016  0.00  0.00    +0.000 C 
ENDBRANCH   8  32
BRANCH   4  33
ATOM     33  O   UNL     1     110.932 130.819 138.474  0.00  0.00    +0.000 OA
BRANCH  33  38
ATOM     34  O   UNL     1     109.769 130.821 139.305  0.00  0.00    +0.000 OA
ATOM     35  O   UNL     1     111.889 130.937 139.813  0.00  0.00    +0.000 OA
ATOM     36  O   UNL     1     111.205 130.999 141.313  0.00  0.00    +0.000 OA
ATOM     37  O   UNL     1     109.565 130.942 141.474  0.00  0.00    +0.000 OA
ATOM     38  C   UNL     1     110.590 130.850 139.224  0.00  0.00    +0.000 C 
ATOM     39  C   UNL     1     111.069 130.909 139.893  0.00  0.00    +0.000 C 
ATOM     40  C   UNL     1     110.727 130.940 140.644  0.00  0.00    +0.000 C 
ATOM     41  C   UNL     1     109.906 130.911 140.724  0.00  0.00    +0.000 C 
ATOM     42  C   UNL     1     109.428 130.852 140.055  0.00  0.00    +0.000 C 
BRANCH  42  44
ATOM     43  O   UNL     1     108.192 130.151 139.900  0.00  0.00    +0.000 OA
ATOM     44  C   UNL     1     108.608 130.824 140.136  0.00  0.00    +0.000 C 
ENDBRANCH  42  44
ENDBRANCH  33  38
ENDBRANCH   4  33
TORSDOF 7
ENDMDL
MODEL 9
REMARK VINA RESULT:      -9.7      8.743     11.114
REMARK  Name = 44258370
REMARK  7 active torsions:
REMARK  status: ('A' for Active; 'I' for Inactive)
REMARK    1  A    between atoms: O_1  and  C_17
REMARK    2  A    between atoms: O_1  and  C_22
REMARK    3  A    between atoms: O_10  and  C_31
REMARK    4  A    between atoms: C_19  and  C_27
REMARK    5  A    between atoms: C_21  and  C_28
REMARK    6  A    between atoms: C_26  and  C_29
REMARK    7  A    between atoms: C_37  and  C_39
REMARK                            x       y       z     vdW  Elec       q    Type
REMARK                         _______ _______ _______ _____ _____    ______ ____
ROOT
ATOM      1  O   UNL     1     113.558 126.355 136.416  0.00  0.00    +0.000 OA
ATOM      2  O   UNL     1     113.478 125.422 138.708  0.00  0.00    +0.000 OA
ATOM      3  O   UNL     1     114.755 125.078 137.721  0.00  0.00    +0.000 OA
ATOM      4  C   UNL     1     112.892 126.216 137.674  0.00  0.00    +0.000 C 
ATOM      5  C   UNL     1     113.505 125.733 137.944  0.00  0.00    +0.000 C 
ATOM      6  C   UNL     1     112.919 126.527 136.910  0.00  0.00    +0.000 C 
ATOM      7  C   UNL     1     114.143 125.561 137.450  0.00  0.00    +0.000 C 
ATOM      8  C   UNL     1     114.169 125.872 136.687  0.00  0.00    +0.000 C 
ENDROOT
BRANCH   6  12
ATOM      9  O   UNL     1     113.069 128.168 136.986  0.00  0.00    +0.000 OA
ATOM     10  O   UNL     1     110.439 128.469 135.817  0.00  0.00    +0.000 OA
ATOM     11  O   UNL     1     112.551 129.495 136.763  0.00  0.00    +0.000 OA
ATOM     12  C   UNL     1     112.307 127.009 136.640  0.00  0.00    +0.000 A 
ATOM     13  C   UNL     1     112.382 127.831 136.678  0.00  0.00    +0.000 A 
ATOM     14  C   UNL     1     111.620 126.672 136.332  0.00  0.00    +0.000 A 
ATOM     15  C   UNL     1     111.770 128.313 136.409  0.00  0.00    +0.000 A 
ATOM     16  C   UNL     1     111.008 127.156 136.063  0.00  0.00    +0.000 A 
ATOM     17  C   UNL     1     111.083 127.976 136.101  0.00  0.00    +0.000 A 
ATOM     18  C   UNL     1     111.860 129.167 136.454  0.00  0.00    +0.000 A 
ATOM     19  C   UNL     1     111.227 129.676 136.175  0.00  0.00    +0.000 A 
ATOM     20  C   UNL     1     110.511 129.324 135.854  0.00  0.00    +0.000 A 
BRANCH  20  23
ATOM     21  O   UNL     1     107.851 130.333 136.130  0.00  0.00    +0.000 OA
ATOM     22  O   UNL     1     108.057 131.248 134.773  0.00  0.00    +0.000 OA
ATOM     23  C   UNL     1     109.898 129.805 135.584  0.00  0.00    +0.000 A 
ATOM     24  C   UNL     1     109.181 129.828 135.993  0.00  0.00    +0.000 A 
ATOM     25  C   UNL     1     110.000 130.262 134.905  0.00  0.00    +0.000 A 
ATOM     26  C   UNL     1     108.568 130.310 135.722  0.00  0.00    +0.000 A 
ATOM     27  C   UNL     1     109.387 130.743 134.635  0.00  0.00    +0.000 A 
ATOM     28  C   UNL     1     108.671 130.767 135.043  0.00  0.00    +0.000 A 
ENDBRANCH  20  23
BRANCH  14  29
ATOM     29  O   UNL     1     111.545 125.852 136.294  0.00  0.00    +0.000 OA
ATOM     30  C   UNL     1     110.941 125.513 135.845  0.00  0.00    +0.000 C 
ENDBRANCH  14  29
ENDBRANCH   6  12
BRANCH   8  32
ATOM     31  O   UNL     1     115.129 126.289 135.713  0.00  0.00    +0.000 OA
ATOM     32  C   UNL     1     114.808 125.700 136.194  0.00  0.00    +0.000 C 
ENDBRANCH   8  32
BRANCH   4  33
ATOM     33  O   UNL     1     112.254 126.387 138.167  0.00  0.00    +0.000 OA
BRANCH  33  38
ATOM     34  O   UNL     1     113.002 127.121 139.139  0.00  0.00    +0.000 OA
ATOM     35  O   UNL     1     111.287 125.789 139.363  0.00  0.00    +0.000 OA
ATOM     36  O   UNL     1     111.551 126.224 140.933  0.00  0.00    +0.000 OA
ATOM     37  O   UNL     1     112.782 127.256 141.306  0.00  0.00    +0.000 OA
ATOM     38  C   UNL     1     112.386 126.605 138.952  0.00  0.00    +0.000 C 
ATOM     39  C   UNL     1     111.903 126.305 139.549  0.00  0.00    +0.000 C 
ATOM     40  C   UNL     1     112.035 126.523 140.335  0.00  0.00    +0.000 C 
ATOM     41  C   UNL     1     112.650 127.039 140.521  0.00  0.00    +0.000 C 
ATOM     42  C   UNL     1     113.134 127.338 139.924  0.00  0.00    +0.000 C 
BRANCH  42  44
ATOM     43  O   UNL     1     113.722 128.639 139.857  0.00  0.00    +0.000 OA
ATOM     44  C   UNL     1     113.749 127.854 140.111  0.00  0.00    +0.000 C 
ENDBRANCH  42  44
ENDBRANCH  33  38
ENDBRANCH   4  33
TORSDOF 7
ENDMDL
MODEL 10
REMARK VINA RESULT:      -9.6      7.612     10.271
REMARK  Name = 44258370
REMARK  7 active torsions:
REMARK  status: ('A' for Active; 'I' for Inactive)
REMARK    1  A    between atoms: O_1  and  C_17
REMARK    2  A    between atoms: O_1  and  C_22
REMARK    3  A    between atoms: O_10  and  C_31
REMARK    4  A    between atoms: C_19  and  C_27
REMARK    5  A    between atoms: C_21  and  C_28
REMARK    6  A    between atoms: C_26  and  C_29
REMARK    7  A    between atoms: C_37  and  C_39
REMARK                            x       y       z     vdW  Elec       q    Type
REMARK                         _______ _______ _______ _____ _____    ______ ____
ROOT
ATOM      1  O   UNL     1     114.054 130.168 140.670  0.00  0.00    +0.000 OA
ATOM      2  O   UNL     1     111.969 130.947 141.752  0.00  0.00    +0.000 OA
ATOM      3  O   UNL     1     113.404 131.682 142.102  0.00  0.00    +0.000 OA
ATOM      4  C   UNL     1     112.641 130.061 140.856  0.00  0.00    +0.000 C 
ATOM      5  C   UNL     1     112.664 130.688 141.391  0.00  0.00    +0.000 C 
ATOM      6  C   UNL     1     113.337 129.801 140.495  0.00  0.00    +0.000 C 
ATOM      7  C   UNL     1     113.382 131.055 141.566  0.00  0.00    +0.000 C 
ATOM      8  C   UNL     1     114.076 130.795 141.206  0.00  0.00    +0.000 C 
ENDROOT
BRANCH   6  12
ATOM      9  O   UNL     1     113.735 128.278 140.991  0.00  0.00    +0.000 OA
ATOM     10  O   UNL     1     113.239 127.273 138.322  0.00  0.00    +0.000 OA
ATOM     11  O   UNL     1     113.920 126.872 140.727  0.00  0.00    +0.000 OA
ATOM     12  C   UNL     1     113.313 129.174 139.959  0.00  0.00    +0.000 A 
ATOM     13  C   UNL     1     113.513 128.412 140.207  0.00  0.00    +0.000 A 
ATOM     14  C   UNL     1     113.091 129.308 139.176  0.00  0.00    +0.000 A 
ATOM     15  C   UNL     1     113.489 127.785 139.672  0.00  0.00    +0.000 A 
ATOM     16  C   UNL     1     113.068 128.680 138.641  0.00  0.00    +0.000 A 
ATOM     17  C   UNL     1     113.267 127.919 138.889  0.00  0.00    +0.000 A 
ATOM     18  C   UNL     1     113.699 126.997 139.942  0.00  0.00    +0.000 A 
ATOM     19  C   UNL     1     113.677 126.339 139.390  0.00  0.00    +0.000 A 
ATOM     20  C   UNL     1     113.445 126.479 138.574  0.00  0.00    +0.000 A 
BRANCH  20  23
ATOM     21  O   UNL     1     111.956 124.520 137.119  0.00  0.00    +0.000 OA
ATOM     22  O   UNL     1     113.350 123.976 136.424  0.00  0.00    +0.000 OA
ATOM     23  C   UNL     1     113.421 125.853 138.037  0.00  0.00    +0.000 A 
ATOM     24  C   UNL     1     112.701 125.500 137.847  0.00  0.00    +0.000 A 
ATOM     25  C   UNL     1     114.119 125.581 137.689  0.00  0.00    +0.000 A 
ATOM     26  C   UNL     1     112.677 124.874 137.309  0.00  0.00    +0.000 A 
ATOM     27  C   UNL     1     114.095 124.956 137.152  0.00  0.00    +0.000 A 
ATOM     28  C   UNL     1     113.374 124.602 136.962  0.00  0.00    +0.000 A 
ENDBRANCH  20  23
BRANCH  14  29
ATOM     29  O   UNL     1     112.892 130.069 138.928  0.00  0.00    +0.000 OA
ATOM     30  C   UNL     1     112.850 130.242 138.123  0.00  0.00    +0.000 C 
ENDBRANCH  14  29
ENDBRANCH   6  12
BRANCH   8  32
ATOM     31  O   UNL     1     115.221 131.540 140.785  0.00  0.00    +0.000 OA
ATOM     32  C   UNL     1     114.794 131.162 141.381  0.00  0.00    +0.000 C 
ENDBRANCH   8  32
BRANCH   4  33
ATOM     33  O   UNL     1     111.923 129.693 140.680  0.00  0.00    +0.000 OA
BRANCH  33  38
ATOM     34  O   UNL     1     111.713 129.185 142.000  0.00  0.00    +0.000 OA
ATOM     35  O   UNL     1     110.293 129.847 140.480  0.00  0.00    +0.000 OA
ATOM     36  O   UNL     1     109.268 129.416 141.699  0.00  0.00    +0.000 OA
ATOM     37  O   UNL     1     109.873 128.831 143.117  0.00  0.00    +0.000 OA
ATOM     38  C   UNL     1     111.411 129.478 141.290  0.00  0.00    +0.000 C 
ATOM     39  C   UNL     1     110.596 129.555 141.189  0.00  0.00    +0.000 C 
ATOM     40  C   UNL     1     110.083 129.339 141.799  0.00  0.00    +0.000 C 
ATOM     41  C   UNL     1     110.386 129.047 142.508  0.00  0.00    +0.000 C 
ATOM     42  C   UNL     1     111.202 128.970 142.609  0.00  0.00    +0.000 C 
BRANCH  42  44
ATOM     43  O   UNL     1     111.865 127.936 143.339  0.00  0.00    +0.000 OA
ATOM     44  C   UNL     1     111.504 128.678 143.318  0.00  0.00    +0.000 C 
ENDBRANCH  42  44
ENDBRANCH  33  38
ENDBRANCH   4  33
TORSDOF 7
ENDMDL
