MODEL 1
REMARK VINA RESULT:      -7.3      0.000      0.000
REMARK  Name = 44259900
REMARK  8 active torsions:
REMARK  status: ('A' for Active; 'I' for Inactive)
REMARK    1  A    between atoms: O_2  and  C_14
REMARK    2  A    between atoms: O_3  and  C_15
REMARK    3  A    between atoms: O_4  and  C_18
REMARK    4  A    between atoms: O_5  and  C_19
REMARK    5  A    between atoms: O_6  and  C_20
REMARK    6  A    between atoms: O_8  and  C_22
REMARK    7  A    between atoms: O_9  and  C_24
REMARK    8  A    between atoms: C_12  and  C_13
REMARK                            x       y       z     vdW  Elec       q    Type
REMARK                         _______ _______ _______ _____ _____    ______ ____
ROOT
ATOM      1  O   UNL     1     113.198 127.365 136.314  0.00  0.00    +0.000 OA
ATOM      2  O   UNL     1     112.449 128.486 138.389  0.00  0.00    +0.000 OA
ATOM      3  C   UNL     1     113.145 128.528 137.143  0.00  0.00    +0.000 A 
ATOM      4  C   UNL     1     113.395 128.154 136.451  0.00  0.00    +0.000 A 
ATOM      5  C   UNL     1     112.750 126.949 136.869  0.00  0.00    +0.000 A 
ATOM      6  C   UNL     1     112.501 127.323 137.561  0.00  0.00    +0.000 A 
ATOM      7  C   UNL     1     113.345 129.350 137.297  0.00  0.00    +0.000 A 
ATOM      8  C   UNL     1     112.699 128.112 137.697  0.00  0.00    +0.000 A 
ATOM      9  C   UNL     1     113.861 128.576 135.865  0.00  0.00    +0.000 A 
ATOM     10  C   UNL     1     113.810 129.787 136.722  0.00  0.00    +0.000 A 
ATOM     11  C   UNL     1     114.070 129.398 136.001  0.00  0.00    +0.000 A 
ENDROOT
BRANCH   5  12
ATOM     12  C   UNL     1     112.553 126.160 136.732  0.00  0.00    +0.000 A 
ATOM     13  C   UNL     1     113.092 125.562 136.912  0.00  0.00    +0.000 A 
ATOM     14  C   UNL     1     111.815 125.969 136.414  0.00  0.00    +0.000 A 
ATOM     15  C   UNL     1     111.618 125.180 136.276  0.00  0.00    +0.000 A 
ATOM     16  C   UNL     1     112.893 124.773 136.774  0.00  0.00    +0.000 A 
ATOM     17  C   UNL     1     112.157 124.582 136.457  0.00  0.00    +0.000 A 
BRANCH  13  18
ATOM     18  O   UNL     1     113.828 125.753 137.230  0.00  0.00    +0.000 OA
ATOM     19  C   UNL     1     114.402 125.168 137.323  0.00  0.00    +0.000 C 
ENDBRANCH  13  18
BRANCH  15  20
ATOM     20  O   UNL     1     110.881 124.989 135.958  0.00  0.00    +0.000 OA
ATOM     21  C   UNL     1     110.533 125.485 135.398  0.00  0.00    +0.000 C 
ENDBRANCH  15  20
BRANCH  17  22
ATOM     22  O   UNL     1     111.958 123.793 136.319  0.00  0.00    +0.000 OA
ATOM     23  C   UNL     1     112.086 123.228 136.906  0.00  0.00    +0.000 C 
ENDBRANCH  17  22
ENDBRANCH   5  12
BRANCH   6  24
ATOM     24  O   UNL     1     112.054 126.908 138.116  0.00  0.00    +0.000 OA
ATOM     25  C   UNL     1     111.494 127.304 138.574  0.00  0.00    +0.000 C 
ENDBRANCH   6  24
BRANCH   7  26
ATOM     26  O   UNL     1     113.091 129.715 137.991  0.00  0.00    +0.000 OA
ATOM     27  C   UNL     1     113.571 129.702 138.662  0.00  0.00    +0.000 C 
ENDBRANCH   7  26
BRANCH  10  28
ATOM     28  O   UNL     1     114.006 130.577 136.862  0.00  0.00    +0.000 OA
ATOM     29  C   UNL     1     113.547 131.180 136.537  0.00  0.00    +0.000 C 
ENDBRANCH  10  28
BRANCH  11  30
ATOM     30  O   UNL     1     114.518 129.811 135.444  0.00  0.00    +0.000 OA
ATOM     31  C   UNL     1     114.877 129.406 134.822  0.00  0.00    +0.000 C 
ENDBRANCH  11  30
TORSDOF 8
ENDMDL
MODEL 2
REMARK VINA RESULT:      -6.9      0.926      4.715
REMARK  Name = 44259900
REMARK  8 active torsions:
REMARK  status: ('A' for Active; 'I' for Inactive)
REMARK    1  A    between atoms: O_2  and  C_14
REMARK    2  A    between atoms: O_3  and  C_15
REMARK    3  A    between atoms: O_4  and  C_18
REMARK    4  A    between atoms: O_5  and  C_19
REMARK    5  A    between atoms: O_6  and  C_20
REMARK    6  A    between atoms: O_8  and  C_22
REMARK    7  A    between atoms: O_9  and  C_24
REMARK    8  A    between atoms: C_12  and  C_13
REMARK                            x       y       z     vdW  Elec       q    Type
REMARK                         _______ _______ _______ _____ _____    ______ ____
ROOT
ATOM      1  O   UNL     1     113.344 127.250 136.924  0.00  0.00    +0.000 OA
ATOM      2  O   UNL     1     111.013 126.872 136.183  0.00  0.00    +0.000 OA
ATOM      3  C   UNL     1     112.290 126.356 136.561  0.00  0.00    +0.000 A 
ATOM      4  C   UNL     1     113.067 126.482 136.808  0.00  0.00    +0.000 A 
ATOM      5  C   UNL     1     112.843 127.893 136.793  0.00  0.00    +0.000 A 
ATOM      6  C   UNL     1     112.066 127.767 136.546  0.00  0.00    +0.000 A 
ATOM      7  C   UNL     1     111.990 125.559 136.437  0.00  0.00    +0.000 A 
ATOM      8  C   UNL     1     111.790 126.998 136.430  0.00  0.00    +0.000 A 
ATOM      9  C   UNL     1     113.598 125.820 136.948  0.00  0.00    +0.000 A 
ATOM     10  C   UNL     1     112.507 124.886 136.572  0.00  0.00    +0.000 A 
ATOM     11  C   UNL     1     113.317 125.018 136.829  0.00  0.00    +0.000 A 
ENDROOT
BRANCH   5  12
ATOM     12  C   UNL     1     113.120 128.661 136.909  0.00  0.00    +0.000 A 
ATOM     13  C   UNL     1     113.569 129.031 136.324  0.00  0.00    +0.000 A 
ATOM     14  C   UNL     1     112.947 129.060 137.611  0.00  0.00    +0.000 A 
ATOM     15  C   UNL     1     113.224 129.828 137.727  0.00  0.00    +0.000 A 
ATOM     16  C   UNL     1     113.845 129.800 136.441  0.00  0.00    +0.000 A 
ATOM     17  C   UNL     1     113.673 130.198 137.142  0.00  0.00    +0.000 A 
BRANCH  13  18
ATOM     18  O   UNL     1     113.741 128.633 135.623  0.00  0.00    +0.000 OA
ATOM     19  C   UNL     1     114.273 128.959 135.083  0.00  0.00    +0.000 C 
ENDBRANCH  13  18
BRANCH  15  20
ATOM     20  O   UNL     1     113.052 130.227 138.429  0.00  0.00    +0.000 OA
ATOM     21  C   UNL     1     113.059 129.819 139.146  0.00  0.00    +0.000 C 
ENDBRANCH  15  20
BRANCH  17  22
ATOM     22  O   UNL     1     113.950 130.967 137.259  0.00  0.00    +0.000 OA
ATOM     23  C   UNL     1     113.928 131.511 136.640  0.00  0.00    +0.000 C 
ENDBRANCH  17  22
ENDBRANCH   5  12
BRANCH   6  24
ATOM     24  O   UNL     1     111.566 128.409 136.415  0.00  0.00    +0.000 OA
ATOM     25  C   UNL     1     110.755 128.335 136.550  0.00  0.00    +0.000 C 
ENDBRANCH   6  24
BRANCH   7  26
ATOM     26  O   UNL     1     111.212 125.443 136.190  0.00  0.00    +0.000 OA
ATOM     27  C   UNL     1     111.037 125.405 135.385  0.00  0.00    +0.000 C 
ENDBRANCH   7  26
BRANCH  10  28
ATOM     28  O   UNL     1     112.228 124.119 136.455  0.00  0.00    +0.000 OA
ATOM     29  C   UNL     1     111.975 123.669 137.099  0.00  0.00    +0.000 C 
ENDBRANCH  10  28
BRANCH  11  30
ATOM     30  O   UNL     1     113.819 124.377 136.961  0.00  0.00    +0.000 OA
ATOM     31  C   UNL     1     114.606 124.507 137.174  0.00  0.00    +0.000 C 
ENDBRANCH  11  30
TORSDOF 8
ENDMDL
MODEL 3
REMARK VINA RESULT:      -6.8     11.958     14.392
REMARK  Name = 44259900
REMARK  8 active torsions:
REMARK  status: ('A' for Active; 'I' for Inactive)
REMARK    1  A    between atoms: O_2  and  C_14
REMARK    2  A    between atoms: O_3  and  C_15
REMARK    3  A    between atoms: O_4  and  C_18
REMARK    4  A    between atoms: O_5  and  C_19
REMARK    5  A    between atoms: O_6  and  C_20
REMARK    6  A    between atoms: O_8  and  C_22
REMARK    7  A    between atoms: O_9  and  C_24
REMARK    8  A    between atoms: C_12  and  C_13
REMARK                            x       y       z     vdW  Elec       q    Type
REMARK                         _______ _______ _______ _____ _____    ______ ____
ROOT
ATOM      1  O   UNL     1     103.826 124.804 147.218  0.00  0.00    +0.000 OA
ATOM      2  O   UNL     1     103.236 122.897 145.756  0.00  0.00    +0.000 OA
ATOM      3  C   UNL     1     102.894 123.802 146.806  0.00  0.00    +0.000 A 
ATOM      4  C   UNL     1     103.091 124.438 147.293  0.00  0.00    +0.000 A 
ATOM      5  C   UNL     1     104.365 124.534 146.655  0.00  0.00    +0.000 A 
ATOM      6  C   UNL     1     104.169 123.898 146.167  0.00  0.00    +0.000 A 
ATOM      7  C   UNL     1     102.131 123.413 146.875  0.00  0.00    +0.000 A 
ATOM      8  C   UNL     1     103.433 123.532 146.243  0.00  0.00    +0.000 A 
ATOM      9  C   UNL     1     102.537 124.728 147.884  0.00  0.00    +0.000 A 
ATOM     10  C   UNL     1     101.565 123.689 147.460  0.00  0.00    +0.000 A 
ATOM     11  C   UNL     1     101.770 124.352 147.968  0.00  0.00    +0.000 A 
ENDROOT
BRANCH   5  12
ATOM     12  C   UNL     1     105.100 124.900 146.579  0.00  0.00    +0.000 A 
ATOM     13  C   UNL     1     105.692 124.757 147.136  0.00  0.00    +0.000 A 
ATOM     14  C   UNL     1     105.244 125.410 145.946  0.00  0.00    +0.000 A 
ATOM     15  C   UNL     1     105.979 125.776 145.871  0.00  0.00    +0.000 A 
ATOM     16  C   UNL     1     106.427 125.124 147.060  0.00  0.00    +0.000 A 
ATOM     17  C   UNL     1     106.571 125.633 146.428  0.00  0.00    +0.000 A 
BRANCH  13  18
ATOM     18  O   UNL     1     105.549 124.247 147.768  0.00  0.00    +0.000 OA
ATOM     19  C   UNL     1     106.099 124.183 148.380  0.00  0.00    +0.000 C 
ENDBRANCH  13  18
BRANCH  15  20
ATOM     20  O   UNL     1     106.123 126.287 145.238  0.00  0.00    +0.000 OA
ATOM     21  C   UNL     1     105.533 126.805 144.985  0.00  0.00    +0.000 C 
ENDBRANCH  15  20
BRANCH  17  22
ATOM     22  O   UNL     1     107.306 126.000 146.352  0.00  0.00    +0.000 OA
ATOM     23  C   UNL     1     107.762 126.151 147.022  0.00  0.00    +0.000 C 
ENDBRANCH  17  22
ENDBRANCH   5  12
BRANCH   6  24
ATOM     24  O   UNL     1     104.707 123.628 145.604  0.00  0.00    +0.000 OA
ATOM     25  C   UNL     1     104.452 123.143 144.988  0.00  0.00    +0.000 C 
ENDBRANCH   6  24
BRANCH   7  26
ATOM     26  O   UNL     1     101.943 122.778 146.383  0.00  0.00    +0.000 OA
ATOM     27  C   UNL     1     101.449 122.893 145.732  0.00  0.00    +0.000 C 
ENDBRANCH   7  26
BRANCH  10  28
ATOM     28  O   UNL     1     100.831 123.322 147.533  0.00  0.00    +0.000 OA
ATOM     29  C   UNL     1     100.710 122.754 148.119  0.00  0.00    +0.000 C 
ENDBRANCH  10  28
BRANCH  11  30
ATOM     30  O   UNL     1     101.233 124.624 148.532  0.00  0.00    +0.000 OA
ATOM     31  C   UNL     1     101.384 125.324 148.942  0.00  0.00    +0.000 C 
ENDBRANCH  11  30
TORSDOF 8
ENDMDL
MODEL 4
REMARK VINA RESULT:      -6.6      1.289      2.842
REMARK  Name = 44259900
REMARK  8 active torsions:
REMARK  status: ('A' for Active; 'I' for Inactive)
REMARK    1  A    between atoms: O_2  and  C_14
REMARK    2  A    between atoms: O_3  and  C_15
REMARK    3  A    between atoms: O_4  and  C_18
REMARK    4  A    between atoms: O_5  and  C_19
REMARK    5  A    between atoms: O_6  and  C_20
REMARK    6  A    between atoms: O_8  and  C_22
REMARK    7  A    between atoms: O_9  and  C_24
REMARK    8  A    between atoms: C_12  and  C_13
REMARK                            x       y       z     vdW  Elec       q    Type
REMARK                         _______ _______ _______ _____ _____    ______ ____
ROOT
ATOM      1  O   UNL     1     113.020 127.283 138.775  0.00  0.00    +0.000 OA
ATOM      2  O   UNL     1     113.269 129.067 137.078  0.00  0.00    +0.000 OA
ATOM      3  C   UNL     1     113.225 128.658 138.446  0.00  0.00    +0.000 A 
ATOM      4  C   UNL     1     113.142 128.064 139.011  0.00  0.00    +0.000 A 
ATOM      5  C   UNL     1     112.981 127.097 137.971  0.00  0.00    +0.000 A 
ATOM      6  C   UNL     1     113.063 127.692 137.406  0.00  0.00    +0.000 A 
ATOM      7  C   UNL     1     113.353 129.476 138.680  0.00  0.00    +0.000 A 
ATOM      8  C   UNL     1     113.186 128.472 137.644  0.00  0.00    +0.000 A 
ATOM      9  C   UNL     1     113.181 128.245 139.851  0.00  0.00    +0.000 A 
ATOM     10  C   UNL     1     113.395 129.675 139.515  0.00  0.00    +0.000 A 
ATOM     11  C   UNL     1     113.308 129.055 140.104  0.00  0.00    +0.000 A 
ENDROOT
BRANCH   5  12
ATOM     12  C   UNL     1     112.858 126.316 137.735  0.00  0.00    +0.000 A 
ATOM     13  C   UNL     1     112.096 126.000 137.733  0.00  0.00    +0.000 A 
ATOM     14  C   UNL     1     113.499 125.852 137.500  0.00  0.00    +0.000 A 
ATOM     15  C   UNL     1     113.377 125.071 137.264  0.00  0.00    +0.000 A 
ATOM     16  C   UNL     1     111.975 125.218 137.497  0.00  0.00    +0.000 A 
ATOM     17  C   UNL     1     112.615 124.754 137.262  0.00  0.00    +0.000 A 
BRANCH  13  18
ATOM     18  O   UNL     1     111.457 126.464 137.968  0.00  0.00    +0.000 OA
ATOM     19  C   UNL     1     110.711 126.123 138.060  0.00  0.00    +0.000 C 
ENDBRANCH  13  18
BRANCH  15  20
ATOM     20  O   UNL     1     114.018 124.606 137.029  0.00  0.00    +0.000 OA
ATOM     21  C   UNL     1     114.753 124.707 137.389  0.00  0.00    +0.000 C 
ENDBRANCH  15  20
BRANCH  17  22
ATOM     22  O   UNL     1     112.494 123.973 137.025  0.00  0.00    +0.000 OA
ATOM     23  C   UNL     1     111.851 123.783 136.545  0.00  0.00    +0.000 C 
ENDBRANCH  17  22
ENDBRANCH   5  12
BRANCH   6  24
ATOM     24  O   UNL     1     113.024 127.506 136.604  0.00  0.00    +0.000 OA
ATOM     25  C   UNL     1     113.440 127.959 136.054  0.00  0.00    +0.000 C 
ENDBRANCH   6  24
BRANCH   7  26
ATOM     26  O   UNL     1     113.435 130.063 138.107  0.00  0.00    +0.000 OA
ATOM     27  C   UNL     1     112.773 130.487 137.855  0.00  0.00    +0.000 C 
ENDBRANCH   7  26
BRANCH  10  28
ATOM     28  O   UNL     1     113.517 130.457 139.749  0.00  0.00    +0.000 OA
ATOM     29  C   UNL     1     114.271 130.707 139.973  0.00  0.00    +0.000 C 
ENDBRANCH  10  28
BRANCH  11  30
ATOM     30  O   UNL     1     113.347 129.238 140.908  0.00  0.00    +0.000 OA
ATOM     31  C   UNL     1     113.008 128.731 141.463  0.00  0.00    +0.000 C 
ENDBRANCH  11  30
TORSDOF 8
ENDMDL
MODEL 5
REMARK VINA RESULT:      -6.6     11.406     13.292
REMARK  Name = 44259900
REMARK  8 active torsions:
REMARK  status: ('A' for Active; 'I' for Inactive)
REMARK    1  A    between atoms: O_2  and  C_14
REMARK    2  A    between atoms: O_3  and  C_15
REMARK    3  A    between atoms: O_4  and  C_18
REMARK    4  A    between atoms: O_5  and  C_19
REMARK    5  A    between atoms: O_6  and  C_20
REMARK    6  A    between atoms: O_8  and  C_22
REMARK    7  A    between atoms: O_9  and  C_24
REMARK    8  A    between atoms: C_12  and  C_13
REMARK                            x       y       z     vdW  Elec       q    Type
REMARK                         _______ _______ _______ _____ _____    ______ ____
ROOT
ATOM      1  O   UNL     1     104.318 125.390 146.155  0.00  0.00    +0.000 OA
ATOM      2  O   UNL     1     105.911 125.102 148.027  0.00  0.00    +0.000 OA
ATOM      3  C   UNL     1     105.571 125.693 146.772  0.00  0.00    +0.000 A 
ATOM      4  C   UNL     1     105.040 125.789 146.148  0.00  0.00    +0.000 A 
ATOM      5  C   UNL     1     104.127 124.895 146.788  0.00  0.00    +0.000 A 
ATOM      6  C   UNL     1     104.658 124.798 147.411  0.00  0.00    +0.000 A 
ATOM      7  C   UNL     1     106.326 126.103 146.775  0.00  0.00    +0.000 A 
ATOM      8  C   UNL     1     105.380 125.198 147.403  0.00  0.00    +0.000 A 
ATOM      9  C   UNL     1     105.227 126.302 145.484  0.00  0.00    +0.000 A 
ATOM     10  C   UNL     1     106.530 126.620 146.120  0.00  0.00    +0.000 A 
ATOM     11  C   UNL     1     105.977 126.720 145.470  0.00  0.00    +0.000 A 
ENDROOT
BRANCH   5  12
ATOM     12  C   UNL     1     103.405 124.496 146.795  0.00  0.00    +0.000 A 
ATOM     13  C   UNL     1     103.304 123.815 146.340  0.00  0.00    +0.000 A 
ATOM     14  C   UNL     1     102.782 124.779 147.258  0.00  0.00    +0.000 A 
ATOM     15  C   UNL     1     102.060 124.380 147.265  0.00  0.00    +0.000 A 
ATOM     16  C   UNL     1     102.582 123.417 146.348  0.00  0.00    +0.000 A 
ATOM     17  C   UNL     1     101.960 123.699 146.810  0.00  0.00    +0.000 A 
BRANCH  13  18
ATOM     18  O   UNL     1     103.926 123.532 145.878  0.00  0.00    +0.000 OA
ATOM     19  C   UNL     1     103.811 122.879 145.388  0.00  0.00    +0.000 C 
ENDBRANCH  13  18
BRANCH  15  20
ATOM     20  O   UNL     1     101.438 124.664 147.728  0.00  0.00    +0.000 OA
ATOM     21  C   UNL     1     101.441 125.447 147.987  0.00  0.00    +0.000 C 
ENDBRANCH  15  20
BRANCH  17  22
ATOM     22  O   UNL     1     101.237 123.301 146.819  0.00  0.00    +0.000 OA
ATOM     23  C   UNL     1     101.001 122.863 146.161  0.00  0.00    +0.000 C 
ENDBRANCH  17  22
ENDBRANCH   5  12
BRANCH   6  24
ATOM     24  O   UNL     1     104.467 124.304 148.042  0.00  0.00    +0.000 OA
ATOM     25  C   UNL     1     104.772 124.457 148.794  0.00  0.00    +0.000 C 
ENDBRANCH   6  24
BRANCH   7  26
ATOM     26  O   UNL     1     106.851 126.001 147.403  0.00  0.00    +0.000 OA
ATOM     27  C   UNL     1     107.423 125.407 147.369  0.00  0.00    +0.000 C 
ENDBRANCH   7  26
BRANCH  10  28
ATOM     28  O   UNL     1     107.253 127.018 146.115  0.00  0.00    +0.000 OA
ATOM     29  C   UNL     1     107.291 127.807 146.352  0.00  0.00    +0.000 C 
ENDBRANCH  10  28
BRANCH  11  30
ATOM     30  O   UNL     1     106.165 127.215 144.837  0.00  0.00    +0.000 OA
ATOM     31  C   UNL     1     105.730 127.173 144.137  0.00  0.00    +0.000 C 
ENDBRANCH  11  30
TORSDOF 8
ENDMDL
MODEL 6
REMARK VINA RESULT:      -6.6      1.796      2.590
REMARK  Name = 44259900
REMARK  8 active torsions:
REMARK  status: ('A' for Active; 'I' for Inactive)
REMARK    1  A    between atoms: O_2  and  C_14
REMARK    2  A    between atoms: O_3  and  C_15
REMARK    3  A    between atoms: O_4  and  C_18
REMARK    4  A    between atoms: O_5  and  C_19
REMARK    5  A    between atoms: O_6  and  C_20
REMARK    6  A    between atoms: O_8  and  C_22
REMARK    7  A    between atoms: O_9  and  C_24
REMARK    8  A    between atoms: C_12  and  C_13
REMARK                            x       y       z     vdW  Elec       q    Type
REMARK                         _______ _______ _______ _____ _____    ______ ____
ROOT
ATOM      1  O   UNL     1     112.824 127.884 138.666  0.00  0.00    +0.000 OA
ATOM      2  O   UNL     1     112.885 127.794 141.139  0.00  0.00    +0.000 OA
ATOM      3  C   UNL     1     113.129 128.498 139.920  0.00  0.00    +0.000 A 
ATOM      4  C   UNL     1     113.108 128.528 139.096  0.00  0.00    +0.000 A 
ATOM      5  C   UNL     1     112.560 127.209 139.062  0.00  0.00    +0.000 A 
ATOM      6  C   UNL     1     112.580 127.179 139.886  0.00  0.00    +0.000 A 
ATOM      7  C   UNL     1     113.422 129.163 140.379  0.00  0.00    +0.000 A 
ATOM      8  C   UNL     1     112.865 127.824 140.315  0.00  0.00    +0.000 A 
ATOM      9  C   UNL     1     113.381 129.225 138.673  0.00  0.00    +0.000 A 
ATOM     10  C   UNL     1     113.699 129.868 139.973  0.00  0.00    +0.000 A 
ATOM     11  C   UNL     1     113.678 129.899 139.114  0.00  0.00    +0.000 A 
ENDROOT
BRANCH   5  12
ATOM     12  C   UNL     1     112.276 126.564 138.632  0.00  0.00    +0.000 A 
ATOM     13  C   UNL     1     112.804 126.028 138.294  0.00  0.00    +0.000 A 
ATOM     14  C   UNL     1     111.462 126.457 138.540  0.00  0.00    +0.000 A 
ATOM     15  C   UNL     1     111.178 125.813 138.111  0.00  0.00    +0.000 A 
ATOM     16  C   UNL     1     112.518 125.384 137.865  0.00  0.00    +0.000 A 
ATOM     17  C   UNL     1     111.706 125.276 137.773  0.00  0.00    +0.000 A 
BRANCH  13  18
ATOM     18  O   UNL     1     113.616 126.136 138.386  0.00  0.00    +0.000 OA
ATOM     19  C   UNL     1     114.145 125.650 137.981  0.00  0.00    +0.000 C 
ENDBRANCH  13  18
BRANCH  15  20
ATOM     20  O   UNL     1     110.365 125.705 138.019  0.00  0.00    +0.000 OA
ATOM     21  C   UNL     1     109.872 126.359 137.919  0.00  0.00    +0.000 C 
ENDBRANCH  15  20
BRANCH  17  22
ATOM     22  O   UNL     1     111.421 124.632 137.343  0.00  0.00    +0.000 OA
ATOM     23  C   UNL     1     111.859 123.934 137.307  0.00  0.00    +0.000 C 
ENDBRANCH  17  22
ENDBRANCH   5  12
BRANCH   6  24
ATOM     24  O   UNL     1     112.316 126.505 140.281  0.00  0.00    +0.000 OA
ATOM     25  C   UNL     1     112.020 126.566 141.048  0.00  0.00    +0.000 C 
ENDBRANCH   6  24
BRANCH   7  26
ATOM     26  O   UNL     1     113.439 129.124 141.203  0.00  0.00    +0.000 OA
ATOM     27  C   UNL     1     112.812 129.432 141.642  0.00  0.00    +0.000 C 
ENDBRANCH   7  26
BRANCH  10  28
ATOM     28  O   UNL     1     113.983 130.511 140.405  0.00  0.00    +0.000 OA
ATOM     29  C   UNL     1     114.795 130.625 140.489  0.00  0.00    +0.000 C 
ENDBRANCH  10  28
BRANCH  11  30
ATOM     30  O   UNL     1     113.941 130.572 138.716  0.00  0.00    +0.000 OA
ATOM     31  C   UNL     1     113.774 130.670 137.914  0.00  0.00    +0.000 C 
ENDBRANCH  11  30
TORSDOF 8
ENDMDL
MODEL 7
REMARK VINA RESULT:      -6.5      1.616      4.860
REMARK  Name = 44259900
REMARK  8 active torsions:
REMARK  status: ('A' for Active; 'I' for Inactive)
REMARK    1  A    between atoms: O_2  and  C_14
REMARK    2  A    between atoms: O_3  and  C_15
REMARK    3  A    between atoms: O_4  and  C_18
REMARK    4  A    between atoms: O_5  and  C_19
REMARK    5  A    between atoms: O_6  and  C_20
REMARK    6  A    between atoms: O_8  and  C_22
REMARK    7  A    between atoms: O_9  and  C_24
REMARK    8  A    between atoms: C_12  and  C_13
REMARK                            x       y       z     vdW  Elec       q    Type
REMARK                         _______ _______ _______ _____ _____    ______ ____
ROOT
ATOM      1  O   UNL     1     113.460 127.585 138.488  0.00  0.00    +0.000 OA
ATOM      2  O   UNL     1     110.999 127.382 138.665  0.00  0.00    +0.000 OA
ATOM      3  C   UNL     1     112.261 126.836 138.276  0.00  0.00    +0.000 A 
ATOM      4  C   UNL     1     113.081 126.904 138.218  0.00  0.00    +0.000 A 
ATOM      5  C   UNL     1     113.018 128.199 138.818  0.00  0.00    +0.000 A 
ATOM      6  C   UNL     1     112.197 128.132 138.877  0.00  0.00    +0.000 A 
ATOM      7  C   UNL     1     111.855 126.131 137.998  0.00  0.00    +0.000 A 
ATOM      8  C   UNL     1     111.820 127.450 138.606  0.00  0.00    +0.000 A 
ATOM      9  C   UNL     1     113.552 126.271 137.876  0.00  0.00    +0.000 A 
ATOM     10  C   UNL     1     112.310 125.489 137.654  0.00  0.00    +0.000 A 
ATOM     11  C   UNL     1     113.165 125.559 137.593  0.00  0.00    +0.000 A 
ENDROOT
BRANCH   5  12
ATOM     12  C   UNL     1     113.396 128.880 139.088  0.00  0.00    +0.000 A 
ATOM     13  C   UNL     1     113.761 128.884 139.828  0.00  0.00    +0.000 A 
ATOM     14  C   UNL     1     113.410 129.559 138.618  0.00  0.00    +0.000 A 
ATOM     15  C   UNL     1     113.789 130.239 138.888  0.00  0.00    +0.000 A 
ATOM     16  C   UNL     1     114.140 129.566 140.097  0.00  0.00    +0.000 A 
ATOM     17  C   UNL     1     114.154 130.243 139.628  0.00  0.00    +0.000 A 
BRANCH  13  18
ATOM     18  O   UNL     1     113.748 128.206 140.297  0.00  0.00    +0.000 OA
ATOM     19  C   UNL     1     114.200 128.172 140.986  0.00  0.00    +0.000 C 
ENDBRANCH  13  18
BRANCH  15  20
ATOM     20  O   UNL     1     113.803 130.918 138.417  0.00  0.00    +0.000 OA
ATOM     21  C   UNL     1     113.834 130.849 137.596  0.00  0.00    +0.000 C 
ENDBRANCH  15  20
BRANCH  17  22
ATOM     22  O   UNL     1     114.533 130.925 139.897  0.00  0.00    +0.000 OA
ATOM     23  C   UNL     1     114.948 130.911 140.610  0.00  0.00    +0.000 C 
ENDBRANCH  17  22
ENDBRANCH   5  12
BRANCH   6  24
ATOM     24  O   UNL     1     111.756 128.745 139.206  0.00  0.00    +0.000 OA
ATOM     25  C   UNL     1     110.978 128.871 138.961  0.00  0.00    +0.000 C 
ENDBRANCH   6  24
BRANCH   7  26
ATOM     26  O   UNL     1     111.035 126.073 138.061  0.00  0.00    +0.000 OA
ATOM     27  C   UNL     1     110.697 125.737 138.734  0.00  0.00    +0.000 C 
ENDBRANCH   7  26
BRANCH  10  28
ATOM     28  O   UNL     1     111.929 124.809 137.384  0.00  0.00    +0.000 OA
ATOM     29  C   UNL     1     111.762 124.720 136.581  0.00  0.00    +0.000 C 
ENDBRANCH  10  28
BRANCH  11  30
ATOM     30  O   UNL     1     113.609 124.947 137.264  0.00  0.00    +0.000 OA
ATOM     31  C   UNL     1     114.430 124.941 137.349  0.00  0.00    +0.000 C 
ENDBRANCH  11  30
TORSDOF 8
ENDMDL
MODEL 8
REMARK VINA RESULT:      -6.5      1.448      2.469
REMARK  Name = 44259900
REMARK  8 active torsions:
REMARK  status: ('A' for Active; 'I' for Inactive)
REMARK    1  A    between atoms: O_2  and  C_14
REMARK    2  A    between atoms: O_3  and  C_15
REMARK    3  A    between atoms: O_4  and  C_18
REMARK    4  A    between atoms: O_5  and  C_19
REMARK    5  A    between atoms: O_6  and  C_20
REMARK    6  A    between atoms: O_8  and  C_22
REMARK    7  A    between atoms: O_9  and  C_24
REMARK    8  A    between atoms: C_12  and  C_13
REMARK                            x       y       z     vdW  Elec       q    Type
REMARK                         _______ _______ _______ _____ _____    ______ ____
ROOT
ATOM      1  O   UNL     1     111.892 128.085 137.751  0.00  0.00    +0.000 OA
ATOM      2  O   UNL     1     113.447 129.558 136.510  0.00  0.00    +0.000 OA
ATOM      3  C   UNL     1     112.365 129.395 137.428  0.00  0.00    +0.000 A 
ATOM      4  C   UNL     1     111.847 128.904 137.842  0.00  0.00    +0.000 A 
ATOM      5  C   UNL     1     112.458 127.757 137.247  0.00  0.00    +0.000 A 
ATOM      6  C   UNL     1     112.976 128.248 136.833  0.00  0.00    +0.000 A 
ATOM      7  C   UNL     1     112.326 130.249 137.514  0.00  0.00    +0.000 A 
ATOM      8  C   UNL     1     112.929 129.067 136.924  0.00  0.00    +0.000 A 
ATOM      9  C   UNL     1     111.254 129.233 138.370  0.00  0.00    +0.000 A 
ATOM     10  C   UNL     1     111.740 130.596 138.038  0.00  0.00    +0.000 A 
ATOM     11  C   UNL     1     111.200 130.084 138.469  0.00  0.00    +0.000 A 
ENDROOT
BRANCH   5  12
ATOM     12  C   UNL     1     112.504 126.939 137.156  0.00  0.00    +0.000 A 
ATOM     13  C   UNL     1     112.921 126.485 137.705  0.00  0.00    +0.000 A 
ATOM     14  C   UNL     1     112.132 126.573 136.516  0.00  0.00    +0.000 A 
ATOM     15  C   UNL     1     112.178 125.754 136.426  0.00  0.00    +0.000 A 
ATOM     16  C   UNL     1     112.966 125.666 137.614  0.00  0.00    +0.000 A 
ATOM     17  C   UNL     1     112.595 125.301 136.975  0.00  0.00    +0.000 A 
BRANCH  13  18
ATOM     18  O   UNL     1     113.292 126.851 138.344  0.00  0.00    +0.000 OA
ATOM     19  C   UNL     1     113.596 126.394 138.960  0.00  0.00    +0.000 C 
ENDBRANCH  13  18
BRANCH  15  20
ATOM     20  O   UNL     1     111.806 125.389 135.786  0.00  0.00    +0.000 OA
ATOM     21  C   UNL     1     111.056 125.637 135.549  0.00  0.00    +0.000 C 
ENDBRANCH  15  20
BRANCH  17  22
ATOM     22  O   UNL     1     112.640 124.482 136.883  0.00  0.00    +0.000 OA
ATOM     23  C   UNL     1     113.365 124.098 136.967  0.00  0.00    +0.000 C 
ENDBRANCH  17  22
ENDBRANCH   5  12
BRANCH   6  24
ATOM     24  O   UNL     1     113.540 127.920 136.329  0.00  0.00    +0.000 OA
ATOM     25  C   UNL     1     113.817 128.353 135.683  0.00  0.00    +0.000 C 
ENDBRANCH   6  24
BRANCH   7  26
ATOM     26  O   UNL     1     112.848 130.732 137.096  0.00  0.00    +0.000 OA
ATOM     27  C   UNL     1     113.572 130.943 137.432  0.00  0.00    +0.000 C 
ENDBRANCH   7  26
BRANCH  10  28
ATOM     28  O   UNL     1     111.696 131.415 138.126  0.00  0.00    +0.000 OA
ATOM     29  C   UNL     1     111.134 131.846 137.704  0.00  0.00    +0.000 C 
ENDBRANCH  10  28
BRANCH  11  30
ATOM     30  O   UNL     1     110.635 130.410 138.974  0.00  0.00    +0.000 OA
ATOM     31  C   UNL     1     110.265 129.935 139.539  0.00  0.00    +0.000 C 
ENDBRANCH  11  30
TORSDOF 8
ENDMDL
MODEL 9
REMARK VINA RESULT:      -6.4      1.267      4.686
REMARK  Name = 44259900
REMARK  8 active torsions:
REMARK  status: ('A' for Active; 'I' for Inactive)
REMARK    1  A    between atoms: O_2  and  C_14
REMARK    2  A    between atoms: O_3  and  C_15
REMARK    3  A    between atoms: O_4  and  C_18
REMARK    4  A    between atoms: O_5  and  C_19
REMARK    5  A    between atoms: O_6  and  C_20
REMARK    6  A    between atoms: O_8  and  C_22
REMARK    7  A    between atoms: O_9  and  C_24
REMARK    8  A    between atoms: C_12  and  C_13
REMARK                            x       y       z     vdW  Elec       q    Type
REMARK                         _______ _______ _______ _____ _____    ______ ____
ROOT
ATOM      1  O   UNL     1     111.853 127.300 137.307  0.00  0.00    +0.000 OA
ATOM      2  O   UNL     1     113.679 126.099 138.467  0.00  0.00    +0.000 OA
ATOM      3  C   UNL     1     112.610 126.107 137.520  0.00  0.00    +0.000 A 
ATOM      4  C   UNL     1     112.002 126.508 137.133  0.00  0.00    +0.000 A 
ATOM      5  C   UNL     1     112.315 127.693 137.868  0.00  0.00    +0.000 A 
ATOM      6  C   UNL     1     112.923 127.292 138.255  0.00  0.00    +0.000 A 
ATOM      7  C   UNL     1     112.774 125.281 137.347  0.00  0.00    +0.000 A 
ATOM      8  C   UNL     1     113.071 126.499 138.080  0.00  0.00    +0.000 A 
ATOM      9  C   UNL     1     111.515 126.110 136.547  0.00  0.00    +0.000 A 
ATOM     10  C   UNL     1     112.298 124.868 136.764  0.00  0.00    +0.000 A 
ATOM     11  C   UNL     1     111.663 125.285 136.361  0.00  0.00    +0.000 A 
ENDROOT
BRANCH   5  12
ATOM     12  C   UNL     1     112.166 128.485 138.042  0.00  0.00    +0.000 A 
ATOM     13  C   UNL     1     112.468 129.078 137.554  0.00  0.00    +0.000 A 
ATOM     14  C   UNL     1     111.715 128.685 138.704  0.00  0.00    +0.000 A 
ATOM     15  C   UNL     1     111.567 129.477 138.877  0.00  0.00    +0.000 A 
ATOM     16  C   UNL     1     112.319 129.871 137.729  0.00  0.00    +0.000 A 
ATOM     17  C   UNL     1     111.869 130.070 138.390  0.00  0.00    +0.000 A 
BRANCH  13  18
ATOM     18  O   UNL     1     112.919 128.879 136.893  0.00  0.00    +0.000 OA
ATOM     19  C   UNL     1     113.201 129.471 136.393  0.00  0.00    +0.000 C 
ENDBRANCH  13  18
BRANCH  15  20
ATOM     20  O   UNL     1     111.115 129.677 139.539  0.00  0.00    +0.000 OA
ATOM     21  C   UNL     1     110.525 129.165 139.805  0.00  0.00    +0.000 C 
ENDBRANCH  15  20
BRANCH  17  22
ATOM     22  O   UNL     1     111.720 130.863 138.565  0.00  0.00    +0.000 OA
ATOM     23  C   UNL     1     111.560 131.396 137.956  0.00  0.00    +0.000 C 
ENDBRANCH  17  22
ENDBRANCH   5  12
BRANCH   6  24
ATOM     24  O   UNL     1     113.384 127.684 138.815  0.00  0.00    +0.000 OA
ATOM     25  C   UNL     1     113.667 127.277 139.474  0.00  0.00    +0.000 C 
ENDBRANCH   6  24
BRANCH   7  26
ATOM     26  O   UNL     1     113.385 124.889 137.739  0.00  0.00    +0.000 OA
ATOM     27  C   UNL     1     114.143 124.880 137.414  0.00  0.00    +0.000 C 
ENDBRANCH   7  26
BRANCH  10  28
ATOM     28  O   UNL     1     112.448 124.075 136.592  0.00  0.00    +0.000 OA
ATOM     29  C   UNL     1     112.005 123.482 136.958  0.00  0.00    +0.000 C 
ENDBRANCH  10  28
BRANCH  11  30
ATOM     30  O   UNL     1     111.201 124.895 135.800  0.00  0.00    +0.000 OA
ATOM     31  C   UNL     1     110.657 125.320 135.347  0.00  0.00    +0.000 C 
ENDBRANCH  11  30
TORSDOF 8
ENDMDL
