MODEL 1
REMARK VINA RESULT:      -8.4      0.000      0.000
REMARK  Name = 14353344
REMARK  2 active torsions:
REMARK  status: ('A' for Active; 'I' for Inactive)
REMARK    1  A    between atoms: O_5  and  C_20
REMARK    2  A    between atoms: C_6  and  C_8
REMARK                            x       y       z     vdW  Elec       q    Type
REMARK                         _______ _______ _______ _____ _____    ______ ____
ROOT
ATOM      1  O   UNL     1     104.711 123.327 139.024  0.00  0.00    +0.000 OA
ATOM      2  O   UNL     1     104.854 125.759 139.462  0.00  0.00    +0.000 OA
ATOM      3  O   UNL     1     105.715 125.533 140.597  0.00  0.00    +0.000 OA
ATOM      4  O   UNL     1     106.543 124.454 141.601  0.00  0.00    +0.000 OA
ATOM      5  C   UNL     1     104.309 123.858 138.537  0.00  0.00    +0.000 C 
ATOM      6  C   UNL     1     104.357 124.668 138.683  0.00  0.00    +0.000 C 
ATOM      7  C   UNL     1     105.208 124.417 139.802  0.00  0.00    +0.000 A 
ATOM      8  C   UNL     1     104.807 124.947 139.316  0.00  0.00    +0.000 C 
ATOM      9  C   UNL     1     105.161 123.606 139.657  0.00  0.00    +0.000 A 
ATOM     10  C   UNL     1     105.674 124.720 140.459  0.00  0.00    +0.000 A 
ATOM     11  C   UNL     1     105.575 123.043 140.157  0.00  0.00    +0.000 A 
ATOM     12  C   UNL     1     106.094 124.172 140.969  0.00  0.00    +0.000 A 
ATOM     13  C   UNL     1     106.045 123.328 140.817  0.00  0.00    +0.000 A 
ENDROOT
BRANCH   5  14
ATOM     14  C   UNL     1     103.860 123.578 137.905  0.00  0.00    +0.000 A 
ATOM     15  C   UNL     1     103.038 123.545 137.964  0.00  0.00    +0.000 A 
ATOM     16  C   UNL     1     104.233 123.332 137.210  0.00  0.00    +0.000 A 
ATOM     17  C   UNL     1     102.588 123.266 137.332  0.00  0.00    +0.000 A 
ATOM     18  C   UNL     1     103.783 123.052 136.578  0.00  0.00    +0.000 A 
ATOM     19  C   UNL     1     102.961 123.019 136.638  0.00  0.00    +0.000 A 
BRANCH  19  20
ATOM     20  O   UNL     1     102.511 122.740 136.005  0.00  0.00    +0.000 OA
ATOM     21  C   UNL     1     102.641 123.032 135.245  0.00  0.00    +0.000 C 
ENDBRANCH  19  20
ENDBRANCH   5  14
TORSDOF 2
ENDMDL
MODEL 2
REMARK VINA RESULT:      -8.4      6.673      8.155
REMARK  Name = 14353344
REMARK  2 active torsions:
REMARK  status: ('A' for Active; 'I' for Inactive)
REMARK    1  A    between atoms: O_5  and  C_20
REMARK    2  A    between atoms: C_6  and  C_8
REMARK                            x       y       z     vdW  Elec       q    Type
REMARK                         _______ _______ _______ _____ _____    ______ ____
ROOT
ATOM      1  O   UNL     1     102.956 130.493 142.095  0.00  0.00    +0.000 OA
ATOM      2  O   UNL     1     102.652 129.350 139.921  0.00  0.00    +0.000 OA
ATOM      3  O   UNL     1     103.604 128.332 140.291  0.00  0.00    +0.000 OA
ATOM      4  O   UNL     1     104.680 127.692 141.426  0.00  0.00    +0.000 OA
ATOM      5  C   UNL     1     102.432 130.802 141.537  0.00  0.00    +0.000 C 
ATOM      6  C   UNL     1     102.330 130.421 140.813  0.00  0.00    +0.000 C 
ATOM      7  C   UNL     1     103.277 129.424 141.204  0.00  0.00    +0.000 A 
ATOM      8  C   UNL     1     102.753 129.732 140.646  0.00  0.00    +0.000 C 
ATOM      9  C   UNL     1     103.379 129.805 141.928  0.00  0.00    +0.000 A 
ATOM     10  C   UNL     1     103.712 128.706 141.019  0.00  0.00    +0.000 A 
ATOM     11  C   UNL     1     103.922 129.494 142.518  0.00  0.00    +0.000 A 
ATOM     12  C   UNL     1     104.259 128.381 141.596  0.00  0.00    +0.000 A 
ATOM     13  C   UNL     1     104.365 128.778 142.350  0.00  0.00    +0.000 A 
ENDROOT
BRANCH   5  14
ATOM     14  C   UNL     1     102.010 131.490 141.703  0.00  0.00    +0.000 A 
ATOM     15  C   UNL     1     101.254 131.442 142.031  0.00  0.00    +0.000 A 
ATOM     16  C   UNL     1     102.343 132.228 141.542  0.00  0.00    +0.000 A 
ATOM     17  C   UNL     1     100.831 132.130 142.197  0.00  0.00    +0.000 A 
ATOM     18  C   UNL     1     101.920 132.917 141.709  0.00  0.00    +0.000 A 
ATOM     19  C   UNL     1     101.165 132.868 142.036  0.00  0.00    +0.000 A 
BRANCH  19  20
ATOM     20  O   UNL     1     100.742 133.557 142.203  0.00  0.00    +0.000 OA
ATOM     21  C   UNL     1     100.710 134.166 141.649  0.00  0.00    +0.000 C 
ENDBRANCH  19  20
ENDBRANCH   5  14
TORSDOF 2
ENDMDL
MODEL 3
REMARK VINA RESULT:      -8.3      7.238      7.992
REMARK  Name = 14353344
REMARK  2 active torsions:
REMARK  status: ('A' for Active; 'I' for Inactive)
REMARK    1  A    between atoms: O_5  and  C_20
REMARK    2  A    between atoms: C_6  and  C_8
REMARK                            x       y       z     vdW  Elec       q    Type
REMARK                         _______ _______ _______ _____ _____    ______ ____
ROOT
ATOM      1  O   UNL     1     104.996 124.249 147.136  0.00  0.00    +0.000 OA
ATOM      2  O   UNL     1     106.011 125.397 145.192  0.00  0.00    +0.000 OA
ATOM      3  O   UNL     1     107.190 125.713 145.959  0.00  0.00    +0.000 OA
ATOM      4  O   UNL     1     108.039 125.635 147.418  0.00  0.00    +0.000 OA
ATOM      5  C   UNL     1     104.585 124.290 146.421  0.00  0.00    +0.000 C 
ATOM      6  C   UNL     1     104.924 124.673 145.773  0.00  0.00    +0.000 C 
ATOM      7  C   UNL     1     106.082 124.973 146.555  0.00  0.00    +0.000 A 
ATOM      8  C   UNL     1     105.672 125.014 145.841  0.00  0.00    +0.000 C 
ATOM      9  C   UNL     1     105.743 124.590 147.203  0.00  0.00    +0.000 A 
ATOM     10  C   UNL     1     106.860 125.333 146.612  0.00  0.00    +0.000 A 
ATOM     11  C   UNL     1     106.160 124.541 147.953  0.00  0.00    +0.000 A 
ATOM     12  C   UNL     1     107.292 125.293 147.354  0.00  0.00    +0.000 A 
ATOM     13  C   UNL     1     106.939 124.894 148.029  0.00  0.00    +0.000 A 
ENDROOT
BRANCH   5  14
ATOM     14  C   UNL     1     103.838 123.949 146.354  0.00  0.00    +0.000 A 
ATOM     15  C   UNL     1     103.745 123.231 145.957  0.00  0.00    +0.000 A 
ATOM     16  C   UNL     1     103.181 124.325 146.684  0.00  0.00    +0.000 A 
ATOM     17  C   UNL     1     102.998 122.890 145.890  0.00  0.00    +0.000 A 
ATOM     18  C   UNL     1     102.433 123.983 146.617  0.00  0.00    +0.000 A 
ATOM     19  C   UNL     1     102.341 123.267 146.220  0.00  0.00    +0.000 A 
BRANCH  19  20
ATOM     20  O   UNL     1     101.593 122.925 146.153  0.00  0.00    +0.000 OA
ATOM     21  C   UNL     1     101.108 123.116 145.514  0.00  0.00    +0.000 C 
ENDBRANCH  19  20
ENDBRANCH   5  14
TORSDOF 2
ENDMDL
MODEL 4
REMARK VINA RESULT:      -8.1      7.539      8.161
REMARK  Name = 14353344
REMARK  2 active torsions:
REMARK  status: ('A' for Active; 'I' for Inactive)
REMARK    1  A    between atoms: O_5  and  C_20
REMARK    2  A    between atoms: C_6  and  C_8
REMARK                            x       y       z     vdW  Elec       q    Type
REMARK                         _______ _______ _______ _____ _____    ______ ____
ROOT
ATOM      1  O   UNL     1     112.168 125.878 136.384  0.00  0.00    +0.000 OA
ATOM      2  O   UNL     1     112.182 123.465 136.931  0.00  0.00    +0.000 OA
ATOM      3  O   UNL     1     113.599 123.505 137.199  0.00  0.00    +0.000 OA
ATOM      4  O   UNL     1     115.038 124.388 137.282  0.00  0.00    +0.000 OA
ATOM      5  C   UNL     1     111.468 125.443 136.345  0.00  0.00    +0.000 C 
ATOM      6  C   UNL     1     111.473 124.638 136.528  0.00  0.00    +0.000 C 
ATOM      7  C   UNL     1     112.876 124.706 136.787  0.00  0.00    +0.000 A 
ATOM      8  C   UNL     1     112.178 124.270 136.749  0.00  0.00    +0.000 C 
ATOM      9  C   UNL     1     112.872 125.510 136.605  0.00  0.00    +0.000 A 
ATOM     10  C   UNL     1     113.604 124.310 137.019  0.00  0.00    +0.000 A 
ATOM     11  C   UNL     1     113.594 125.975 136.642  0.00  0.00    +0.000 A 
ATOM     12  C   UNL     1     114.335 124.759 137.061  0.00  0.00    +0.000 A 
ATOM     13  C   UNL     1     114.330 125.597 136.871  0.00  0.00    +0.000 A 
ENDROOT
BRANCH   5  14
ATOM     14  C   UNL     1     110.764 125.811 136.124  0.00  0.00    +0.000 A 
ATOM     15  C   UNL     1     110.521 125.798 135.336  0.00  0.00    +0.000 A 
ATOM     16  C   UNL     1     110.302 126.193 136.693  0.00  0.00    +0.000 A 
ATOM     17  C   UNL     1     109.817 126.166 135.115  0.00  0.00    +0.000 A 
ATOM     18  C   UNL     1     109.598 126.562 136.471  0.00  0.00    +0.000 A 
ATOM     19  C   UNL     1     109.355 126.549 135.684  0.00  0.00    +0.000 A 
BRANCH  19  20
ATOM     20  O   UNL     1     108.651 126.917 135.462  0.00  0.00    +0.000 OA
ATOM     21  C   UNL     1     108.513 127.703 135.669  0.00  0.00    +0.000 C 
ENDBRANCH  19  20
ENDBRANCH   5  14
TORSDOF 2
ENDMDL
MODEL 5
REMARK VINA RESULT:      -7.8      7.483      9.019
REMARK  Name = 14353344
REMARK  2 active torsions:
REMARK  status: ('A' for Active; 'I' for Inactive)
REMARK    1  A    between atoms: O_5  and  C_20
REMARK    2  A    between atoms: C_6  and  C_8
REMARK                            x       y       z     vdW  Elec       q    Type
REMARK                         _______ _______ _______ _____ _____    ______ ____
ROOT
ATOM      1  O   UNL     1     104.533 123.868 146.395  0.00  0.00    +0.000 OA
ATOM      2  O   UNL     1     102.714 125.198 147.419  0.00  0.00    +0.000 OA
ATOM      3  O   UNL     1     101.717 124.337 146.832  0.00  0.00    +0.000 OA
ATOM      4  O   UNL     1     101.334 122.997 145.877  0.00  0.00    +0.000 OA
ATOM      5  C   UNL     1     104.715 124.524 146.862  0.00  0.00    +0.000 C 
ATOM      6  C   UNL     1     104.109 124.967 147.203  0.00  0.00    +0.000 C 
ATOM      7  C   UNL     1     103.141 124.099 146.610  0.00  0.00    +0.000 A 
ATOM      8  C   UNL     1     103.321 124.754 147.077  0.00  0.00    +0.000 C 
ATOM      9  C   UNL     1     103.747 123.656 146.269  0.00  0.00    +0.000 A 
ATOM     10  C   UNL     1     102.316 123.888 146.486  0.00  0.00    +0.000 A 
ATOM     11  C   UNL     1     103.571 122.971 145.780  0.00  0.00    +0.000 A 
ATOM     12  C   UNL     1     102.122 123.207 146.001  0.00  0.00    +0.000 A 
ATOM     13  C   UNL     1     102.753 122.745 145.646  0.00  0.00    +0.000 A 
ENDROOT
BRANCH   5  14
ATOM     14  C   UNL     1     105.502 124.736 146.988  0.00  0.00    +0.000 A 
ATOM     15  C   UNL     1     105.859 124.585 147.716  0.00  0.00    +0.000 A 
ATOM     16  C   UNL     1     105.932 125.101 146.385  0.00  0.00    +0.000 A 
ATOM     17  C   UNL     1     106.646 124.798 147.842  0.00  0.00    +0.000 A 
ATOM     18  C   UNL     1     106.720 125.313 146.511  0.00  0.00    +0.000 A 
ATOM     19  C   UNL     1     107.076 125.162 147.239  0.00  0.00    +0.000 A 
BRANCH  19  20
ATOM     20  O   UNL     1     107.864 125.374 147.366  0.00  0.00    +0.000 OA
ATOM     21  C   UNL     1     108.289 125.033 147.983  0.00  0.00    +0.000 C 
ENDBRANCH  19  20
ENDBRANCH   5  14
TORSDOF 2
ENDMDL
MODEL 6
REMARK VINA RESULT:      -7.8      6.854      7.850
REMARK  Name = 14353344
REMARK  2 active torsions:
REMARK  status: ('A' for Active; 'I' for Inactive)
REMARK    1  A    between atoms: O_5  and  C_20
REMARK    2  A    between atoms: C_6  and  C_8
REMARK                            x       y       z     vdW  Elec       q    Type
REMARK                         _______ _______ _______ _____ _____    ______ ____
ROOT
ATOM      1  O   UNL     1     110.547 127.319 135.720  0.00  0.00    +0.000 OA
ATOM      2  O   UNL     1     108.122 127.377 136.214  0.00  0.00    +0.000 OA
ATOM      3  O   UNL     1     108.039 128.751 135.781  0.00  0.00    +0.000 OA
ATOM      4  O   UNL     1     108.798 130.130 135.168  0.00  0.00    +0.000 OA
ATOM      5  C   UNL     1     110.171 126.648 136.020  0.00  0.00    +0.000 C 
ATOM      6  C   UNL     1     109.363 126.667 136.184  0.00  0.00    +0.000 C 
ATOM      7  C   UNL     1     109.307 128.028 135.750  0.00  0.00    +0.000 A 
ATOM      8  C   UNL     1     108.931 127.358 136.049  0.00  0.00    +0.000 C 
ATOM      9  C   UNL     1     110.115 128.008 135.585  0.00  0.00    +0.000 A 
ATOM     10  C   UNL     1     108.846 128.741 135.613  0.00  0.00    +0.000 A 
ATOM     11  C   UNL     1     110.519 128.700 135.273  0.00  0.00    +0.000 A 
ATOM     12  C   UNL     1     109.233 129.442 135.302  0.00  0.00    +0.000 A 
ATOM     13  C   UNL     1     110.074 129.421 135.130  0.00  0.00    +0.000 A 
ENDROOT
BRANCH   5  14
ATOM     14  C   UNL     1     110.602 125.958 136.154  0.00  0.00    +0.000 A 
ATOM     15  C   UNL     1     110.757 125.439 135.532  0.00  0.00    +0.000 A 
ATOM     16  C   UNL     1     110.880 125.787 136.913  0.00  0.00    +0.000 A 
ATOM     17  C   UNL     1     111.188 124.750 135.667  0.00  0.00    +0.000 A 
ATOM     18  C   UNL     1     111.312 125.097 137.048  0.00  0.00    +0.000 A 
ATOM     19  C   UNL     1     111.466 124.578 136.426  0.00  0.00    +0.000 A 
BRANCH  19  20
ATOM     20  O   UNL     1     111.898 123.888 136.560  0.00  0.00    +0.000 OA
ATOM     21  C   UNL     1     112.685 123.934 136.799  0.00  0.00    +0.000 C 
ENDBRANCH  19  20
ENDBRANCH   5  14
TORSDOF 2
ENDMDL
MODEL 7
REMARK VINA RESULT:      -7.7      8.942     10.100
REMARK  Name = 14353344
REMARK  2 active torsions:
REMARK  status: ('A' for Active; 'I' for Inactive)
REMARK    1  A    between atoms: O_5  and  C_20
REMARK    2  A    between atoms: C_6  and  C_8
REMARK                            x       y       z     vdW  Elec       q    Type
REMARK                         _______ _______ _______ _____ _____    ______ ____
ROOT
ATOM      1  O   UNL     1     112.618 126.522 136.343  0.00  0.00    +0.000 OA
ATOM      2  O   UNL     1     114.428 125.071 137.204  0.00  0.00    +0.000 OA
ATOM      3  O   UNL     1     113.577 123.910 137.117  0.00  0.00    +0.000 OA
ATOM      4  O   UNL     1     112.078 123.232 136.729  0.00  0.00    +0.000 OA
ATOM      5  C   UNL     1     113.352 126.848 136.534  0.00  0.00    +0.000 C 
ATOM      6  C   UNL     1     113.955 126.364 136.821  0.00  0.00    +0.000 C 
ATOM      7  C   UNL     1     113.091 125.230 136.726  0.00  0.00    +0.000 A 
ATOM      8  C   UNL     1     113.824 125.555 136.917  0.00  0.00    +0.000 C 
ATOM      9  C   UNL     1     112.488 125.714 136.439  0.00  0.00    +0.000 A 
ATOM     10  C   UNL     1     112.968 124.386 136.830  0.00  0.00    +0.000 A 
ATOM     11  C   UNL     1     111.719 125.387 136.236  0.00  0.00    +0.000 A 
ATOM     12  C   UNL     1     112.206 124.041 136.632  0.00  0.00    +0.000 A 
ATOM     13  C   UNL     1     111.577 124.545 136.334  0.00  0.00    +0.000 A 
ENDROOT
BRANCH   5  14
ATOM     14  C   UNL     1     113.482 127.656 136.439  0.00  0.00    +0.000 A 
ATOM     15  C   UNL     1     113.228 128.187 137.017  0.00  0.00    +0.000 A 
ATOM     16  C   UNL     1     113.867 127.935 135.764  0.00  0.00    +0.000 A 
ATOM     17  C   UNL     1     113.358 128.996 136.922  0.00  0.00    +0.000 A 
ATOM     18  C   UNL     1     113.998 128.745 135.668  0.00  0.00    +0.000 A 
ATOM     19  C   UNL     1     113.743 129.275 136.246  0.00  0.00    +0.000 A 
BRANCH  19  20
ATOM     20  O   UNL     1     113.874 130.084 136.151  0.00  0.00    +0.000 OA
ATOM     21  C   UNL     1     114.635 130.391 136.225  0.00  0.00    +0.000 C 
ENDBRANCH  19  20
ENDBRANCH   5  14
TORSDOF 2
ENDMDL
MODEL 8
REMARK VINA RESULT:      -7.5     11.445     13.504
REMARK  Name = 14353344
REMARK  2 active torsions:
REMARK  status: ('A' for Active; 'I' for Inactive)
REMARK    1  A    between atoms: O_5  and  C_20
REMARK    2  A    between atoms: C_6  and  C_8
REMARK                            x       y       z     vdW  Elec       q    Type
REMARK                         _______ _______ _______ _____ _____    ______ ____
ROOT
ATOM      1  O   UNL     1     112.524 132.173 146.082  0.00  0.00    +0.000 OA
ATOM      2  O   UNL     1     110.708 133.692 146.804  0.00  0.00    +0.000 OA
ATOM      3  O   UNL     1     111.204 133.688 148.158  0.00  0.00    +0.000 OA
ATOM      4  O   UNL     1     112.343 133.155 149.287  0.00  0.00    +0.000 OA
ATOM      5  C   UNL     1     111.965 132.437 145.535  0.00  0.00    +0.000 C 
ATOM      6  C   UNL     1     111.360 132.943 145.775  0.00  0.00    +0.000 C 
ATOM      7  C   UNL     1     111.872 132.922 147.109  0.00  0.00    +0.000 A 
ATOM      8  C   UNL     1     111.314 133.185 146.563  0.00  0.00    +0.000 C 
ATOM      9  C   UNL     1     112.478 132.416 146.869  0.00  0.00    +0.000 A 
ATOM     10  C   UNL     1     111.813 133.182 147.927  0.00  0.00    +0.000 A 
ATOM     11  C   UNL     1     113.066 132.134 147.429  0.00  0.00    +0.000 A 
ATOM     12  C   UNL     1     112.392 132.911 148.500  0.00  0.00    +0.000 A 
ATOM     13  C   UNL     1     113.022 132.384 148.250  0.00  0.00    +0.000 A 
ENDROOT
BRANCH   5  14
ATOM     14  C   UNL     1     112.012 132.195 144.748  0.00  0.00    +0.000 A 
ATOM     15  C   UNL     1     111.601 131.525 144.497  0.00  0.00    +0.000 A 
ATOM     16  C   UNL     1     112.470 132.623 144.211  0.00  0.00    +0.000 A 
ATOM     17  C   UNL     1     111.647 131.282 143.711  0.00  0.00    +0.000 A 
ATOM     18  C   UNL     1     112.517 132.380 143.424  0.00  0.00    +0.000 A 
ATOM     19  C   UNL     1     112.106 131.710 143.173  0.00  0.00    +0.000 A 
BRANCH  19  20
ATOM     20  O   UNL     1     112.152 131.467 142.386  0.00  0.00    +0.000 OA
ATOM     21  C   UNL     1     112.587 130.797 142.186  0.00  0.00    +0.000 C 
ENDBRANCH  19  20
ENDBRANCH   5  14
TORSDOF 2
ENDMDL
MODEL 9
REMARK VINA RESULT:      -7.5      8.208     10.104
REMARK  Name = 14353344
REMARK  2 active torsions:
REMARK  status: ('A' for Active; 'I' for Inactive)
REMARK    1  A    between atoms: O_5  and  C_20
REMARK    2  A    between atoms: C_6  and  C_8
REMARK                            x       y       z     vdW  Elec       q    Type
REMARK                         _______ _______ _______ _____ _____    ______ ____
ROOT
ATOM      1  O   UNL     1     113.896 126.266 138.514  0.00  0.00    +0.000 OA
ATOM      2  O   UNL     1     111.561 125.484 138.267  0.00  0.00    +0.000 OA
ATOM      3  O   UNL     1     111.962 124.510 137.282  0.00  0.00    +0.000 OA
ATOM      4  O   UNL     1     113.184 123.789 136.364  0.00  0.00    +0.000 OA
ATOM      5  C   UNL     1     113.295 126.615 138.959  0.00  0.00    +0.000 C 
ATOM      6  C   UNL     1     112.517 126.355 138.877  0.00  0.00    +0.000 C 
ATOM      7  C   UNL     1     112.940 125.397 137.904  0.00  0.00    +0.000 A 
ATOM      8  C   UNL     1     112.340 125.745 138.349  0.00  0.00    +0.000 C 
ATOM      9  C   UNL     1     113.719 125.658 137.986  0.00  0.00    +0.000 A 
ATOM     10  C   UNL     1     112.743 124.764 137.357  0.00  0.00    +0.000 A 
ATOM     11  C   UNL     1     114.353 125.303 137.528  0.00  0.00    +0.000 A 
ATOM     12  C   UNL     1     113.364 124.397 136.891  0.00  0.00    +0.000 A 
ATOM     13  C   UNL     1     114.175 124.669 136.977  0.00  0.00    +0.000 A 
ENDROOT
BRANCH   5  14
ATOM     14  C   UNL     1     113.472 127.224 139.487  0.00  0.00    +0.000 A 
ATOM     15  C   UNL     1     113.815 127.051 140.217  0.00  0.00    +0.000 A 
ATOM     16  C   UNL     1     113.307 128.007 139.284  0.00  0.00    +0.000 A 
ATOM     17  C   UNL     1     113.992 127.659 140.744  0.00  0.00    +0.000 A 
ATOM     18  C   UNL     1     113.484 128.616 139.812  0.00  0.00    +0.000 A 
ATOM     19  C   UNL     1     113.827 128.443 140.542  0.00  0.00    +0.000 A 
BRANCH  19  20
ATOM     20  O   UNL     1     114.004 129.051 141.070  0.00  0.00    +0.000 OA
ATOM     21  C   UNL     1     114.319 129.761 140.792  0.00  0.00    +0.000 C 
ENDBRANCH  19  20
ENDBRANCH   5  14
TORSDOF 2
ENDMDL
MODEL 10
REMARK VINA RESULT:      -7.5      7.106      8.437
REMARK  Name = 14353344
REMARK  2 active torsions:
REMARK  status: ('A' for Active; 'I' for Inactive)
REMARK    1  A    between atoms: O_5  and  C_20
REMARK    2  A    between atoms: C_6  and  C_8
REMARK                            x       y       z     vdW  Elec       q    Type
REMARK                         _______ _______ _______ _____ _____    ______ ____
ROOT
ATOM      1  O   UNL     1     103.954 125.090 146.757  0.00  0.00    +0.000 OA
ATOM      2  O   UNL     1     104.949 123.436 145.206  0.00  0.00    +0.000 OA
ATOM      3  O   UNL     1     106.066 124.310 144.947  0.00  0.00    +0.000 OA
ATOM      4  O   UNL     1     106.859 125.777 145.223  0.00  0.00    +0.000 OA
ATOM      5  C   UNL     1     103.571 124.372 146.618  0.00  0.00    +0.000 C 
ATOM      6  C   UNL     1     103.902 123.821 146.102  0.00  0.00    +0.000 C 
ATOM      7  C   UNL     1     104.999 124.705 145.862  0.00  0.00    +0.000 A 
ATOM      8  C   UNL     1     104.617 123.988 145.724  0.00  0.00    +0.000 C 
ATOM      9  C   UNL     1     104.667 125.256 146.379  0.00  0.00    +0.000 A 
ATOM     10  C   UNL     1     105.742 124.867 145.462  0.00  0.00    +0.000 A 
ATOM     11  C   UNL     1     105.056 126.008 146.531  0.00  0.00    +0.000 A 
ATOM     12  C   UNL     1     106.145 125.613 145.602  0.00  0.00    +0.000 A 
ATOM     13  C   UNL     1     105.800 126.187 146.140  0.00  0.00    +0.000 A 
ENDROOT
BRANCH   5  14
ATOM     14  C   UNL     1     102.857 124.205 146.996  0.00  0.00    +0.000 A 
ATOM     15  C   UNL     1     102.856 123.927 147.773  0.00  0.00    +0.000 A 
ATOM     16  C   UNL     1     102.143 124.316 146.597  0.00  0.00    +0.000 A 
ATOM     17  C   UNL     1     102.143 123.761 148.151  0.00  0.00    +0.000 A 
ATOM     18  C   UNL     1     101.429 124.149 146.975  0.00  0.00    +0.000 A 
ATOM     19  C   UNL     1     101.428 123.872 147.752  0.00  0.00    +0.000 A 
BRANCH  19  20
ATOM     20  O   UNL     1     100.714 123.705 148.130  0.00  0.00    +0.000 OA
ATOM     21  C   UNL     1     100.714 123.349 148.874  0.00  0.00    +0.000 C 
ENDBRANCH  19  20
ENDBRANCH   5  14
TORSDOF 2
ENDMDL
