MODEL 1
REMARK VINA RESULT:      -9.8      0.000      0.000
REMARK  Name = 42607844
REMARK  4 active torsions:
REMARK  status: ('A' for Active; 'I' for Inactive)
REMARK    1  A    between atoms: O_2  and  C_16
REMARK    2  A    between atoms: O_2  and  C_18
REMARK    3  A    between atoms: C_15  and  C_17
REMARK    4  A    between atoms: C_19  and  C_27
REMARK                            x       y       z     vdW  Elec       q    Type
REMARK                         _______ _______ _______ _____ _____    ______ ____
ROOT
ATOM      1  O   UNL     1     112.271 126.554 136.278  0.00  0.00    +0.000 OA
ATOM      2  O   UNL     1     109.767 125.727 135.097  0.00  0.00    +0.000 OA
ATOM      3  O   UNL     1     110.696 124.758 135.626  0.00  0.00    +0.000 OA
ATOM      4  C   UNL     1     110.630 127.774 135.377  0.00  0.00    +0.000 A 
ATOM      5  C   UNL     1     112.459 125.765 136.428  0.00  0.00    +0.000 C 
ATOM      6  C   UNL     1     111.935 125.166 136.211  0.00  0.00    +0.000 C 
ATOM      7  C   UNL     1     111.557 126.744 135.911  0.00  0.00    +0.000 A 
ATOM      8  C   UNL     1     111.032 126.146 135.693  0.00  0.00    +0.000 A 
ATOM      9  C   UNL     1     111.372 127.570 135.760  0.00  0.00    +0.000 A 
ATOM     10  C   UNL     1     111.221 125.357 135.843  0.00  0.00    +0.000 C 
ATOM     11  C   UNL     1     110.083 127.152 135.151  0.00  0.00    +0.000 A 
ATOM     12  C   UNL     1     110.286 126.331 135.310  0.00  0.00    +0.000 A 
ENDROOT
BRANCH   5  15
ATOM     13  O   UNL     1     112.561 125.749 138.075  0.00  0.00    +0.000 OA
ATOM     14  O   UNL     1     115.213 125.017 136.251  0.00  0.00    +0.000 OA
ATOM     15  C   UNL     1     113.173 125.574 136.795  0.00  0.00    +0.000 A 
ATOM     16  C   UNL     1     113.224 125.566 137.619  0.00  0.00    +0.000 A 
ATOM     17  C   UNL     1     113.836 125.391 136.339  0.00  0.00    +0.000 A 
ATOM     18  C   UNL     1     114.549 125.200 136.707  0.00  0.00    +0.000 A 
ATOM     19  C   UNL     1     113.938 125.375 137.986  0.00  0.00    +0.000 A 
ATOM     20  C   UNL     1     114.601 125.192 137.530  0.00  0.00    +0.000 A 
ENDBRANCH   5  15
BRANCH   4  21
ATOM     21  O   UNL     1     110.444 128.564 135.229  0.00  0.00    +0.000 OA
BRANCH  21  30
ATOM     22  O   UNL     1     110.034 128.907 136.554  0.00  0.00    +0.000 OA
ATOM     23  O   UNL     1     108.228 130.324 135.629  0.00  0.00    +0.000 OA
ATOM     24  O   UNL     1     108.420 130.194 137.262  0.00  0.00    +0.000 OA
ATOM     25  O   UNL     1     109.240 129.509 134.612  0.00  0.00    +0.000 OA
ATOM     26  C   UNL     1     108.830 129.852 135.937  0.00  0.00    +0.000 C 
ATOM     27  C   UNL     1     108.926 129.787 136.754  0.00  0.00    +0.000 C 
ATOM     28  C   UNL     1     109.336 129.444 135.428  0.00  0.00    +0.000 C 
ATOM     29  C   UNL     1     109.528 129.315 137.062  0.00  0.00    +0.000 C 
ATOM     30  C   UNL     1     109.937 128.972 135.737  0.00  0.00    +0.000 C 
BRANCH  29  32
ATOM     31  O   UNL     1     109.402 128.555 138.266  0.00  0.00    +0.000 OA
ATOM     32  C   UNL     1     109.624 129.249 137.878  0.00  0.00    +0.000 C 
ENDBRANCH  29  32
ENDBRANCH  21  30
ENDBRANCH   4  21
TORSDOF 4
ENDMDL
MODEL 2
REMARK VINA RESULT:      -9.4      7.845     10.396
REMARK  Name = 42607844
REMARK  4 active torsions:
REMARK  status: ('A' for Active; 'I' for Inactive)
REMARK    1  A    between atoms: O_2  and  C_16
REMARK    2  A    between atoms: O_2  and  C_18
REMARK    3  A    between atoms: C_15  and  C_17
REMARK    4  A    between atoms: C_19  and  C_27
REMARK                            x       y       z     vdW  Elec       q    Type
REMARK                         _______ _______ _______ _____ _____    ______ ____
ROOT
ATOM      1  O   UNL     1     104.979 127.705 142.556  0.00  0.00    +0.000 OA
ATOM      2  O   UNL     1     107.858 127.492 142.683  0.00  0.00    +0.000 OA
ATOM      3  O   UNL     1     107.219 128.727 142.297  0.00  0.00    +0.000 OA
ATOM      4  C   UNL     1     106.272 125.968 143.107  0.00  0.00    +0.000 A 
ATOM      5  C   UNL     1     105.049 128.493 142.320  0.00  0.00    +0.000 C 
ATOM      6  C   UNL     1     105.795 128.834 142.233  0.00  0.00    +0.000 C 
ATOM      7  C   UNL     1     105.656 127.259 142.705  0.00  0.00    +0.000 A 
ATOM      8  C   UNL     1     106.403 127.599 142.619  0.00  0.00    +0.000 A 
ATOM      9  C   UNL     1     105.571 126.439 142.950  0.00  0.00    +0.000 A 
ATOM     10  C   UNL     1     106.472 128.386 142.383  0.00  0.00    +0.000 C 
ATOM     11  C   UNL     1     107.049 126.323 143.017  0.00  0.00    +0.000 A 
ATOM     12  C   UNL     1     107.115 127.144 142.771  0.00  0.00    +0.000 A 
ENDROOT
BRANCH   5  15
ATOM     13  O   UNL     1     104.299 128.389 140.853  0.00  0.00    +0.000 OA
ATOM     14  O   UNL     1     103.090 130.385 143.187  0.00  0.00    +0.000 OA
ATOM     15  C   UNL     1     104.372 128.940 142.170  0.00  0.00    +0.000 A 
ATOM     16  C   UNL     1     103.997 128.888 141.437  0.00  0.00    +0.000 A 
ATOM     17  C   UNL     1     104.070 129.439 142.754  0.00  0.00    +0.000 A 
ATOM     18  C   UNL     1     103.393 129.886 142.604  0.00  0.00    +0.000 A 
ATOM     19  C   UNL     1     103.320 129.336 141.287  0.00  0.00    +0.000 A 
ATOM     20  C   UNL     1     103.018 129.834 141.871  0.00  0.00    +0.000 A 
ENDBRANCH   5  15
BRANCH   4  21
ATOM     21  O   UNL     1     106.200 125.181 143.343  0.00  0.00    +0.000 OA
BRANCH  21  30
ATOM     22  O   UNL     1     106.355 125.373 144.750  0.00  0.00    +0.000 OA
ATOM     23  O   UNL     1     104.565 123.716 145.173  0.00  0.00    +0.000 OA
ATOM     24  O   UNL     1     105.317 124.460 146.439  0.00  0.00    +0.000 OA
ATOM     25  O   UNL     1     105.007 124.077 143.625  0.00  0.00    +0.000 OA
ATOM     26  C   UNL     1     105.162 124.268 145.032  0.00  0.00    +0.000 C 
ATOM     27  C   UNL     1     105.537 124.640 145.665  0.00  0.00    +0.000 C 
ATOM     28  C   UNL     1     105.382 124.448 144.258  0.00  0.00    +0.000 C 
ATOM     29  C   UNL     1     106.134 125.192 145.524  0.00  0.00    +0.000 C 
ATOM     30  C   UNL     1     105.979 125.000 144.117  0.00  0.00    +0.000 C 
BRANCH  29  32
ATOM     31  O   UNL     1     107.330 125.511 146.238  0.00  0.00    +0.000 OA
ATOM     32  C   UNL     1     106.510 125.564 146.157  0.00  0.00    +0.000 C 
ENDBRANCH  29  32
ENDBRANCH  21  30
ENDBRANCH   4  21
TORSDOF 4
ENDMDL
MODEL 3
REMARK VINA RESULT:      -9.4      1.462      2.342
REMARK  Name = 42607844
REMARK  4 active torsions:
REMARK  status: ('A' for Active; 'I' for Inactive)
REMARK    1  A    between atoms: O_2  and  C_16
REMARK    2  A    between atoms: O_2  and  C_18
REMARK    3  A    between atoms: C_15  and  C_17
REMARK    4  A    between atoms: C_19  and  C_27
REMARK                            x       y       z     vdW  Elec       q    Type
REMARK                         _______ _______ _______ _____ _____    ______ ____
ROOT
ATOM      1  O   UNL     1     112.573 127.156 137.069  0.00  0.00    +0.000 OA
ATOM      2  O   UNL     1     112.962 129.679 135.716  0.00  0.00    +0.000 OA
ATOM      3  O   UNL     1     113.878 128.582 135.521  0.00  0.00    +0.000 OA
ATOM      4  C   UNL     1     111.363 129.033 137.145  0.00  0.00    +0.000 A 
ATOM      5  C   UNL     1     113.251 126.858 136.706  0.00  0.00    +0.000 C 
ATOM      6  C   UNL     1     113.687 127.333 136.190  0.00  0.00    +0.000 C 
ATOM      7  C   UNL     1     112.330 127.929 136.916  0.00  0.00    +0.000 A 
ATOM      8  C   UNL     1     112.765 128.405 136.400  0.00  0.00    +0.000 A 
ATOM      9  C   UNL     1     111.621 128.229 137.300  0.00  0.00    +0.000 A 
ATOM     10  C   UNL     1     113.443 128.106 136.037  0.00  0.00    +0.000 C 
ATOM     11  C   UNL     1     111.816 129.528 136.608  0.00  0.00    +0.000 A 
ATOM     12  C   UNL     1     112.522 129.211 136.233  0.00  0.00    +0.000 A 
ENDROOT
BRANCH   5  15
ATOM     13  O   UNL     1     112.500 125.594 135.957  0.00  0.00    +0.000 OA
ATOM     14  O   UNL     1     114.977 125.028 138.064  0.00  0.00    +0.000 OA
ATOM     15  C   UNL     1     113.495 126.085 136.858  0.00  0.00    +0.000 A 
ATOM     16  C   UNL     1     113.119 125.453 136.484  0.00  0.00    +0.000 A 
ATOM     17  C   UNL     1     114.114 125.944 137.385  0.00  0.00    +0.000 A 
ATOM     18  C   UNL     1     114.358 125.170 137.537  0.00  0.00    +0.000 A 
ATOM     19  C   UNL     1     113.363 124.679 136.637  0.00  0.00    +0.000 A 
ATOM     20  C   UNL     1     113.982 124.538 137.163  0.00  0.00    +0.000 A 
ENDBRANCH   5  15
BRANCH   4  21
ATOM     21  O   UNL     1     110.685 129.329 137.509  0.00  0.00    +0.000 OA
BRANCH  21  30
ATOM     22  O   UNL     1     109.698 128.800 136.621  0.00  0.00    +0.000 OA
ATOM     23  O   UNL     1     108.495 130.962 136.671  0.00  0.00    +0.000 OA
ATOM     24  O   UNL     1     107.910 129.713 135.767  0.00  0.00    +0.000 OA
ATOM     25  O   UNL     1     109.883 130.770 137.542  0.00  0.00    +0.000 OA
ATOM     26  C   UNL     1     108.896 130.242 136.654  0.00  0.00    +0.000 C 
ATOM     27  C   UNL     1     108.603 129.618 136.202  0.00  0.00    +0.000 C 
ATOM     28  C   UNL     1     109.590 130.146 137.090  0.00  0.00    +0.000 C 
ATOM     29  C   UNL     1     109.004 128.897 136.185  0.00  0.00    +0.000 C 
ATOM     30  C   UNL     1     109.991 129.426 137.074  0.00  0.00    +0.000 C 
BRANCH  29  32
ATOM     31  O   UNL     1     108.513 127.558 136.097  0.00  0.00    +0.000 OA
ATOM     32  C   UNL     1     108.712 128.272 135.733  0.00  0.00    +0.000 C 
ENDBRANCH  29  32
ENDBRANCH  21  30
ENDBRANCH   4  21
TORSDOF 4
ENDMDL
MODEL 4
REMARK VINA RESULT:      -9.4     12.218     14.430
REMARK  Name = 42607844
REMARK  4 active torsions:
REMARK  status: ('A' for Active; 'I' for Inactive)
REMARK    1  A    between atoms: O_2  and  C_16
REMARK    2  A    between atoms: O_2  and  C_18
REMARK    3  A    between atoms: C_15  and  C_17
REMARK    4  A    between atoms: C_19  and  C_27
REMARK                            x       y       z     vdW  Elec       q    Type
REMARK                         _______ _______ _______ _____ _____    ______ ____
ROOT
ATOM      1  O   UNL     1     102.874 124.337 147.698  0.00  0.00    +0.000 OA
ATOM      2  O   UNL     1     103.013 126.518 149.587  0.00  0.00    +0.000 OA
ATOM      3  O   UNL     1     101.745 126.040 149.095  0.00  0.00    +0.000 OA
ATOM      4  C   UNL     1     104.648 125.309 148.649  0.00  0.00    +0.000 A 
ATOM      5  C   UNL     1     102.051 124.394 147.695  0.00  0.00    +0.000 C 
ATOM      6  C   UNL     1     101.674 124.962 148.160  0.00  0.00    +0.000 C 
ATOM      7  C   UNL     1     103.320 124.848 148.167  0.00  0.00    +0.000 A 
ATOM      8  C   UNL     1     102.944 125.416 148.633  0.00  0.00    +0.000 A 
ATOM      9  C   UNL     1     104.177 124.779 148.162  0.00  0.00    +0.000 A 
ATOM     10  C   UNL     1     102.121 125.473 148.629  0.00  0.00    +0.000 C 
ATOM     11  C   UNL     1     104.256 125.900 149.133  0.00  0.00    +0.000 A 
ATOM     12  C   UNL     1     103.398 125.954 149.125  0.00  0.00    +0.000 A 
ENDROOT
BRANCH   5  15
ATOM     13  O   UNL     1     101.244 123.133 148.387  0.00  0.00    +0.000 OA
ATOM     14  O   UNL     1     101.071 123.611 145.126  0.00  0.00    +0.000 OA
ATOM     15  C   UNL     1     101.604 123.883 147.226  0.00  0.00    +0.000 A 
ATOM     16  C   UNL     1     101.201 123.252 147.572  0.00  0.00    +0.000 A 
ATOM     17  C   UNL     1     101.561 124.003 146.410  0.00  0.00    +0.000 A 
ATOM     18  C   UNL     1     101.114 123.492 145.941  0.00  0.00    +0.000 A 
ATOM     19  C   UNL     1     100.754 122.741 147.103  0.00  0.00    +0.000 A 
ATOM     20  C   UNL     1     100.711 122.861 146.287  0.00  0.00    +0.000 A 
ENDBRANCH   5  15
BRANCH   4  21
ATOM     21  O   UNL     1     105.471 125.250 148.650  0.00  0.00    +0.000 OA
BRANCH  21  30
ATOM     22  O   UNL     1     105.791 126.363 147.813  0.00  0.00    +0.000 OA
ATOM     23  O   UNL     1     107.460 124.983 146.616  0.00  0.00    +0.000 OA
ATOM     24  O   UNL     1     107.224 126.555 146.179  0.00  0.00    +0.000 OA
ATOM     25  O   UNL     1     106.583 124.330 147.852  0.00  0.00    +0.000 OA
ATOM     26  C   UNL     1     106.904 125.443 147.015  0.00  0.00    +0.000 C 
ATOM     27  C   UNL     1     106.786 126.229 146.796  0.00  0.00    +0.000 C 
ATOM     28  C   UNL     1     106.466 125.116 147.633  0.00  0.00    +0.000 C 
ATOM     29  C   UNL     1     106.229 126.689 147.195  0.00  0.00    +0.000 C 
ATOM     30  C   UNL     1     105.909 125.576 148.032  0.00  0.00    +0.000 C 
BRANCH  29  32
ATOM     31  O   UNL     1     106.126 128.069 147.551  0.00  0.00    +0.000 OA
ATOM     32  C   UNL     1     106.111 127.476 146.977  0.00  0.00    +0.000 C 
ENDBRANCH  29  32
ENDBRANCH  21  30
ENDBRANCH   4  21
TORSDOF 4
ENDMDL
MODEL 5
REMARK VINA RESULT:      -9.3      1.846      5.393
REMARK  Name = 42607844
REMARK  4 active torsions:
REMARK  status: ('A' for Active; 'I' for Inactive)
REMARK    1  A    between atoms: O_2  and  C_16
REMARK    2  A    between atoms: O_2  and  C_18
REMARK    3  A    between atoms: C_15  and  C_17
REMARK    4  A    between atoms: C_19  and  C_27
REMARK                            x       y       z     vdW  Elec       q    Type
REMARK                         _______ _______ _______ _____ _____    ______ ____
ROOT
ATOM      1  O   UNL     1     110.115 130.395 136.310  0.00  0.00    +0.000 OA
ATOM      2  O   UNL     1     107.950 128.588 135.682  0.00  0.00    +0.000 OA
ATOM      3  O   UNL     1     107.689 129.924 136.161  0.00  0.00    +0.000 OA
ATOM      4  C   UNL     1     110.166 128.291 135.559  0.00  0.00    +0.000 A 
ATOM      5  C   UNL     1     109.568 130.975 136.522  0.00  0.00    +0.000 C 
ATOM      6  C   UNL     1     108.759 130.819 136.472  0.00  0.00    +0.000 C 
ATOM      7  C   UNL     1     109.853 129.658 136.049  0.00  0.00    +0.000 A 
ATOM      8  C   UNL     1     109.044 129.501 135.999  0.00  0.00    +0.000 A 
ATOM      9  C   UNL     1     110.433 129.061 135.831  0.00  0.00    +0.000 A 
ATOM     10  C   UNL     1     108.498 130.081 136.211  0.00  0.00    +0.000 C 
ATOM     11  C   UNL     1     109.324 128.128 135.507  0.00  0.00    +0.000 A 
ATOM     12  C   UNL     1     108.759 128.737 135.729  0.00  0.00    +0.000 A 
ENDROOT
BRANCH   5  15
ATOM     13  O   UNL     1     109.705 132.227 135.455  0.00  0.00    +0.000 OA
ATOM     14  O   UNL     1     110.477 132.675 138.632  0.00  0.00    +0.000 OA
ATOM     15  C   UNL     1     109.829 131.713 136.783  0.00  0.00    +0.000 A 
ATOM     16  C   UNL     1     109.898 132.339 136.250  0.00  0.00    +0.000 A 
ATOM     17  C   UNL     1     110.022 131.825 137.577  0.00  0.00    +0.000 A 
ATOM     18  C   UNL     1     110.284 132.563 137.838  0.00  0.00    +0.000 A 
ATOM     19  C   UNL     1     110.159 133.077 136.511  0.00  0.00    +0.000 A 
ATOM     20  C   UNL     1     110.352 133.188 137.305  0.00  0.00    +0.000 A 
ENDBRANCH   5  15
BRANCH   4  21
ATOM     21  O   UNL     1     110.715 127.713 135.348  0.00  0.00    +0.000 OA
BRANCH  21  30
ATOM     22  O   UNL     1     110.901 127.111 136.631  0.00  0.00    +0.000 OA
ATOM     23  O   UNL     1     110.874 124.869 135.583  0.00  0.00    +0.000 OA
ATOM     24  O   UNL     1     111.070 125.015 137.214  0.00  0.00    +0.000 OA
ATOM     25  O   UNL     1     110.697 126.218 134.649  0.00  0.00    +0.000 OA
ATOM     26  C   UNL     1     110.883 125.616 135.932  0.00  0.00    +0.000 C 
ATOM     27  C   UNL     1     110.981 125.689 136.747  0.00  0.00    +0.000 C 
ATOM     28  C   UNL     1     110.795 126.291 135.465  0.00  0.00    +0.000 C 
ATOM     29  C   UNL     1     110.990 126.436 137.097  0.00  0.00    +0.000 C 
ATOM     30  C   UNL     1     110.803 127.038 135.814  0.00  0.00    +0.000 C 
BRANCH  29  32
ATOM     31  O   UNL     1     111.635 127.049 138.215  0.00  0.00    +0.000 OA
ATOM     32  C   UNL     1     111.087 126.510 137.912  0.00  0.00    +0.000 C 
ENDBRANCH  29  32
ENDBRANCH  21  30
ENDBRANCH   4  21
TORSDOF 4
ENDMDL
MODEL 6
REMARK VINA RESULT:      -9.3      8.958     10.866
REMARK  Name = 42607844
REMARK  4 active torsions:
REMARK  status: ('A' for Active; 'I' for Inactive)
REMARK    1  A    between atoms: O_2  and  C_16
REMARK    2  A    between atoms: O_2  and  C_18
REMARK    3  A    between atoms: C_15  and  C_17
REMARK    4  A    between atoms: C_19  and  C_27
REMARK                            x       y       z     vdW  Elec       q    Type
REMARK                         _______ _______ _______ _____ _____    ______ ____
ROOT
ATOM      1  O   UNL     1     106.516 125.563 146.532  0.00  0.00    +0.000 OA
ATOM      2  O   UNL     1     105.780 128.215 145.654  0.00  0.00    +0.000 OA
ATOM      3  O   UNL     1     106.344 127.994 146.963  0.00  0.00    +0.000 OA
ATOM      4  C   UNL     1     105.631 126.246 144.597  0.00  0.00    +0.000 A 
ATOM      5  C   UNL     1     106.766 125.872 147.255  0.00  0.00    +0.000 C 
ATOM      6  C   UNL     1     106.709 126.683 147.399  0.00  0.00    +0.000 C 
ATOM      7  C   UNL     1     106.209 126.064 145.953  0.00  0.00    +0.000 A 
ATOM      8  C   UNL     1     106.152 126.874 146.097  0.00  0.00    +0.000 A 
ATOM      9  C   UNL     1     105.952 125.729 145.204  0.00  0.00    +0.000 A 
ATOM     10  C   UNL     1     106.401 127.184 146.820  0.00  0.00    +0.000 C 
ATOM     11  C   UNL     1     105.572 127.090 144.747  0.00  0.00    +0.000 A 
ATOM     12  C   UNL     1     105.834 127.406 145.502  0.00  0.00    +0.000 A 
ENDROOT
BRANCH   5  15
ATOM     13  O   UNL     1     108.391 125.594 147.328  0.00  0.00    +0.000 OA
ATOM     14  O   UNL     1     106.371 124.146 149.499  0.00  0.00    +0.000 OA
ATOM     15  C   UNL     1     107.073 125.371 147.834  0.00  0.00    +0.000 A 
ATOM     16  C   UNL     1     107.886 125.232 147.870  0.00  0.00    +0.000 A 
ATOM     17  C   UNL     1     106.568 125.010 148.377  0.00  0.00    +0.000 A 
ATOM     18  C   UNL     1     106.875 124.509 148.956  0.00  0.00    +0.000 A 
ATOM     19  C   UNL     1     108.193 124.732 148.450  0.00  0.00    +0.000 A 
ATOM     20  C   UNL     1     107.688 124.370 148.992  0.00  0.00    +0.000 A 
ENDBRANCH   5  15
BRANCH   4  21
ATOM     21  O   UNL     1     105.383 125.934 143.875  0.00  0.00    +0.000 OA
BRANCH  21  30
ATOM     22  O   UNL     1     106.474 126.409 143.084  0.00  0.00    +0.000 OA
ATOM     23  O   UNL     1     106.465 124.294 141.800  0.00  0.00    +0.000 OA
ATOM     24  O   UNL     1     107.558 125.474 141.438  0.00  0.00    +0.000 OA
ATOM     25  O   UNL     1     105.376 124.524 143.019  0.00  0.00    +0.000 OA
ATOM     26  C   UNL     1     106.468 124.999 142.228  0.00  0.00    +0.000 C 
ATOM     27  C   UNL     1     107.014 125.589 142.047  0.00  0.00    +0.000 C 
ATOM     28  C   UNL     1     105.923 125.113 142.838  0.00  0.00    +0.000 C 
ATOM     29  C   UNL     1     107.017 126.294 142.475  0.00  0.00    +0.000 C 
ATOM     30  C   UNL     1     105.926 125.819 143.266  0.00  0.00    +0.000 C 
BRANCH  29  32
ATOM     31  O   UNL     1     108.175 127.056 142.822  0.00  0.00    +0.000 OA
ATOM     32  C   UNL     1     107.564 126.884 142.294  0.00  0.00    +0.000 C 
ENDBRANCH  29  32
ENDBRANCH  21  30
ENDBRANCH   4  21
TORSDOF 4
ENDMDL
MODEL 7
REMARK VINA RESULT:      -9.3      2.372      4.110
REMARK  Name = 42607844
REMARK  4 active torsions:
REMARK  status: ('A' for Active; 'I' for Inactive)
REMARK    1  A    between atoms: O_2  and  C_16
REMARK    2  A    between atoms: O_2  and  C_18
REMARK    3  A    between atoms: C_15  and  C_17
REMARK    4  A    between atoms: C_19  and  C_27
REMARK                            x       y       z     vdW  Elec       q    Type
REMARK                         _______ _______ _______ _____ _____    ______ ____
ROOT
ATOM      1  O   UNL     1     112.636 128.384 135.679  0.00  0.00    +0.000 OA
ATOM      2  O   UNL     1     109.940 128.447 134.642  0.00  0.00    +0.000 OA
ATOM      3  O   UNL     1     110.777 129.622 134.612  0.00  0.00    +0.000 OA
ATOM      4  C   UNL     1     111.095 126.769 135.573  0.00  0.00    +0.000 A 
ATOM      5  C   UNL     1     112.730 129.179 135.480  0.00  0.00    +0.000 C 
ATOM      6  C   UNL     1     112.111 129.592 135.124  0.00  0.00    +0.000 C 
ATOM      7  C   UNL     1     111.923 128.002 135.522  0.00  0.00    +0.000 A 
ATOM      8  C   UNL     1     111.303 128.414 135.166  0.00  0.00    +0.000 A 
ATOM      9  C   UNL     1     111.837 127.173 135.734  0.00  0.00    +0.000 A 
ATOM     10  C   UNL     1     111.397 129.209 134.968  0.00  0.00    +0.000 C 
ATOM     11  C   UNL     1     110.450 127.198 135.203  0.00  0.00    +0.000 A 
ATOM     12  C   UNL     1     110.555 128.027 134.998  0.00  0.00    +0.000 A 
ENDROOT
BRANCH   5  15
ATOM     13  O   UNL     1     112.932 130.001 136.897  0.00  0.00    +0.000 OA
ATOM     14  O   UNL     1     115.384 129.889 134.691  0.00  0.00    +0.000 OA
ATOM     15  C   UNL     1     113.444 129.562 135.637  0.00  0.00    +0.000 A 
ATOM     16  C   UNL     1     113.545 129.973 136.345  0.00  0.00    +0.000 A 
ATOM     17  C   UNL     1     114.057 129.534 135.085  0.00  0.00    +0.000 A 
ATOM     18  C   UNL     1     114.771 129.917 135.242  0.00  0.00    +0.000 A 
ATOM     19  C   UNL     1     114.259 130.356 136.502  0.00  0.00    +0.000 A 
ATOM     20  C   UNL     1     114.872 130.328 135.950  0.00  0.00    +0.000 A 
ENDBRANCH   5  15
BRANCH   4  21
ATOM     21  O   UNL     1     111.004 125.974 135.773  0.00  0.00    +0.000 OA
BRANCH  21  30
ATOM     22  O   UNL     1     110.475 126.187 137.083  0.00  0.00    +0.000 OA
ATOM     23  O   UNL     1     111.722 124.214 137.907  0.00  0.00    +0.000 OA
ATOM     24  O   UNL     1     110.777 125.084 138.942  0.00  0.00    +0.000 OA
ATOM     25  O   UNL     1     111.835 124.658 136.322  0.00  0.00    +0.000 OA
ATOM     26  C   UNL     1     111.306 124.871 137.632  0.00  0.00    +0.000 C 
ATOM     27  C   UNL     1     110.834 125.306 138.150  0.00  0.00    +0.000 C 
ATOM     28  C   UNL     1     111.363 125.093 136.840  0.00  0.00    +0.000 C 
ATOM     29  C   UNL     1     110.419 125.964 137.875  0.00  0.00    +0.000 C 
ATOM     30  C   UNL     1     110.948 125.751 136.565  0.00  0.00    +0.000 C 
BRANCH  29  32
ATOM     31  O   UNL     1     109.150 126.528 138.215  0.00  0.00    +0.000 OA
ATOM     32  C   UNL     1     109.946 126.399 138.392  0.00  0.00    +0.000 C 
ENDBRANCH  29  32
ENDBRANCH  21  30
ENDBRANCH   4  21
TORSDOF 4
ENDMDL
MODEL 8
REMARK VINA RESULT:      -9.2      7.092     10.431
REMARK  Name = 42607844
REMARK  4 active torsions:
REMARK  status: ('A' for Active; 'I' for Inactive)
REMARK    1  A    between atoms: O_2  and  C_16
REMARK    2  A    between atoms: O_2  and  C_18
REMARK    3  A    between atoms: C_15  and  C_17
REMARK    4  A    between atoms: C_19  and  C_27
REMARK                            x       y       z     vdW  Elec       q    Type
REMARK                         _______ _______ _______ _____ _____    ______ ____
ROOT
ATOM      1  O   UNL     1     103.329 130.264 141.976  0.00  0.00    +0.000 OA
ATOM      2  O   UNL     1     103.693 127.921 140.326  0.00  0.00    +0.000 OA
ATOM      3  O   UNL     1     102.803 128.982 139.925  0.00  0.00    +0.000 OA
ATOM      4  C   UNL     1     104.611 128.462 142.295  0.00  0.00    +0.000 A 
ATOM      5  C   UNL     1     102.797 130.569 141.424  0.00  0.00    +0.000 C 
ATOM      6  C   UNL     1     102.621 130.142 140.740  0.00  0.00    +0.000 C 
ATOM      7  C   UNL     1     103.685 129.532 141.844  0.00  0.00    +0.000 A 
ATOM      8  C   UNL     1     103.510 129.105 141.161  0.00  0.00    +0.000 A 
ATOM      9  C   UNL     1     104.237 129.225 142.427  0.00  0.00    +0.000 A 
ATOM     10  C   UNL     1     102.978 129.410 140.608  0.00  0.00    +0.000 C 
ATOM     11  C   UNL     1     104.429 128.018 141.584  0.00  0.00    +0.000 A 
ATOM     12  C   UNL     1     103.874 128.341 141.012  0.00  0.00    +0.000 A 
ENDROOT
BRANCH   5  15
ATOM     13  O   UNL     1     103.457 131.936 140.777  0.00  0.00    +0.000 OA
ATOM     14  O   UNL     1     100.711 132.132 142.596  0.00  0.00    +0.000 OA
ATOM     15  C   UNL     1     102.440 131.301 141.555  0.00  0.00    +0.000 A 
ATOM     16  C   UNL     1     102.770 131.985 141.232  0.00  0.00    +0.000 A 
ATOM     17  C   UNL     1     101.754 131.350 142.010  0.00  0.00    +0.000 A 
ATOM     18  C   UNL     1     101.397 132.082 142.142  0.00  0.00    +0.000 A 
ATOM     19  C   UNL     1     102.414 132.717 141.363  0.00  0.00    +0.000 A 
ATOM     20  C   UNL     1     101.727 132.766 141.818  0.00  0.00    +0.000 A 
ENDBRANCH   5  15
BRANCH   4  21
ATOM     21  O   UNL     1     105.142 128.160 142.849  0.00  0.00    +0.000 OA
BRANCH  21  30
ATOM     22  O   UNL     1     106.333 128.702 142.274  0.00  0.00    +0.000 OA
ATOM     23  O   UNL     1     107.555 126.628 142.847  0.00  0.00    +0.000 OA
ATOM     24  O   UNL     1     108.337 127.862 142.081  0.00  0.00    +0.000 OA
ATOM     25  O   UNL     1     105.958 126.777 143.231  0.00  0.00    +0.000 OA
ATOM     26  C   UNL     1     107.148 127.320 142.656  0.00  0.00    +0.000 C 
ATOM     27  C   UNL     1     107.539 127.936 142.273  0.00  0.00    +0.000 C 
ATOM     28  C   UNL     1     106.349 127.393 142.849  0.00  0.00    +0.000 C 
ATOM     29  C   UNL     1     107.131 128.627 142.082  0.00  0.00    +0.000 C 
ATOM     30  C   UNL     1     105.941 128.085 142.658  0.00  0.00    +0.000 C 
BRANCH  29  32
ATOM     31  O   UNL     1     107.321 129.441 140.923  0.00  0.00    +0.000 OA
ATOM     32  C   UNL     1     107.522 129.245 141.699  0.00  0.00    +0.000 C 
ENDBRANCH  29  32
ENDBRANCH  21  30
ENDBRANCH   4  21
TORSDOF 4
ENDMDL
MODEL 9
REMARK VINA RESULT:      -9.2      3.144      4.161
REMARK  Name = 42607844
REMARK  4 active torsions:
REMARK  status: ('A' for Active; 'I' for Inactive)
REMARK    1  A    between atoms: O_2  and  C_16
REMARK    2  A    between atoms: O_2  and  C_18
REMARK    3  A    between atoms: C_15  and  C_17
REMARK    4  A    between atoms: C_19  and  C_27
REMARK                            x       y       z     vdW  Elec       q    Type
REMARK                         _______ _______ _______ _____ _____    ______ ____
ROOT
ATOM      1  O   UNL     1     113.075 127.228 137.430  0.00  0.00    +0.000 OA
ATOM      2  O   UNL     1     113.573 129.749 136.110  0.00  0.00    +0.000 OA
ATOM      3  O   UNL     1     114.029 128.506 135.537  0.00  0.00    +0.000 OA
ATOM      4  C   UNL     1     112.515 129.305 138.034  0.00  0.00    +0.000 A 
ATOM      5  C   UNL     1     113.465 126.832 136.820  0.00  0.00    +0.000 C 
ATOM      6  C   UNL     1     113.784 127.258 136.189  0.00  0.00    +0.000 C 
ATOM      7  C   UNL     1     113.003 128.049 137.409  0.00  0.00    +0.000 A 
ATOM      8  C   UNL     1     113.321 128.475 136.778  0.00  0.00    +0.000 A 
ATOM      9  C   UNL     1     112.594 128.450 138.050  0.00  0.00    +0.000 A 
ATOM     10  C   UNL     1     113.711 128.080 136.168  0.00  0.00    +0.000 C 
ATOM     11  C   UNL     1     112.846 129.749 137.377  0.00  0.00    +0.000 A 
ATOM     12  C   UNL     1     113.252 129.331 136.744  0.00  0.00    +0.000 A 
ENDROOT
BRANCH   5  15
ATOM     13  O   UNL     1     112.285 125.883 136.167  0.00  0.00    +0.000 OA
ATOM     14  O   UNL     1     114.936 124.495 137.557  0.00  0.00    +0.000 OA
ATOM     15  C   UNL     1     113.538 126.011 136.841  0.00  0.00    +0.000 A 
ATOM     16  C   UNL     1     112.948 125.536 136.515  0.00  0.00    +0.000 A 
ATOM     17  C   UNL     1     114.201 125.664 137.189  0.00  0.00    +0.000 A 
ATOM     18  C   UNL     1     114.274 124.842 137.210  0.00  0.00    +0.000 A 
ATOM     19  C   UNL     1     113.020 124.714 136.536  0.00  0.00    +0.000 A 
ATOM     20  C   UNL     1     113.683 124.368 136.883  0.00  0.00    +0.000 A 
ENDBRANCH   5  15
BRANCH   4  21
ATOM     21  O   UNL     1     112.125 129.698 138.645  0.00  0.00    +0.000 OA
BRANCH  21  30
ATOM     22  O   UNL     1     113.278 130.054 139.410  0.00  0.00    +0.000 OA
ATOM     23  O   UNL     1     112.040 129.574 141.499  0.00  0.00    +0.000 OA
ATOM     24  O   UNL     1     113.604 130.090 141.567  0.00  0.00    +0.000 OA
ATOM     25  O   UNL     1     111.299 129.378 140.037  0.00  0.00    +0.000 OA
ATOM     26  C   UNL     1     112.452 129.734 140.803  0.00  0.00    +0.000 C 
ATOM     27  C   UNL     1     113.234 129.992 140.837  0.00  0.00    +0.000 C 
ATOM     28  C   UNL     1     112.081 129.636 140.072  0.00  0.00    +0.000 C 
ATOM     29  C   UNL     1     113.647 130.152 140.141  0.00  0.00    +0.000 C 
ATOM     30  C   UNL     1     112.494 129.796 139.376  0.00  0.00    +0.000 C 
BRANCH  29  32
ATOM     31  O   UNL     1     114.649 131.111 139.798  0.00  0.00    +0.000 OA
ATOM     32  C   UNL     1     114.430 130.410 140.175  0.00  0.00    +0.000 C 
ENDBRANCH  29  32
ENDBRANCH  21  30
ENDBRANCH   4  21
TORSDOF 4
ENDMDL
MODEL 10
REMARK VINA RESULT:      -9.2      1.204      1.936
REMARK  Name = 42607844
REMARK  4 active torsions:
REMARK  status: ('A' for Active; 'I' for Inactive)
REMARK    1  A    between atoms: O_2  and  C_16
REMARK    2  A    between atoms: O_2  and  C_18
REMARK    3  A    between atoms: C_15  and  C_17
REMARK    4  A    between atoms: C_19  and  C_27
REMARK                            x       y       z     vdW  Elec       q    Type
REMARK                         _______ _______ _______ _____ _____    ______ ____
ROOT
ATOM      1  O   UNL     1     111.261 125.939 136.803  0.00  0.00    +0.000 OA
ATOM      2  O   UNL     1     109.052 126.308 134.979  0.00  0.00    +0.000 OA
ATOM      3  O   UNL     1     110.080 125.332 134.714  0.00  0.00    +0.000 OA
ATOM      4  C   UNL     1     109.524 127.341 136.908  0.00  0.00    +0.000 A 
ATOM      5  C   UNL     1     111.567 125.351 136.312  0.00  0.00    +0.000 C 
ATOM      6  C   UNL     1     111.173 125.148 135.616  0.00  0.00    +0.000 C 
ATOM      7  C   UNL     1     110.562 126.324 136.597  0.00  0.00    +0.000 A 
ATOM      8  C   UNL     1     110.168 126.122 135.901  0.00  0.00    +0.000 A 
ATOM      9  C   UNL     1     110.253 126.936 137.117  0.00  0.00    +0.000 A 
ATOM     10  C   UNL     1     110.474 125.534 135.410  0.00  0.00    +0.000 C 
ATOM     11  C   UNL     1     109.115 127.131 136.184  0.00  0.00    +0.000 A 
ATOM     12  C   UNL     1     109.439 126.517 135.676  0.00  0.00    +0.000 A 
ENDROOT
BRANCH   5  15
ATOM     13  O   UNL     1     111.509 123.914 137.122  0.00  0.00    +0.000 OA
ATOM     14  O   UNL     1     114.423 125.242 136.325  0.00  0.00    +0.000 OA
ATOM     15  C   UNL     1     112.266 124.964 136.518  0.00  0.00    +0.000 A 
ATOM     16  C   UNL     1     112.238 124.246 136.922  0.00  0.00    +0.000 A 
ATOM     17  C   UNL     1     112.995 125.297 136.318  0.00  0.00    +0.000 A 
ATOM     18  C   UNL     1     113.695 124.910 136.524  0.00  0.00    +0.000 A 
ATOM     19  C   UNL     1     112.937 123.860 137.128  0.00  0.00    +0.000 A 
ATOM     20  C   UNL     1     113.666 124.192 136.928  0.00  0.00    +0.000 A 
ENDBRANCH   5  15
BRANCH   4  21
ATOM     21  O   UNL     1     109.221 127.929 137.401  0.00  0.00    +0.000 OA
BRANCH  21  30
ATOM     22  O   UNL     1     109.839 129.034 136.738  0.00  0.00    +0.000 OA
ATOM     23  O   UNL     1     110.166 130.159 138.919  0.00  0.00    +0.000 OA
ATOM     24  O   UNL     1     110.675 130.888 137.530  0.00  0.00    +0.000 OA
ATOM     25  O   UNL     1     109.439 128.679 138.855  0.00  0.00    +0.000 OA
ATOM     26  C   UNL     1     110.057 129.784 138.192  0.00  0.00    +0.000 C 
ATOM     27  C   UNL     1     110.311 130.149 137.498  0.00  0.00    +0.000 C 
ATOM     28  C   UNL     1     109.693 129.044 138.161  0.00  0.00    +0.000 C 
ATOM     29  C   UNL     1     110.202 129.774 136.771  0.00  0.00    +0.000 C 
ATOM     30  C   UNL     1     109.584 128.669 137.434  0.00  0.00    +0.000 C 
BRANCH  29  32
ATOM     31  O   UNL     1     109.930 130.242 135.449  0.00  0.00    +0.000 OA
ATOM     32  C   UNL     1     110.457 130.138 136.076  0.00  0.00    +0.000 C 
ENDBRANCH  29  32
ENDBRANCH  21  30
ENDBRANCH   4  21
TORSDOF 4
ENDMDL
