MODEL 1
REMARK VINA RESULT:     -10.3      0.000      0.000
REMARK  Name = 44258177
REMARK  9 active torsions:
REMARK  status: ('A' for Active; 'I' for Inactive)
REMARK    1  A    between atoms: O_2  and  C_15
REMARK    2  A    between atoms: O_2  and  C_27
REMARK    3  A    between atoms: O_11  and  C_37
REMARK    4  A    between atoms: O_13  and  C_42
REMARK    5  A    between atoms: C_17  and  C_20
REMARK    6  A    between atoms: C_19  and  C_21
REMARK    7  A    between atoms: C_27  and  C_29
REMARK    8  A    between atoms: C_31  and  C_32
REMARK    9  A    between atoms: C_33  and  C_36
REMARK                            x       y       z     vdW  Elec       q    Type
REMARK                         _______ _______ _______ _____ _____    ______ ____
ROOT
ATOM      1  O   UNL     1     108.081 127.686 142.886  0.00  0.00    +0.000 OA
ATOM      2  O   UNL     1     106.728 128.895 141.202  0.00  0.00    +0.000 OA
ATOM      3  O   UNL     1     108.355 128.730 140.989  0.00  0.00    +0.000 OA
ATOM      4  C   UNL     1     106.816 128.171 142.431  0.00  0.00    +0.000 C 
ATOM      5  C   UNL     1     107.179 128.492 141.763  0.00  0.00    +0.000 C 
ATOM      6  C   UNL     1     107.267 127.769 142.992  0.00  0.00    +0.000 C 
ATOM      7  C   UNL     1     107.993 128.410 141.657  0.00  0.00    +0.000 C 
ATOM      8  C   UNL     1     108.444 128.007 142.218  0.00  0.00    +0.000 C 
ENDROOT
BRANCH   6  13
ATOM      9  O   UNL     1     106.844 126.174 143.014  0.00  0.00    +0.000 OA
ATOM     10  O   UNL     1     106.964 128.720 144.306  0.00  0.00    +0.000 OA
ATOM     11  O   UNL     1     105.802 126.481 145.697  0.00  0.00    +0.000 OA
ATOM     12  O   UNL     1     106.270 125.029 143.677  0.00  0.00    +0.000 OA
ATOM     13  C   UNL     1     106.904 127.448 143.660  0.00  0.00    +0.000 A 
ATOM     14  C   UNL     1     106.693 126.650 143.671  0.00  0.00    +0.000 A 
ATOM     15  C   UNL     1     106.753 127.924 144.317  0.00  0.00    +0.000 A 
ATOM     16  C   UNL     1     106.330 126.329 144.339  0.00  0.00    +0.000 A 
ATOM     17  C   UNL     1     106.391 127.601 144.985  0.00  0.00    +0.000 A 
ATOM     18  C   UNL     1     106.179 126.805 144.996  0.00  0.00    +0.000 A 
ATOM     19  C   UNL     1     106.115 125.497 144.338  0.00  0.00    +0.000 A 
ATOM     20  C   UNL     1     105.737 125.156 145.031  0.00  0.00    +0.000 A 
ATOM     21  C   UNL     1     105.580 125.652 145.715  0.00  0.00    +0.000 A 
BRANCH  21  23
ATOM     22  O   UNL     1     104.131 124.376 148.392  0.00  0.00    +0.000 OA
ATOM     23  C   UNL     1     105.218 125.333 146.384  0.00  0.00    +0.000 A 
ATOM     24  C   UNL     1     105.677 125.001 146.983  0.00  0.00    +0.000 A 
ATOM     25  C   UNL     1     104.396 125.346 146.454  0.00  0.00    +0.000 A 
ATOM     26  C   UNL     1     105.316 124.681 147.653  0.00  0.00    +0.000 A 
ATOM     27  C   UNL     1     104.034 125.027 147.123  0.00  0.00    +0.000 A 
ATOM     28  C   UNL     1     104.494 124.695 147.723  0.00  0.00    +0.000 A 
BRANCH  26  29
ATOM     29  O   UNL     1     105.775 124.349 148.252  0.00  0.00    +0.000 OA
ATOM     30  C   UNL     1     106.456 124.736 148.512  0.00  0.00    +0.000 C 
ENDBRANCH  26  29
ENDBRANCH  21  23
ENDBRANCH   6  13
BRANCH   8  32
ATOM     31  O   UNL     1     109.767 128.005 142.756  0.00  0.00    +0.000 OA
ATOM     32  C   UNL     1     109.257 127.925 142.112  0.00  0.00    +0.000 C 
ENDBRANCH   8  32
BRANCH   4  33
ATOM     33  O   UNL     1     106.002 128.253 142.538  0.00  0.00    +0.000 OA
BRANCH  33  35
ATOM     34  O   UNL     1     105.553 127.636 141.331  0.00  0.00    +0.000 OA
ATOM     35  C   UNL     1     105.498 128.243 141.885  0.00  0.00    +0.000 C 
BRANCH  35  36
ATOM     36  C   UNL     1     104.938 128.842 141.788  0.00  0.00    +0.000 C 
ATOM     37  C   UNL     1     104.134 128.660 141.797  0.00  0.00    +0.000 C 
BRANCH  37  39
ATOM     38  O   UNL     1     101.892 131.051 141.406  0.00  0.00    +0.000 OA
ATOM     39  C   UNL     1     103.574 129.258 141.699  0.00  0.00    +0.000 A 
ATOM     40  C   UNL     1     103.149 129.313 140.994  0.00  0.00    +0.000 A 
ATOM     41  C   UNL     1     103.438 129.800 142.306  0.00  0.00    +0.000 A 
ATOM     42  C   UNL     1     102.588 129.911 140.896  0.00  0.00    +0.000 A 
ATOM     43  C   UNL     1     102.878 130.398 142.209  0.00  0.00    +0.000 A 
ATOM     44  C   UNL     1     102.453 130.453 141.503  0.00  0.00    +0.000 A 
BRANCH  42  45
ATOM     45  O   UNL     1     102.163 129.966 140.191  0.00  0.00    +0.000 OA
ATOM     46  C   UNL     1     102.228 129.371 139.623  0.00  0.00    +0.000 C 
ENDBRANCH  42  45
ENDBRANCH  37  39
ENDBRANCH  35  36
ENDBRANCH  33  35
ENDBRANCH   4  33
TORSDOF 9
ENDMDL
MODEL 2
REMARK VINA RESULT:      -9.8      7.955      9.387
REMARK  Name = 44258177
REMARK  9 active torsions:
REMARK  status: ('A' for Active; 'I' for Inactive)
REMARK    1  A    between atoms: O_2  and  C_15
REMARK    2  A    between atoms: O_2  and  C_27
REMARK    3  A    between atoms: O_11  and  C_37
REMARK    4  A    between atoms: O_13  and  C_42
REMARK    5  A    between atoms: C_17  and  C_20
REMARK    6  A    between atoms: C_19  and  C_21
REMARK    7  A    between atoms: C_27  and  C_29
REMARK    8  A    between atoms: C_31  and  C_32
REMARK    9  A    between atoms: C_33  and  C_36
REMARK                            x       y       z     vdW  Elec       q    Type
REMARK                         _______ _______ _______ _____ _____    ______ ____
ROOT
ATOM      1  O   UNL     1     109.653 131.231 136.527  0.00  0.00    +0.000 OA
ATOM      2  O   UNL     1     107.923 129.760 135.542  0.00  0.00    +0.000 OA
ATOM      3  O   UNL     1     108.029 131.338 135.073  0.00  0.00    +0.000 OA
ATOM      4  C   UNL     1     109.024 129.951 136.433  0.00  0.00    +0.000 C 
ATOM      5  C   UNL     1     108.500 130.250 135.870  0.00  0.00    +0.000 C 
ATOM      6  C   UNL     1     109.600 130.441 136.761  0.00  0.00    +0.000 C 
ATOM      7  C   UNL     1     108.553 131.039 135.636  0.00  0.00    +0.000 C 
ATOM      8  C   UNL     1     109.129 131.529 135.964  0.00  0.00    +0.000 C 
ENDROOT
BRANCH   6  13
ATOM      9  O   UNL     1     111.106 129.944 136.303  0.00  0.00    +0.000 OA
ATOM     10  O   UNL     1     109.145 130.342 138.344  0.00  0.00    +0.000 OA
ATOM     11  O   UNL     1     111.712 129.237 139.044  0.00  0.00    +0.000 OA
ATOM     12  O   UNL     1     112.402 129.393 136.613  0.00  0.00    +0.000 OA
ATOM     13  C   UNL     1     110.125 130.143 137.324  0.00  0.00    +0.000 A 
ATOM     14  C   UNL     1     110.878 129.894 137.095  0.00  0.00    +0.000 A 
ATOM     15  C   UNL     1     109.897 130.093 138.115  0.00  0.00    +0.000 A 
ATOM     16  C   UNL     1     111.402 129.596 137.658  0.00  0.00    +0.000 A 
ATOM     17  C   UNL     1     110.422 129.794 138.677  0.00  0.00    +0.000 A 
ATOM     18  C   UNL     1     111.174 129.546 138.449  0.00  0.00    +0.000 A 
ATOM     19  C   UNL     1     112.183 129.340 137.407  0.00  0.00    +0.000 A 
ATOM     20  C   UNL     1     112.734 129.028 137.988  0.00  0.00    +0.000 A 
ATOM     21  C   UNL     1     112.497 128.976 138.812  0.00  0.00    +0.000 A 
BRANCH  21  23
ATOM     22  O   UNL     1     114.588 127.785 141.070  0.00  0.00    +0.000 OA
ATOM     23  C   UNL     1     113.019 128.678 139.376  0.00  0.00    +0.000 A 
ATOM     24  C   UNL     1     113.514 129.191 139.792  0.00  0.00    +0.000 A 
ATOM     25  C   UNL     1     113.048 127.868 139.526  0.00  0.00    +0.000 A 
ATOM     26  C   UNL     1     114.037 128.894 140.357  0.00  0.00    +0.000 A 
ATOM     27  C   UNL     1     113.570 127.570 140.090  0.00  0.00    +0.000 A 
ATOM     28  C   UNL     1     114.065 128.083 140.506  0.00  0.00    +0.000 A 
BRANCH  26  29
ATOM     29  O   UNL     1     114.532 129.407 140.772  0.00  0.00    +0.000 OA
ATOM     30  C   UNL     1     114.282 130.175 140.940  0.00  0.00    +0.000 C 
ENDBRANCH  26  29
ENDBRANCH  21  23
ENDBRANCH   6  13
BRANCH   8  32
ATOM     31  O   UNL     1     109.709 132.827 136.112  0.00  0.00    +0.000 OA
ATOM     32  C   UNL     1     109.182 132.318 135.730  0.00  0.00    +0.000 C 
ENDBRANCH   8  32
BRANCH   4  33
ATOM     33  O   UNL     1     108.971 129.162 136.668  0.00  0.00    +0.000 OA
BRANCH  33  35
ATOM     34  O   UNL     1     107.944 128.633 135.828  0.00  0.00    +0.000 OA
ATOM     35  C   UNL     1     108.708 128.590 136.134  0.00  0.00    +0.000 C 
BRANCH  35  36
ATOM     36  C   UNL     1     109.211 127.976 135.908  0.00  0.00    +0.000 C 
ATOM     37  C   UNL     1     109.069 127.208 136.176  0.00  0.00    +0.000 C 
BRANCH  37  39
ATOM     38  O   UNL     1     111.077 124.748 135.275  0.00  0.00    +0.000 OA
ATOM     39  C   UNL     1     109.571 126.594 135.950  0.00  0.00    +0.000 A 
ATOM     40  C   UNL     1     110.100 126.271 136.497  0.00  0.00    +0.000 A 
ATOM     41  C   UNL     1     109.544 126.300 135.179  0.00  0.00    +0.000 A 
ATOM     42  C   UNL     1     110.601 125.656 136.271  0.00  0.00    +0.000 A 
ATOM     43  C   UNL     1     110.047 125.685 134.954  0.00  0.00    +0.000 A 
ATOM     44  C   UNL     1     110.574 125.363 135.500  0.00  0.00    +0.000 A 
BRANCH  42  45
ATOM     45  O   UNL     1     111.130 125.334 136.817  0.00  0.00    +0.000 OA
ATOM     46  C   UNL     1     111.026 125.476 137.623  0.00  0.00    +0.000 C 
ENDBRANCH  42  45
ENDBRANCH  37  39
ENDBRANCH  35  36
ENDBRANCH  33  35
ENDBRANCH   4  33
TORSDOF 9
ENDMDL
MODEL 3
REMARK VINA RESULT:      -9.7      5.126      9.003
REMARK  Name = 44258177
REMARK  9 active torsions:
REMARK  status: ('A' for Active; 'I' for Inactive)
REMARK    1  A    between atoms: O_2  and  C_15
REMARK    2  A    between atoms: O_2  and  C_27
REMARK    3  A    between atoms: O_11  and  C_37
REMARK    4  A    between atoms: O_13  and  C_42
REMARK    5  A    between atoms: C_17  and  C_20
REMARK    6  A    between atoms: C_19  and  C_21
REMARK    7  A    between atoms: C_27  and  C_29
REMARK    8  A    between atoms: C_31  and  C_32
REMARK    9  A    between atoms: C_33  and  C_36
REMARK                            x       y       z     vdW  Elec       q    Type
REMARK                         _______ _______ _______ _____ _____    ______ ____
ROOT
ATOM      1  O   UNL     1     113.255 125.510 137.555  0.00  0.00    +0.000 OA
ATOM      2  O   UNL     1     110.862 124.912 137.353  0.00  0.00    +0.000 OA
ATOM      3  O   UNL     1     112.018 123.902 136.751  0.00  0.00    +0.000 OA
ATOM      4  C   UNL     1     111.878 125.817 137.789  0.00  0.00    +0.000 C 
ATOM      5  C   UNL     1     111.660 125.112 137.420  0.00  0.00    +0.000 C 
ATOM      6  C   UNL     1     112.676 126.016 137.857  0.00  0.00    +0.000 C 
ATOM      7  C   UNL     1     112.237 124.607 137.119  0.00  0.00    +0.000 C 
ATOM      8  C   UNL     1     113.035 124.806 137.186  0.00  0.00    +0.000 C 
ENDROOT
BRANCH   6  13
ATOM      9  O   UNL     1     113.086 126.016 139.455  0.00  0.00    +0.000 OA
ATOM     10  O   UNL     1     112.707 127.424 136.997  0.00  0.00    +0.000 OA
ATOM     11  O   UNL     1     113.564 128.868 139.338  0.00  0.00    +0.000 OA
ATOM     12  O   UNL     1     113.515 126.703 140.649  0.00  0.00    +0.000 OA
ATOM     13  C   UNL     1     112.896 126.720 138.225  0.00  0.00    +0.000 A 
ATOM     14  C   UNL     1     113.101 126.720 139.025  0.00  0.00    +0.000 A 
ATOM     15  C   UNL     1     112.911 127.424 137.795  0.00  0.00    +0.000 A 
ATOM     16  C   UNL     1     113.321 127.424 139.394  0.00  0.00    +0.000 A 
ATOM     17  C   UNL     1     113.132 128.128 138.165  0.00  0.00    +0.000 A 
ATOM     18  C   UNL     1     113.337 128.128 138.964  0.00  0.00    +0.000 A 
ATOM     19  C   UNL     1     113.533 127.412 140.227  0.00  0.00    +0.000 A 
ATOM     20  C   UNL     1     113.763 128.142 140.617  0.00  0.00    +0.000 A 
ATOM     21  C   UNL     1     113.779 128.875 140.169  0.00  0.00    +0.000 A 
BRANCH  21  23
ATOM     22  O   UNL     1     114.657 131.697 141.637  0.00  0.00    +0.000 OA
ATOM     23  C   UNL     1     113.998 129.580 140.536  0.00  0.00    +0.000 A 
ATOM     24  C   UNL     1     113.457 129.985 141.009  0.00  0.00    +0.000 A 
ATOM     25  C   UNL     1     114.759 129.881 140.430  0.00  0.00    +0.000 A 
ATOM     26  C   UNL     1     113.676 130.691 141.376  0.00  0.00    +0.000 A 
ATOM     27  C   UNL     1     114.979 130.587 140.797  0.00  0.00    +0.000 A 
ATOM     28  C   UNL     1     114.437 130.992 141.270  0.00  0.00    +0.000 A 
BRANCH  26  29
ATOM     29  O   UNL     1     113.135 131.096 141.849  0.00  0.00    +0.000 OA
ATOM     30  C   UNL     1     112.501 130.692 142.190  0.00  0.00    +0.000 C 
ENDBRANCH  26  29
ENDBRANCH  21  23
ENDBRANCH   6  13
BRANCH   8  32
ATOM     31  O   UNL     1     114.286 124.615 136.524  0.00  0.00    +0.000 OA
ATOM     32  C   UNL     1     113.614 124.301 136.885  0.00  0.00    +0.000 C 
ENDBRANCH   8  32
BRANCH   4  33
ATOM     33  O   UNL     1     111.301 126.322 138.091  0.00  0.00    +0.000 OA
BRANCH  33  35
ATOM     34  O   UNL     1     110.084 125.874 137.492  0.00  0.00    +0.000 OA
ATOM     35  C   UNL     1     110.522 126.060 138.165  0.00  0.00    +0.000 C 
BRANCH  35  36
ATOM     36  C   UNL     1     110.183 125.983 138.913  0.00  0.00    +0.000 C 
ATOM     37  C   UNL     1     109.637 126.543 139.177  0.00  0.00    +0.000 C 
BRANCH  37  39
ATOM     38  O   UNL     1     108.278 126.244 142.170  0.00  0.00    +0.000 OA
ATOM     39  C   UNL     1     109.297 126.468 139.925  0.00  0.00    +0.000 A 
ATOM     40  C   UNL     1     109.605 126.894 140.562  0.00  0.00    +0.000 A 
ATOM     41  C   UNL     1     108.650 125.968 140.036  0.00  0.00    +0.000 A 
ATOM     42  C   UNL     1     109.264 126.819 141.310  0.00  0.00    +0.000 A 
ATOM     43  C   UNL     1     108.310 125.893 140.785  0.00  0.00    +0.000 A 
ATOM     44  C   UNL     1     108.618 126.319 141.421  0.00  0.00    +0.000 A 
BRANCH  42  45
ATOM     45  O   UNL     1     109.572 127.244 141.947  0.00  0.00    +0.000 OA
ATOM     46  C   UNL     1     110.103 127.861 141.812  0.00  0.00    +0.000 C 
ENDBRANCH  42  45
ENDBRANCH  37  39
ENDBRANCH  35  36
ENDBRANCH  33  35
ENDBRANCH   4  33
TORSDOF 9
ENDMDL
MODEL 4
REMARK VINA RESULT:      -9.7      8.136     10.659
REMARK  Name = 44258177
REMARK  9 active torsions:
REMARK  status: ('A' for Active; 'I' for Inactive)
REMARK    1  A    between atoms: O_2  and  C_15
REMARK    2  A    between atoms: O_2  and  C_27
REMARK    3  A    between atoms: O_11  and  C_37
REMARK    4  A    between atoms: O_13  and  C_42
REMARK    5  A    between atoms: C_17  and  C_20
REMARK    6  A    between atoms: C_19  and  C_21
REMARK    7  A    between atoms: C_27  and  C_29
REMARK    8  A    between atoms: C_31  and  C_32
REMARK    9  A    between atoms: C_33  and  C_36
REMARK                            x       y       z     vdW  Elec       q    Type
REMARK                         _______ _______ _______ _____ _____    ______ ____
ROOT
ATOM      1  O   UNL     1     113.184 126.276 136.946  0.00  0.00    +0.000 OA
ATOM      2  O   UNL     1     113.993 126.440 139.279  0.00  0.00    +0.000 OA
ATOM      3  O   UNL     1     114.592 125.274 138.278  0.00  0.00    +0.000 OA
ATOM      4  C   UNL     1     113.153 126.914 138.225  0.00  0.00    +0.000 C 
ATOM      5  C   UNL     1     113.723 126.385 138.502  0.00  0.00    +0.000 C 
ATOM      6  C   UNL     1     112.884 126.860 137.447  0.00  0.00    +0.000 C 
ATOM      7  C   UNL     1     114.023 125.802 138.002  0.00  0.00    +0.000 C 
ATOM      8  C   UNL     1     113.753 125.748 137.224  0.00  0.00    +0.000 C 
ENDROOT
BRANCH   6  13
ATOM      9  O   UNL     1     113.349 128.246 136.683  0.00  0.00    +0.000 OA
ATOM     10  O   UNL     1     111.280 126.531 137.656  0.00  0.00    +0.000 OA
ATOM     11  O   UNL     1     110.574 128.988 136.328  0.00  0.00    +0.000 OA
ATOM     12  O   UNL     1     113.037 129.484 136.013  0.00  0.00    +0.000 OA
ATOM     13  C   UNL     1     112.314 127.388 137.169  0.00  0.00    +0.000 A 
ATOM     14  C   UNL     1     112.547 128.081 136.787  0.00  0.00    +0.000 A 
ATOM     15  C   UNL     1     111.513 127.223 137.274  0.00  0.00    +0.000 A 
ATOM     16  C   UNL     1     111.978 128.609 136.509  0.00  0.00    +0.000 A 
ATOM     17  C   UNL     1     110.944 127.752 136.995  0.00  0.00    +0.000 A 
ATOM     18  C   UNL     1     111.176 128.445 136.613  0.00  0.00    +0.000 A 
ATOM     19  C   UNL     1     112.233 129.328 136.112  0.00  0.00    +0.000 A 
ATOM     20  C   UNL     1     111.645 129.883 135.821  0.00  0.00    +0.000 A 
ATOM     21  C   UNL     1     110.810 129.711 135.929  0.00  0.00    +0.000 A 
BRANCH  21  23
ATOM     22  O   UNL     1     108.525 131.820 134.822  0.00  0.00    +0.000 OA
ATOM     23  C   UNL     1     110.239 130.238 135.652  0.00  0.00    +0.000 A 
ATOM     24  C   UNL     1     109.969 130.847 136.139  0.00  0.00    +0.000 A 
ATOM     25  C   UNL     1     109.937 130.157 134.889  0.00  0.00    +0.000 A 
ATOM     26  C   UNL     1     109.397 131.375 135.863  0.00  0.00    +0.000 A 
ATOM     27  C   UNL     1     109.366 130.684 134.612  0.00  0.00    +0.000 A 
ATOM     28  C   UNL     1     109.096 131.293 135.099  0.00  0.00    +0.000 A 
BRANCH  26  29
ATOM     29  O   UNL     1     109.127 131.984 136.349  0.00  0.00    +0.000 OA
ATOM     30  C   UNL     1     108.919 131.825 137.132  0.00  0.00    +0.000 C 
ENDBRANCH  26  29
ENDBRANCH  21  23
ENDBRANCH   6  13
BRANCH   8  32
ATOM     31  O   UNL     1     113.539 124.725 136.249  0.00  0.00    +0.000 OA
ATOM     32  C   UNL     1     114.053 125.165 136.723  0.00  0.00    +0.000 C 
ENDBRANCH   8  32
BRANCH   4  33
ATOM     33  O   UNL     1     112.854 127.497 138.725  0.00  0.00    +0.000 OA
BRANCH  33  35
ATOM     34  O   UNL     1     112.998 126.936 140.030  0.00  0.00    +0.000 OA
ATOM     35  C   UNL     1     113.127 127.555 139.501  0.00  0.00    +0.000 C 
BRANCH  35  36
ATOM     36  C   UNL     1     113.529 128.232 139.747  0.00  0.00    +0.000 C 
ATOM     37  C   UNL     1     113.186 128.736 140.303  0.00  0.00    +0.000 C 
BRANCH  37  39
ATOM     38  O   UNL     1     114.790 131.446 141.291  0.00  0.00    +0.000 OA
ATOM     39  C   UNL     1     113.588 129.413 140.550  0.00  0.00    +0.000 A 
ATOM     40  C   UNL     1     113.242 129.918 141.104  0.00  0.00    +0.000 A 
ATOM     41  C   UNL     1     114.334 129.586 140.243  0.00  0.00    +0.000 A 
ATOM     42  C   UNL     1     113.643 130.595 141.350  0.00  0.00    +0.000 A 
ATOM     43  C   UNL     1     114.735 130.264 140.490  0.00  0.00    +0.000 A 
ATOM     44  C   UNL     1     114.389 130.768 141.044  0.00  0.00    +0.000 A 
BRANCH  42  45
ATOM     45  O   UNL     1     113.297 131.101 141.904  0.00  0.00    +0.000 OA
ATOM     46  C   UNL     1     112.595 130.882 142.279  0.00  0.00    +0.000 C 
ENDBRANCH  42  45
ENDBRANCH  37  39
ENDBRANCH  35  36
ENDBRANCH  33  35
ENDBRANCH   4  33
TORSDOF 9
ENDMDL
MODEL 5
REMARK VINA RESULT:      -9.6      7.731     10.322
REMARK  Name = 44258177
REMARK  9 active torsions:
REMARK  status: ('A' for Active; 'I' for Inactive)
REMARK    1  A    between atoms: O_2  and  C_15
REMARK    2  A    between atoms: O_2  and  C_27
REMARK    3  A    between atoms: O_11  and  C_37
REMARK    4  A    between atoms: O_13  and  C_42
REMARK    5  A    between atoms: C_17  and  C_20
REMARK    6  A    between atoms: C_19  and  C_21
REMARK    7  A    between atoms: C_27  and  C_29
REMARK    8  A    between atoms: C_31  and  C_32
REMARK    9  A    between atoms: C_33  and  C_36
REMARK                            x       y       z     vdW  Elec       q    Type
REMARK                         _______ _______ _______ _____ _____    ______ ____
ROOT
ATOM      1  O   UNL     1     110.835 126.212 136.425  0.00  0.00    +0.000 OA
ATOM      2  O   UNL     1     111.408 125.061 138.540  0.00  0.00    +0.000 OA
ATOM      3  O   UNL     1     111.345 124.211 137.128  0.00  0.00    +0.000 OA
ATOM      4  C   UNL     1     111.057 126.254 137.836  0.00  0.00    +0.000 C 
ATOM      5  C   UNL     1     111.217 125.445 137.835  0.00  0.00    +0.000 C 
ATOM      6  C   UNL     1     110.867 126.638 137.131  0.00  0.00    +0.000 C 
ATOM      7  C   UNL     1     111.186 125.019 137.129  0.00  0.00    +0.000 C 
ATOM      8  C   UNL     1     110.995 125.403 136.424  0.00  0.00    +0.000 C 
ENDROOT
BRANCH   6  13
ATOM      9  O   UNL     1     112.049 127.711 136.715  0.00  0.00    +0.000 OA
ATOM     10  O   UNL     1     109.366 127.184 137.548  0.00  0.00    +0.000 OA
ATOM     11  O   UNL     1     110.211 129.908 137.136  0.00  0.00    +0.000 OA
ATOM     12  O   UNL     1     112.510 129.061 136.498  0.00  0.00    +0.000 OA
ATOM     13  C   UNL     1     110.707 127.447 137.132  0.00  0.00    +0.000 A 
ATOM     14  C   UNL     1     111.299 127.984 136.923  0.00  0.00    +0.000 A 
ATOM     15  C   UNL     1     109.957 127.720 137.340  0.00  0.00    +0.000 A 
ATOM     16  C   UNL     1     111.139 128.794 136.924  0.00  0.00    +0.000 A 
ATOM     17  C   UNL     1     109.798 128.530 137.340  0.00  0.00    +0.000 A 
ATOM     18  C   UNL     1     110.389 129.066 137.132  0.00  0.00    +0.000 A 
ATOM     19  C   UNL     1     111.763 129.343 136.705  0.00  0.00    +0.000 A 
ATOM     20  C   UNL     1     111.603 130.187 136.703  0.00  0.00    +0.000 A 
ATOM     21  C   UNL     1     110.822 130.471 136.920  0.00  0.00    +0.000 A 
BRANCH  21  23
ATOM     22  O   UNL     1     110.174 133.707 136.923  0.00  0.00    +0.000 OA
ATOM     23  C   UNL     1     110.660 131.280 136.921  0.00  0.00    +0.000 A 
ATOM     24  C   UNL     1     110.215 131.612 136.311  0.00  0.00    +0.000 A 
ATOM     25  C   UNL     1     110.943 131.757 137.532  0.00  0.00    +0.000 A 
ATOM     26  C   UNL     1     110.053 132.422 136.311  0.00  0.00    +0.000 A 
ATOM     27  C   UNL     1     110.781 132.566 137.533  0.00  0.00    +0.000 A 
ATOM     28  C   UNL     1     110.336 132.898 136.922  0.00  0.00    +0.000 A 
BRANCH  26  29
ATOM     29  O   UNL     1     109.608 132.754 135.701  0.00  0.00    +0.000 OA
ATOM     30  C   UNL     1     109.024 132.308 135.327  0.00  0.00    +0.000 C 
ENDBRANCH  26  29
ENDBRANCH  21  23
ENDBRANCH   6  13
BRANCH   8  32
ATOM     31  O   UNL     1     110.490 125.245 135.097  0.00  0.00    +0.000 OA
ATOM     32  C   UNL     1     110.964 124.978 135.718  0.00  0.00    +0.000 C 
ENDBRANCH   8  32
BRANCH   4  33
ATOM     33  O   UNL     1     111.089 126.680 138.542  0.00  0.00    +0.000 OA
BRANCH  33  35
ATOM     34  O   UNL     1     111.227 125.750 139.617  0.00  0.00    +0.000 OA
ATOM     35  C   UNL     1     111.519 126.387 139.182  0.00  0.00    +0.000 C 
BRANCH  35  36
ATOM     36  C   UNL     1     112.240 126.731 139.385  0.00  0.00    +0.000 C 
ATOM     37  C   UNL     1     112.305 127.172 140.079  0.00  0.00    +0.000 C 
BRANCH  37  39
ATOM     38  O   UNL     1     115.189 128.552 140.899  0.00  0.00    +0.000 OA
ATOM     39  C   UNL     1     113.026 127.516 140.284  0.00  0.00    +0.000 A 
ATOM     40  C   UNL     1     113.141 128.327 140.175  0.00  0.00    +0.000 A 
ATOM     41  C   UNL     1     113.631 127.052 140.598  0.00  0.00    +0.000 A 
ATOM     42  C   UNL     1     113.862 128.671 140.380  0.00  0.00    +0.000 A 
ATOM     43  C   UNL     1     114.353 127.397 140.803  0.00  0.00    +0.000 A 
ATOM     44  C   UNL     1     114.468 128.207 140.694  0.00  0.00    +0.000 A 
BRANCH  42  45
ATOM     45  O   UNL     1     113.978 129.482 140.271  0.00  0.00    +0.000 OA
ATOM     46  C   UNL     1     113.345 129.961 140.045  0.00  0.00    +0.000 C 
ENDBRANCH  42  45
ENDBRANCH  37  39
ENDBRANCH  35  36
ENDBRANCH  33  35
ENDBRANCH   4  33
TORSDOF 9
ENDMDL
MODEL 6
REMARK VINA RESULT:      -9.6      8.095     10.490
REMARK  Name = 44258177
REMARK  9 active torsions:
REMARK  status: ('A' for Active; 'I' for Inactive)
REMARK    1  A    between atoms: O_2  and  C_15
REMARK    2  A    between atoms: O_2  and  C_27
REMARK    3  A    between atoms: O_11  and  C_37
REMARK    4  A    between atoms: O_13  and  C_42
REMARK    5  A    between atoms: C_17  and  C_20
REMARK    6  A    between atoms: C_19  and  C_21
REMARK    7  A    between atoms: C_27  and  C_29
REMARK    8  A    between atoms: C_31  and  C_32
REMARK    9  A    between atoms: C_33  and  C_36
REMARK                            x       y       z     vdW  Elec       q    Type
REMARK                         _______ _______ _______ _____ _____    ______ ____
ROOT
ATOM      1  O   UNL     1     109.299 129.956 136.506  0.00  0.00    +0.000 OA
ATOM      2  O   UNL     1     110.728 131.868 137.161  0.00  0.00    +0.000 OA
ATOM      3  O   UNL     1     109.221 132.137 136.546  0.00  0.00    +0.000 OA
ATOM      4  C   UNL     1     110.530 130.459 137.032  0.00  0.00    +0.000 C 
ATOM      5  C   UNL     1     110.252 131.231 136.942  0.00  0.00    +0.000 C 
ATOM      6  C   UNL     1     110.053 129.822 136.813  0.00  0.00    +0.000 C 
ATOM      7  C   UNL     1     109.499 131.365 136.635  0.00  0.00    +0.000 C 
ATOM      8  C   UNL     1     109.022 130.728 136.417  0.00  0.00    +0.000 C 
ENDROOT
BRANCH   6  13
ATOM      9  O   UNL     1     110.729 129.036 135.529  0.00  0.00    +0.000 OA
ATOM     10  O   UNL     1     109.932 129.063 138.274  0.00  0.00    +0.000 OA
ATOM     11  O   UNL     1     111.169 126.701 137.182  0.00  0.00    +0.000 OA
ATOM     12  O   UNL     1     111.351 127.873 134.945  0.00  0.00    +0.000 OA
ATOM     13  C   UNL     1     110.330 129.050 136.902  0.00  0.00    +0.000 A 
ATOM     14  C   UNL     1     110.668 128.657 136.259  0.00  0.00    +0.000 A 
ATOM     15  C   UNL     1     110.269 128.670 137.632  0.00  0.00    +0.000 A 
ATOM     16  C   UNL     1     110.945 127.885 136.348  0.00  0.00    +0.000 A 
ATOM     17  C   UNL     1     110.547 127.898 137.720  0.00  0.00    +0.000 A 
ATOM     18  C   UNL     1     110.884 127.505 137.078  0.00  0.00    +0.000 A 
ATOM     19  C   UNL     1     111.295 127.486 135.672  0.00  0.00    +0.000 A 
ATOM     20  C   UNL     1     111.585 126.682 135.757  0.00  0.00    +0.000 A 
ATOM     21  C   UNL     1     111.522 126.287 136.518  0.00  0.00    +0.000 A 
BRANCH  21  23
ATOM     22  O   UNL     1     112.627 123.199 136.881  0.00  0.00    +0.000 OA
ATOM     23  C   UNL     1     111.798 125.515 136.608  0.00  0.00    +0.000 A 
ATOM     24  C   UNL     1     112.531 125.378 136.962  0.00  0.00    +0.000 A 
ATOM     25  C   UNL     1     111.342 124.880 136.346  0.00  0.00    +0.000 A 
ATOM     26  C   UNL     1     112.808 124.606 137.053  0.00  0.00    +0.000 A 
ATOM     27  C   UNL     1     111.618 124.108 136.437  0.00  0.00    +0.000 A 
ATOM     28  C   UNL     1     112.351 123.971 136.791  0.00  0.00    +0.000 A 
BRANCH  26  29
ATOM     29  O   UNL     1     113.540 124.469 137.407  0.00  0.00    +0.000 OA
ATOM     30  C   UNL     1     114.216 124.840 137.113  0.00  0.00    +0.000 C 
ENDBRANCH  26  29
ENDBRANCH  21  23
ENDBRANCH   6  13
BRANCH   8  32
ATOM     31  O   UNL     1     107.697 130.267 136.146  0.00  0.00    +0.000 OA
ATOM     32  C   UNL     1     108.269 130.862 136.110  0.00  0.00    +0.000 C 
ENDBRANCH   8  32
BRANCH   4  33
ATOM     33  O   UNL     1     111.283 130.324 137.339  0.00  0.00    +0.000 OA
BRANCH  33  35
ATOM     34  O   UNL     1     111.763 131.528 137.939  0.00  0.00    +0.000 OA
ATOM     35  C   UNL     1     111.833 130.939 137.367  0.00  0.00    +0.000 C 
BRANCH  35  36
ATOM     36  C   UNL     1     112.452 130.963 136.822  0.00  0.00    +0.000 C 
ATOM     37  C   UNL     1     113.229 130.853 137.077  0.00  0.00    +0.000 C 
BRANCH  37  39
ATOM     38  O   UNL     1     115.710 130.946 134.902  0.00  0.00    +0.000 OA
ATOM     39  C   UNL     1     113.849 130.877 136.533  0.00  0.00    +0.000 A 
ATOM     40  C   UNL     1     114.121 130.178 136.188  0.00  0.00    +0.000 A 
ATOM     41  C   UNL     1     114.197 131.598 136.335  0.00  0.00    +0.000 A 
ATOM     42  C   UNL     1     114.741 130.202 135.644  0.00  0.00    +0.000 A 
ATOM     43  C   UNL     1     114.817 131.621 135.791  0.00  0.00    +0.000 A 
ATOM     44  C   UNL     1     115.089 130.923 135.446  0.00  0.00    +0.000 A 
BRANCH  42  45
ATOM     45  O   UNL     1     115.014 129.503 135.299  0.00  0.00    +0.000 OA
ATOM     46  C   UNL     1     114.556 128.818 135.339  0.00  0.00    +0.000 C 
ENDBRANCH  42  45
ENDBRANCH  37  39
ENDBRANCH  35  36
ENDBRANCH  33  35
ENDBRANCH   4  33
TORSDOF 9
ENDMDL
MODEL 7
REMARK VINA RESULT:      -9.5      7.887     10.267
REMARK  Name = 44258177
REMARK  9 active torsions:
REMARK  status: ('A' for Active; 'I' for Inactive)
REMARK    1  A    between atoms: O_2  and  C_15
REMARK    2  A    between atoms: O_2  and  C_27
REMARK    3  A    between atoms: O_11  and  C_37
REMARK    4  A    between atoms: O_13  and  C_42
REMARK    5  A    between atoms: C_17  and  C_20
REMARK    6  A    between atoms: C_19  and  C_21
REMARK    7  A    between atoms: C_27  and  C_29
REMARK    8  A    between atoms: C_31  and  C_32
REMARK    9  A    between atoms: C_33  and  C_36
REMARK                            x       y       z     vdW  Elec       q    Type
REMARK                         _______ _______ _______ _____ _____    ______ ____
ROOT
ATOM      1  O   UNL     1     113.494 130.514 140.191  0.00  0.00    +0.000 OA
ATOM      2  O   UNL     1     114.484 128.248 140.304  0.00  0.00    +0.000 OA
ATOM      3  O   UNL     1     115.225 129.511 141.062  0.00  0.00    +0.000 OA
ATOM      4  C   UNL     1     113.453 129.126 139.849  0.00  0.00    +0.000 C 
ATOM      5  C   UNL     1     114.154 129.003 140.266  0.00  0.00    +0.000 C 
ATOM      6  C   UNL     1     113.123 129.881 139.812  0.00  0.00    +0.000 C 
ATOM      7  C   UNL     1     114.525 129.635 140.646  0.00  0.00    +0.000 C 
ATOM      8  C   UNL     1     114.195 130.390 140.608  0.00  0.00    +0.000 C 
ENDROOT
BRANCH   6  13
ATOM      9  O   UNL     1     113.174 130.253 138.205  0.00  0.00    +0.000 OA
ATOM     10  O   UNL     1     111.670 129.758 140.584  0.00  0.00    +0.000 OA
ATOM     11  O   UNL     1     110.283 130.381 138.136  0.00  0.00    +0.000 OA
ATOM     12  O   UNL     1     112.518 130.568 136.960  0.00  0.00    +0.000 OA
ATOM     13  C   UNL     1     112.422 130.005 139.395  0.00  0.00    +0.000 A 
ATOM     14  C   UNL     1     112.448 130.191 138.591  0.00  0.00    +0.000 A 
ATOM     15  C   UNL     1     111.695 129.944 139.781  0.00  0.00    +0.000 A 
ATOM     16  C   UNL     1     111.747 130.315 138.174  0.00  0.00    +0.000 A 
ATOM     17  C   UNL     1     110.995 130.068 139.363  0.00  0.00    +0.000 A 
ATOM     18  C   UNL     1     111.020 130.254 138.560  0.00  0.00    +0.000 A 
ATOM     19  C   UNL     1     111.786 130.509 137.337  0.00  0.00    +0.000 A 
ATOM     20  C   UNL     1     111.060 130.639 136.898  0.00  0.00    +0.000 A 
ATOM     21  C   UNL     1     110.304 130.575 137.300  0.00  0.00    +0.000 A 
BRANCH  21  23
ATOM     22  O   UNL     1     107.494 131.068 135.639  0.00  0.00    +0.000 OA
ATOM     23  C   UNL     1     109.601 130.698 136.885  0.00  0.00    +0.000 A 
ATOM     24  C   UNL     1     109.215 130.062 136.529  0.00  0.00    +0.000 A 
ATOM     25  C   UNL     1     109.285 131.458 136.825  0.00  0.00    +0.000 A 
ATOM     26  C   UNL     1     108.512 130.185 136.114  0.00  0.00    +0.000 A 
ATOM     27  C   UNL     1     108.583 131.581 136.410  0.00  0.00    +0.000 A 
ATOM     28  C   UNL     1     108.197 130.945 136.054  0.00  0.00    +0.000 A 
BRANCH  26  29
ATOM     29  O   UNL     1     108.126 129.549 135.759  0.00  0.00    +0.000 OA
ATOM     30  C   UNL     1     108.478 128.803 135.754  0.00  0.00    +0.000 C 
ENDBRANCH  26  29
ENDBRANCH  21  23
ENDBRANCH   6  13
BRANCH   8  32
ATOM     31  O   UNL     1     114.905 131.628 140.541  0.00  0.00    +0.000 OA
ATOM     32  C   UNL     1     114.565 131.022 140.987  0.00  0.00    +0.000 C 
ENDBRANCH   8  32
BRANCH   4  33
ATOM     33  O   UNL     1     113.082 128.495 139.470  0.00  0.00    +0.000 OA
BRANCH  33  35
ATOM     34  O   UNL     1     113.298 127.441 140.409  0.00  0.00    +0.000 OA
ATOM     35  C   UNL     1     113.315 127.721 139.634  0.00  0.00    +0.000 C 
BRANCH  35  36
ATOM     36  C   UNL     1     113.566 127.228 139.022  0.00  0.00    +0.000 C 
ATOM     37  C   UNL     1     113.122 126.562 138.822  0.00  0.00    +0.000 C 
BRANCH  37  39
ATOM     38  O   UNL     1     114.119 124.585 136.373  0.00  0.00    +0.000 OA
ATOM     39  C   UNL     1     113.372 126.068 138.210  0.00  0.00    +0.000 A 
ATOM     40  C   UNL     1     112.861 125.898 137.584  0.00  0.00    +0.000 A 
ATOM     41  C   UNL     1     114.130 125.744 138.224  0.00  0.00    +0.000 A 
ATOM     42  C   UNL     1     113.111 125.404 136.972  0.00  0.00    +0.000 A 
ATOM     43  C   UNL     1     114.380 125.249 137.611  0.00  0.00    +0.000 A 
ATOM     44  C   UNL     1     113.870 125.080 136.986  0.00  0.00    +0.000 A 
BRANCH  42  45
ATOM     45  O   UNL     1     112.601 125.234 136.345  0.00  0.00    +0.000 OA
ATOM     46  C   UNL     1     111.790 125.365 136.427  0.00  0.00    +0.000 C 
ENDBRANCH  42  45
ENDBRANCH  37  39
ENDBRANCH  35  36
ENDBRANCH  33  35
ENDBRANCH   4  33
TORSDOF 9
ENDMDL
MODEL 8
REMARK VINA RESULT:      -9.5      6.240      8.432
REMARK  Name = 44258177
REMARK  9 active torsions:
REMARK  status: ('A' for Active; 'I' for Inactive)
REMARK    1  A    between atoms: O_2  and  C_15
REMARK    2  A    between atoms: O_2  and  C_27
REMARK    3  A    between atoms: O_11  and  C_37
REMARK    4  A    between atoms: O_13  and  C_42
REMARK    5  A    between atoms: C_17  and  C_20
REMARK    6  A    between atoms: C_19  and  C_21
REMARK    7  A    between atoms: C_27  and  C_29
REMARK    8  A    between atoms: C_31  and  C_32
REMARK    9  A    between atoms: C_33  and  C_36
REMARK                            x       y       z     vdW  Elec       q    Type
REMARK                         _______ _______ _______ _____ _____    ______ ____
ROOT
ATOM      1  O   UNL     1     109.601 131.305 136.813  0.00  0.00    +0.000 OA
ATOM      2  O   UNL     1     108.563 129.731 135.210  0.00  0.00    +0.000 OA
ATOM      3  O   UNL     1     108.874 131.286 134.756  0.00  0.00    +0.000 OA
ATOM      4  C   UNL     1     109.099 130.002 136.506  0.00  0.00    +0.000 C 
ATOM      5  C   UNL     1     108.909 130.256 135.745  0.00  0.00    +0.000 C 
ATOM      6  C   UNL     1     109.445 130.527 137.041  0.00  0.00    +0.000 C 
ATOM      7  C   UNL     1     109.064 131.033 135.517  0.00  0.00    +0.000 C 
ATOM      8  C   UNL     1     109.410 131.558 136.052  0.00  0.00    +0.000 C 
ENDROOT
BRANCH   6  13
ATOM      9  O   UNL     1     110.952 129.933 137.359  0.00  0.00    +0.000 OA
ATOM     10  O   UNL     1     108.322 130.616 138.246  0.00  0.00    +0.000 OA
ATOM     11  O   UNL     1     110.207 129.509 140.124  0.00  0.00    +0.000 OA
ATOM     12  O   UNL     1     111.924 129.377 138.268  0.00  0.00    +0.000 OA
ATOM     13  C   UNL     1     109.636 130.274 137.803  0.00  0.00    +0.000 A 
ATOM     14  C   UNL     1     110.390 129.977 137.962  0.00  0.00    +0.000 A 
ATOM     15  C   UNL     1     109.075 130.319 138.405  0.00  0.00    +0.000 A 
ATOM     16  C   UNL     1     110.581 129.725 138.723  0.00  0.00    +0.000 A 
ATOM     17  C   UNL     1     109.267 130.066 139.167  0.00  0.00    +0.000 A 
ATOM     18  C   UNL     1     110.019 129.769 139.326  0.00  0.00    +0.000 A 
ATOM     19  C   UNL     1     111.369 129.417 138.877  0.00  0.00    +0.000 A 
ATOM     20  C   UNL     1     111.574 129.153 139.668  0.00  0.00    +0.000 A 
ATOM     21  C   UNL     1     110.989 129.199 140.295  0.00  0.00    +0.000 A 
BRANCH  21  23
ATOM     22  O   UNL     1     111.745 128.192 143.346  0.00  0.00    +0.000 OA
ATOM     23  C   UNL     1     111.178 128.947 141.058  0.00  0.00    +0.000 A 
ATOM     24  C   UNL     1     111.546 129.465 141.584  0.00  0.00    +0.000 A 
ATOM     25  C   UNL     1     110.999 128.178 141.295  0.00  0.00    +0.000 A 
ATOM     26  C   UNL     1     111.735 129.214 142.347  0.00  0.00    +0.000 A 
ATOM     27  C   UNL     1     111.188 127.926 142.057  0.00  0.00    +0.000 A 
ATOM     28  C   UNL     1     111.556 128.444 142.584  0.00  0.00    +0.000 A 
BRANCH  26  29
ATOM     29  O   UNL     1     112.102 129.732 142.874  0.00  0.00    +0.000 OA
ATOM     30  C   UNL     1     111.887 130.528 142.887  0.00  0.00    +0.000 C 
ENDBRANCH  26  29
ENDBRANCH  21  23
ENDBRANCH   6  13
BRANCH   8  32
ATOM     31  O   UNL     1     109.866 132.873 136.375  0.00  0.00    +0.000 OA
ATOM     32  C   UNL     1     109.566 132.335 135.825  0.00  0.00    +0.000 C 
ENDBRANCH   8  32
BRANCH   4  33
ATOM     33  O   UNL     1     108.944 129.225 136.734  0.00  0.00    +0.000 OA
BRANCH  33  35
ATOM     34  O   UNL     1     108.013 128.726 135.773  0.00  0.00    +0.000 OA
ATOM     35  C   UNL     1     108.734 128.664 136.167  0.00  0.00    +0.000 C 
BRANCH  35  36
ATOM     36  C   UNL     1     109.247 128.041 135.994  0.00  0.00    +0.000 C 
ATOM     37  C   UNL     1     109.043 127.269 136.204  0.00  0.00    +0.000 C 
BRANCH  37  39
ATOM     38  O   UNL     1     111.091 124.773 135.519  0.00  0.00    +0.000 OA
ATOM     39  C   UNL     1     109.554 126.646 136.032  0.00  0.00    +0.000 A 
ATOM     40  C   UNL     1     110.005 126.304 136.635  0.00  0.00    +0.000 A 
ATOM     41  C   UNL     1     109.617 126.363 135.260  0.00  0.00    +0.000 A 
ATOM     42  C   UNL     1     110.516 125.680 136.463  0.00  0.00    +0.000 A 
ATOM     43  C   UNL     1     110.129 125.738 135.088  0.00  0.00    +0.000 A 
ATOM     44  C   UNL     1     110.578 125.398 135.690  0.00  0.00    +0.000 A 
BRANCH  42  45
ATOM     45  O   UNL     1     110.966 125.339 137.065  0.00  0.00    +0.000 OA
ATOM     46  C   UNL     1     111.084 125.746 137.772  0.00  0.00    +0.000 C 
ENDBRANCH  42  45
ENDBRANCH  37  39
ENDBRANCH  35  36
ENDBRANCH  33  35
ENDBRANCH   4  33
TORSDOF 9
ENDMDL
MODEL 9
REMARK VINA RESULT:      -9.5      6.729      8.240
REMARK  Name = 44258177
REMARK  9 active torsions:
REMARK  status: ('A' for Active; 'I' for Inactive)
REMARK    1  A    between atoms: O_2  and  C_15
REMARK    2  A    between atoms: O_2  and  C_27
REMARK    3  A    between atoms: O_11  and  C_37
REMARK    4  A    between atoms: O_13  and  C_42
REMARK    5  A    between atoms: C_17  and  C_20
REMARK    6  A    between atoms: C_19  and  C_21
REMARK    7  A    between atoms: C_27  and  C_29
REMARK    8  A    between atoms: C_31  and  C_32
REMARK    9  A    between atoms: C_33  and  C_36
REMARK                            x       y       z     vdW  Elec       q    Type
REMARK                         _______ _______ _______ _____ _____    ______ ____
ROOT
ATOM      1  O   UNL     1     111.048 129.624 140.951  0.00  0.00    +0.000 OA
ATOM      2  O   UNL     1     110.646 131.825 139.893  0.00  0.00    +0.000 OA
ATOM      3  O   UNL     1     110.620 131.682 141.536  0.00  0.00    +0.000 OA
ATOM      4  C   UNL     1     110.928 130.429 139.776  0.00  0.00    +0.000 C 
ATOM      5  C   UNL     1     110.780 131.091 140.246  0.00  0.00    +0.000 C 
ATOM      6  C   UNL     1     111.062 129.695 140.129  0.00  0.00    +0.000 C 
ATOM      7  C   UNL     1     110.767 131.020 141.067  0.00  0.00    +0.000 C 
ATOM      8  C   UNL     1     110.901 130.286 141.420  0.00  0.00    +0.000 C 
ENDROOT
BRANCH   6  13
ATOM      9  O   UNL     1     109.828 128.670 139.739  0.00  0.00    +0.000 OA
ATOM     10  O   UNL     1     112.589 129.394 139.581  0.00  0.00    +0.000 OA
ATOM     11  O   UNL     1     111.668 127.019 138.234  0.00  0.00    +0.000 OA
ATOM     12  O   UNL     1     109.328 127.489 139.080  0.00  0.00    +0.000 OA
ATOM     13  C   UNL     1     111.209 129.032 139.660  0.00  0.00    +0.000 A 
ATOM     14  C   UNL     1     110.592 128.520 139.466  0.00  0.00    +0.000 A 
ATOM     15  C   UNL     1     111.972 128.882 139.386  0.00  0.00    +0.000 A 
ATOM     16  C   UNL     1     110.739 127.857 138.997  0.00  0.00    +0.000 A 
ATOM     17  C   UNL     1     112.119 128.218 138.918  0.00  0.00    +0.000 A 
ATOM     18  C   UNL     1     111.503 127.706 138.723  0.00  0.00    +0.000 A 
ATOM     19  C   UNL     1     110.088 127.330 138.801  0.00  0.00    +0.000 A 
ATOM     20  C   UNL     1     110.235 126.639 138.314  0.00  0.00    +0.000 A 
ATOM     21  C   UNL     1     111.030 126.482 138.028  0.00  0.00    +0.000 A 
BRANCH  21  23
ATOM     22  O   UNL     1     111.628 123.833 136.153  0.00  0.00    +0.000 OA
ATOM     23  C   UNL     1     111.179 125.819 137.560  0.00  0.00    +0.000 A 
ATOM     24  C   UNL     1     111.057 125.855 136.745  0.00  0.00    +0.000 A 
ATOM     25  C   UNL     1     111.452 125.122 137.905  0.00  0.00    +0.000 A 
ATOM     26  C   UNL     1     111.206 125.193 136.275  0.00  0.00    +0.000 A 
ATOM     27  C   UNL     1     111.601 124.460 137.436  0.00  0.00    +0.000 A 
ATOM     28  C   UNL     1     111.478 124.495 136.621  0.00  0.00    +0.000 A 
BRANCH  26  29
ATOM     29  O   UNL     1     111.084 125.228 135.460  0.00  0.00    +0.000 OA
ATOM     30  C   UNL     1     110.416 125.608 135.159  0.00  0.00    +0.000 C 
ENDBRANCH  26  29
ENDBRANCH  21  23
ENDBRANCH   6  13
BRANCH   8  32
ATOM     31  O   UNL     1     111.327 129.621 142.610  0.00  0.00    +0.000 OA
ATOM     32  C   UNL     1     110.888 130.215 142.241  0.00  0.00    +0.000 C 
ENDBRANCH   8  32
BRANCH   4  33
ATOM     33  O   UNL     1     110.941 130.500 138.955  0.00  0.00    +0.000 OA
BRANCH  33  35
ATOM     34  O   UNL     1     111.008 131.895 138.660  0.00  0.00    +0.000 OA
ATOM     35  C   UNL     1     110.623 131.170 138.594  0.00  0.00    +0.000 C 
BRANCH  35  36
ATOM     36  C   UNL     1     109.919 131.113 138.166  0.00  0.00    +0.000 C 
ATOM     37  C   UNL     1     109.931 131.170 137.343  0.00  0.00    +0.000 C 
BRANCH  37  39
ATOM     38  O   UNL     1     107.119 130.940 135.630  0.00  0.00    +0.000 OA
ATOM     39  C   UNL     1     109.228 131.113 136.915  0.00  0.00    +0.000 A 
ATOM     40  C   UNL     1     109.019 130.398 136.559  0.00  0.00    +0.000 A 
ATOM     41  C   UNL     1     108.734 131.770 136.843  0.00  0.00    +0.000 A 
ATOM     42  C   UNL     1     108.317 130.341 136.131  0.00  0.00    +0.000 A 
ATOM     43  C   UNL     1     108.031 131.712 136.414  0.00  0.00    +0.000 A 
ATOM     44  C   UNL     1     107.823 130.998 136.059  0.00  0.00    +0.000 A 
BRANCH  42  45
ATOM     45  O   UNL     1     108.108 129.626 135.775  0.00  0.00    +0.000 OA
ATOM     46  C   UNL     1     108.635 128.991 135.785  0.00  0.00    +0.000 C 
ENDBRANCH  42  45
ENDBRANCH  37  39
ENDBRANCH  35  36
ENDBRANCH  33  35
ENDBRANCH   4  33
TORSDOF 9
ENDMDL
MODEL 10
REMARK VINA RESULT:      -9.5      7.915      9.192
REMARK  Name = 44258177
REMARK  9 active torsions:
REMARK  status: ('A' for Active; 'I' for Inactive)
REMARK    1  A    between atoms: O_2  and  C_15
REMARK    2  A    between atoms: O_2  and  C_27
REMARK    3  A    between atoms: O_11  and  C_37
REMARK    4  A    between atoms: O_13  and  C_42
REMARK    5  A    between atoms: C_17  and  C_20
REMARK    6  A    between atoms: C_19  and  C_21
REMARK    7  A    between atoms: C_27  and  C_29
REMARK    8  A    between atoms: C_31  and  C_32
REMARK    9  A    between atoms: C_33  and  C_36
REMARK                            x       y       z     vdW  Elec       q    Type
REMARK                         _______ _______ _______ _____ _____    ______ ____
ROOT
ATOM      1  O   UNL     1     112.963 125.532 137.535  0.00  0.00    +0.000 OA
ATOM      2  O   UNL     1     110.591 125.359 136.850  0.00  0.00    +0.000 OA
ATOM      3  O   UNL     1     111.700 124.292 136.258  0.00  0.00    +0.000 OA
ATOM      4  C   UNL     1     111.617 126.008 137.603  0.00  0.00    +0.000 C 
ATOM      5  C   UNL     1     111.382 125.417 137.078  0.00  0.00    +0.000 C 
ATOM      6  C   UNL     1     112.408 126.066 137.831  0.00  0.00    +0.000 C 
ATOM      7  C   UNL     1     111.936 124.883 136.782  0.00  0.00    +0.000 C 
ATOM      8  C   UNL     1     112.727 124.941 137.010  0.00  0.00    +0.000 C 
ENDROOT
BRANCH   6  13
ATOM      9  O   UNL     1     112.923 127.523 137.253  0.00  0.00    +0.000 OA
ATOM     10  O   UNL     1     112.366 125.792 139.458  0.00  0.00    +0.000 OA
ATOM     11  O   UNL     1     113.362 128.449 139.960  0.00  0.00    +0.000 OA
ATOM     12  O   UNL     1     113.422 128.860 137.462  0.00  0.00    +0.000 OA
ATOM     13  C   UNL     1     112.644 126.657 138.356  0.00  0.00    +0.000 A 
ATOM     14  C   UNL     1     112.902 127.386 138.066  0.00  0.00    +0.000 A 
ATOM     15  C   UNL     1     112.624 126.520 139.169  0.00  0.00    +0.000 A 
ATOM     16  C   UNL     1     113.138 127.977 138.591  0.00  0.00    +0.000 A 
ATOM     17  C   UNL     1     112.860 127.112 139.693  0.00  0.00    +0.000 A 
ATOM     18  C   UNL     1     113.118 127.840 139.404  0.00  0.00    +0.000 A 
ATOM     19  C   UNL     1     113.405 128.732 138.277  0.00  0.00    +0.000 A 
ATOM     20  C   UNL     1     113.652 129.352 138.818  0.00  0.00    +0.000 A 
ATOM     21  C   UNL     1     113.631 129.209 139.665  0.00  0.00    +0.000 A 
BRANCH  21  23
ATOM     22  O   UNL     1     114.575 131.569 141.771  0.00  0.00    +0.000 OA
ATOM     23  C   UNL     1     113.867 129.799 140.191  0.00  0.00    +0.000 A 
ATOM     24  C   UNL     1     113.330 130.101 140.741  0.00  0.00    +0.000 A 
ATOM     25  C   UNL     1     114.639 130.088 140.169  0.00  0.00    +0.000 A 
ATOM     26  C   UNL     1     113.566 130.691 141.268  0.00  0.00    +0.000 A 
ATOM     27  C   UNL     1     114.875 130.678 140.695  0.00  0.00    +0.000 A 
ATOM     28  C   UNL     1     114.339 130.979 141.244  0.00  0.00    +0.000 A 
BRANCH  26  29
ATOM     29  O   UNL     1     113.029 130.992 141.817  0.00  0.00    +0.000 OA
ATOM     30  C   UNL     1     112.271 130.672 141.871  0.00  0.00    +0.000 C 
ENDBRANCH  26  29
ENDBRANCH  21  23
ENDBRANCH   6  13
BRANCH   8  32
ATOM     31  O   UNL     1     113.994 124.289 137.114  0.00  0.00    +0.000 OA
ATOM     32  C   UNL     1     113.282 124.408 136.714  0.00  0.00    +0.000 C 
ENDBRANCH   8  32
BRANCH   4  33
ATOM     33  O   UNL     1     111.063 126.542 137.900  0.00  0.00    +0.000 OA
BRANCH  33  35
ATOM     34  O   UNL     1     109.757 125.981 137.759  0.00  0.00    +0.000 OA
ATOM     35  C   UNL     1     110.304 126.570 137.577  0.00  0.00    +0.000 C 
BRANCH  35  36
ATOM     36  C   UNL     1     110.093 127.188 137.072  0.00  0.00    +0.000 C 
ATOM     37  C   UNL     1     109.545 127.753 137.319  0.00  0.00    +0.000 C 
BRANCH  37  39
ATOM     38  O   UNL     1     108.700 130.228 135.306  0.00  0.00    +0.000 OA
ATOM     39  C   UNL     1     109.334 128.371 136.816  0.00  0.00    +0.000 A 
ATOM     40  C   UNL     1     109.586 129.140 136.979  0.00  0.00    +0.000 A 
ATOM     41  C   UNL     1     108.871 128.221 136.150  0.00  0.00    +0.000 A 
ATOM     42  C   UNL     1     109.375 129.758 136.476  0.00  0.00    +0.000 A 
ATOM     43  C   UNL     1     108.660 128.840 135.646  0.00  0.00    +0.000 A 
ATOM     44  C   UNL     1     108.912 129.608 135.809  0.00  0.00    +0.000 A 
BRANCH  42  45
ATOM     45  O   UNL     1     109.627 130.527 136.639  0.00  0.00    +0.000 OA
ATOM     46  C   UNL     1     110.285 130.651 137.120  0.00  0.00    +0.000 C 
ENDBRANCH  42  45
ENDBRANCH  37  39
ENDBRANCH  35  36
ENDBRANCH  33  35
ENDBRANCH   4  33
TORSDOF 9
ENDMDL
