MODEL 1
REMARK VINA RESULT:      -9.3      0.000      0.000
REMARK  Name = 44257619
REMARK  3 active torsions:
REMARK  status: ('A' for Active; 'I' for Inactive)
REMARK    1  A    between atoms: O_4  and  C_16
REMARK    2  A    between atoms: C_8  and  C_13
REMARK    3  A    between atoms: C_21  and  C_24
REMARK                            x       y       z     vdW  Elec       q    Type
REMARK                         _______ _______ _______ _____ _____    ______ ____
ROOT
ATOM      1  O   UNL     1     112.810 128.895 138.927  0.00  0.00    +0.000 OA
ATOM      2  O   UNL     1     113.373 126.067 138.679  0.00  0.00    +0.000 OA
ATOM      3  O   UNL     1     112.312 128.181 137.777  0.00  0.00    +0.000 OA
ATOM      4  C   UNL     1     113.571 128.228 139.937  0.00  0.00    +0.000 A 
ATOM      5  C   UNL     1     113.157 128.208 139.224  0.00  0.00    +0.000 A 
ATOM      6  C   UNL     1     113.918 127.541 140.233  0.00  0.00    +0.000 A 
ATOM      7  C   UNL     1     113.090 127.498 138.807  0.00  0.00    +0.000 A 
ATOM      8  C   UNL     1     113.851 126.833 139.816  0.00  0.00    +0.000 A 
ATOM      9  C   UNL     1     113.436 126.811 139.103  0.00  0.00    +0.000 A 
ATOM     10  C   UNL     1     112.655 127.490 138.065  0.00  0.00    +0.000 A 
ATOM     11  C   UNL     1     112.943 126.038 137.935  0.00  0.00    +0.000 A 
ATOM     12  C   UNL     1     112.581 126.754 137.626  0.00  0.00    +0.000 A 
ENDROOT
BRANCH   4  16
ATOM     13  O   UNL     1     114.263 129.453 140.192  0.00  0.00    +0.000 OA
ATOM     14  O   UNL     1     112.595 130.033 141.925  0.00  0.00    +0.000 OA
ATOM     15  O   UNL     1     113.842 131.064 141.603  0.00  0.00    +0.000 OA
ATOM     16  C   UNL     1     113.639 128.938 140.353  0.00  0.00    +0.000 C 
ATOM     17  C   UNL     1     113.151 129.840 141.348  0.00  0.00    +0.000 C 
ATOM     18  C   UNL     1     113.083 129.131 140.931  0.00  0.00    +0.000 C 
ATOM     19  C   UNL     1     113.774 130.355 141.186  0.00  0.00    +0.000 C 
ATOM     20  C   UNL     1     114.330 130.161 140.608  0.00  0.00    +0.000 C 
ATOM     21  C   UNL     1     114.954 130.677 140.447  0.00  0.00    +0.000 C 
ENDBRANCH   4  16
BRANCH  11  22
ATOM     22  C   UNL     1     112.877 125.327 137.521  0.00  0.00    +0.000 A 
ATOM     23  C   UNL     1     112.171 124.901 137.543  0.00  0.00    +0.000 A 
ATOM     24  C   UNL     1     113.517 125.044 137.083  0.00  0.00    +0.000 A 
ATOM     25  C   UNL     1     112.105 124.190 137.128  0.00  0.00    +0.000 A 
ATOM     26  C   UNL     1     113.451 124.335 136.669  0.00  0.00    +0.000 A 
ATOM     27  C   UNL     1     112.745 123.907 136.691  0.00  0.00    +0.000 A 
ENDBRANCH  11  22
BRANCH   6  28
ATOM     28  O   UNL     1     114.333 127.563 140.946  0.00  0.00    +0.000 OA
ATOM     29  C   UNL     1     114.726 126.889 141.215  0.00  0.00    +0.000 C 
ENDBRANCH   6  28
TORSDOF 3
ENDMDL
MODEL 2
REMARK VINA RESULT:      -9.3      8.879     10.234
REMARK  Name = 44257619
REMARK  3 active torsions:
REMARK  status: ('A' for Active; 'I' for Inactive)
REMARK    1  A    between atoms: O_4  and  C_16
REMARK    2  A    between atoms: C_8  and  C_13
REMARK    3  A    between atoms: C_21  and  C_24
REMARK                            x       y       z     vdW  Elec       q    Type
REMARK                         _______ _______ _______ _____ _____    ______ ____
ROOT
ATOM      1  O   UNL     1     107.003 127.256 145.052  0.00  0.00    +0.000 OA
ATOM      2  O   UNL     1     106.505 124.970 146.757  0.00  0.00    +0.000 OA
ATOM      3  O   UNL     1     107.456 127.293 146.422  0.00  0.00    +0.000 OA
ATOM      4  C   UNL     1     106.317 126.115 144.532  0.00  0.00    +0.000 A 
ATOM      5  C   UNL     1     106.692 126.499 145.159  0.00  0.00    +0.000 A 
ATOM      6  C   UNL     1     106.006 125.358 144.639  0.00  0.00    +0.000 A 
ATOM      7  C   UNL     1     106.756 126.126 145.892  0.00  0.00    +0.000 A 
ATOM      8  C   UNL     1     106.070 124.986 145.371  0.00  0.00    +0.000 A 
ATOM      9  C   UNL     1     106.445 125.369 145.999  0.00  0.00    +0.000 A 
ATOM     10  C   UNL     1     107.149 126.537 146.537  0.00  0.00    +0.000 A 
ATOM     11  C   UNL     1     106.894 125.365 147.414  0.00  0.00    +0.000 A 
ATOM     12  C   UNL     1     107.218 126.154 147.303  0.00  0.00    +0.000 A 
ENDROOT
BRANCH   4  16
ATOM     13  O   UNL     1     106.864 126.423 143.249  0.00  0.00    +0.000 OA
ATOM     14  O   UNL     1     104.841 127.738 142.701  0.00  0.00    +0.000 OA
ATOM     15  O   UNL     1     106.062 127.607 141.600  0.00  0.00    +0.000 OA
ATOM     16  C   UNL     1     106.253 126.489 143.799  0.00  0.00    +0.000 C 
ATOM     17  C   UNL     1     105.515 127.300 142.884  0.00  0.00    +0.000 C 
ATOM     18  C   UNL     1     105.579 126.927 143.616  0.00  0.00    +0.000 C 
ATOM     19  C   UNL     1     106.126 127.235 142.333  0.00  0.00    +0.000 C 
ATOM     20  C   UNL     1     106.800 126.796 142.516  0.00  0.00    +0.000 C 
ATOM     21  C   UNL     1     107.412 126.731 141.965  0.00  0.00    +0.000 C 
ENDBRANCH   4  16
BRANCH  11  22
ATOM     22  C   UNL     1     106.957 124.990 148.146  0.00  0.00    +0.000 A 
ATOM     23  C   UNL     1     106.287 124.889 148.616  0.00  0.00    +0.000 A 
ATOM     24  C   UNL     1     107.690 124.716 148.408  0.00  0.00    +0.000 A 
ATOM     25  C   UNL     1     106.349 124.513 149.348  0.00  0.00    +0.000 A 
ATOM     26  C   UNL     1     107.753 124.341 149.139  0.00  0.00    +0.000 A 
ATOM     27  C   UNL     1     107.082 124.239 149.610  0.00  0.00    +0.000 A 
ENDBRANCH  11  22
BRANCH   6  28
ATOM     28  O   UNL     1     105.631 124.975 144.011  0.00  0.00    +0.000 OA
ATOM     29  C   UNL     1     105.370 124.198 144.101  0.00  0.00    +0.000 C 
ENDBRANCH   6  28
TORSDOF 3
ENDMDL
MODEL 3
REMARK VINA RESULT:      -9.3      3.070      4.924
REMARK  Name = 44257619
REMARK  3 active torsions:
REMARK  status: ('A' for Active; 'I' for Inactive)
REMARK    1  A    between atoms: O_4  and  C_16
REMARK    2  A    between atoms: C_8  and  C_13
REMARK    3  A    between atoms: C_21  and  C_24
REMARK                            x       y       z     vdW  Elec       q    Type
REMARK                         _______ _______ _______ _____ _____    ______ ____
ROOT
ATOM      1  O   UNL     1     111.406 128.870 136.894  0.00  0.00    +0.000 OA
ATOM      2  O   UNL     1     112.537 126.279 136.274  0.00  0.00    +0.000 OA
ATOM      3  O   UNL     1     112.634 128.471 137.538  0.00  0.00    +0.000 OA
ATOM      4  C   UNL     1     110.747 128.010 135.963  0.00  0.00    +0.000 A 
ATOM      5  C   UNL     1     111.371 128.157 136.481  0.00  0.00    +0.000 A 
ATOM      6  C   UNL     1     110.713 127.296 135.550  0.00  0.00    +0.000 A 
ATOM      7  C   UNL     1     111.962 127.590 136.586  0.00  0.00    +0.000 A 
ATOM      8  C   UNL     1     111.303 126.731 135.655  0.00  0.00    +0.000 A 
ATOM      9  C   UNL     1     111.928 126.877 136.173  0.00  0.00    +0.000 A 
ATOM     10  C   UNL     1     112.608 127.756 137.129  0.00  0.00    +0.000 A 
ATOM     11  C   UNL     1     113.191 126.426 136.812  0.00  0.00    +0.000 A 
ATOM     12  C   UNL     1     113.226 127.170 137.243  0.00  0.00    +0.000 A 
ENDROOT
BRANCH   4  16
ATOM     13  O   UNL     1     110.247 129.165 135.288  0.00  0.00    +0.000 OA
ATOM     14  O   UNL     1     108.204 129.098 136.684  0.00  0.00    +0.000 OA
ATOM     15  O   UNL     1     108.385 130.276 135.543  0.00  0.00    +0.000 OA
ATOM     16  C   UNL     1     110.156 128.577 135.858  0.00  0.00    +0.000 C 
ATOM     17  C   UNL     1     108.885 129.120 136.218  0.00  0.00    +0.000 C 
ATOM     18  C   UNL     1     109.475 128.554 136.323  0.00  0.00    +0.000 C 
ATOM     19  C   UNL     1     108.975 129.709 135.648  0.00  0.00    +0.000 C 
ATOM     20  C   UNL     1     109.656 129.731 135.183  0.00  0.00    +0.000 C 
ATOM     21  C   UNL     1     109.747 130.321 134.612  0.00  0.00    +0.000 C 
ENDBRANCH   4  16
BRANCH  11  22
ATOM     22  C   UNL     1     113.780 125.858 136.915  0.00  0.00    +0.000 A 
ATOM     23  C   UNL     1     114.406 125.812 136.381  0.00  0.00    +0.000 A 
ATOM     24  C   UNL     1     113.743 125.336 137.553  0.00  0.00    +0.000 A 
ATOM     25  C   UNL     1     114.996 125.244 136.484  0.00  0.00    +0.000 A 
ATOM     26  C   UNL     1     114.331 124.769 137.657  0.00  0.00    +0.000 A 
ATOM     27  C   UNL     1     114.958 124.722 137.122  0.00  0.00    +0.000 A 
ENDBRANCH  11  22
BRANCH   6  28
ATOM     28  O   UNL     1     110.087 127.150 135.032  0.00  0.00    +0.000 OA
ATOM     29  C   UNL     1     110.057 126.440 134.612  0.00  0.00    +0.000 C 
ENDBRANCH   6  28
TORSDOF 3
ENDMDL
MODEL 4
REMARK VINA RESULT:      -9.2      3.433      4.992
REMARK  Name = 44257619
REMARK  3 active torsions:
REMARK  status: ('A' for Active; 'I' for Inactive)
REMARK    1  A    between atoms: O_4  and  C_16
REMARK    2  A    between atoms: C_8  and  C_13
REMARK    3  A    between atoms: C_21  and  C_24
REMARK                            x       y       z     vdW  Elec       q    Type
REMARK                         _______ _______ _______ _____ _____    ______ ____
ROOT
ATOM      1  O   UNL     1     109.797 127.495 134.884  0.00  0.00    +0.000 OA
ATOM      2  O   UNL     1     111.621 126.244 136.752  0.00  0.00    +0.000 OA
ATOM      3  O   UNL     1     110.258 126.153 134.620  0.00  0.00    +0.000 OA
ATOM      4  C   UNL     1     110.226 128.207 136.047  0.00  0.00    +0.000 A 
ATOM      5  C   UNL     1     110.240 127.527 135.580  0.00  0.00    +0.000 A 
ATOM      6  C   UNL     1     110.669 128.239 136.742  0.00  0.00    +0.000 A 
ATOM      7  C   UNL     1     110.698 126.879 135.808  0.00  0.00    +0.000 A 
ATOM      8  C   UNL     1     111.126 127.592 136.970  0.00  0.00    +0.000 A 
ATOM      9  C   UNL     1     111.141 126.911 136.504  0.00  0.00    +0.000 A 
ATOM     10  C   UNL     1     110.704 126.177 135.313  0.00  0.00    +0.000 A 
ATOM     11  C   UNL     1     111.640 125.532 136.270  0.00  0.00    +0.000 A 
ATOM     12  C   UNL     1     111.178 125.499 135.545  0.00  0.00    +0.000 A 
ENDROOT
BRANCH   4  16
ATOM     13  O   UNL     1     110.092 129.435 135.330  0.00  0.00    +0.000 OA
ATOM     14  O   UNL     1     107.752 129.635 136.110  0.00  0.00    +0.000 OA
ATOM     15  O   UNL     1     108.398 130.797 135.133  0.00  0.00    +0.000 OA
ATOM     16  C   UNL     1     109.769 128.855 135.818  0.00  0.00    +0.000 C 
ATOM     17  C   UNL     1     108.532 129.569 135.850  0.00  0.00    +0.000 C 
ATOM     18  C   UNL     1     108.989 128.921 136.078  0.00  0.00    +0.000 C 
ATOM     19  C   UNL     1     108.855 130.149 135.362  0.00  0.00    +0.000 C 
ATOM     20  C   UNL     1     109.635 130.083 135.102  0.00  0.00    +0.000 C 
ATOM     21  C   UNL     1     109.958 130.664 134.613  0.00  0.00    +0.000 C 
ENDBRANCH   4  16
BRANCH  11  22
ATOM     22  C   UNL     1     112.098 124.886 136.501  0.00  0.00    +0.000 A 
ATOM     23  C   UNL     1     111.733 124.194 136.762  0.00  0.00    +0.000 A 
ATOM     24  C   UNL     1     112.921 124.932 136.470  0.00  0.00    +0.000 A 
ATOM     25  C   UNL     1     112.191 123.548 136.993  0.00  0.00    +0.000 A 
ATOM     26  C   UNL     1     113.379 124.287 136.700  0.00  0.00    +0.000 A 
ATOM     27  C   UNL     1     113.014 123.594 136.962  0.00  0.00    +0.000 A 
ENDBRANCH  11  22
BRANCH   6  28
ATOM     28  O   UNL     1     110.655 128.920 137.209  0.00  0.00    +0.000 OA
ATOM     29  C   UNL     1     111.110 128.958 137.895  0.00  0.00    +0.000 C 
ENDBRANCH   6  28
TORSDOF 3
ENDMDL
MODEL 5
REMARK VINA RESULT:      -9.0      0.861      2.013
REMARK  Name = 44257619
REMARK  3 active torsions:
REMARK  status: ('A' for Active; 'I' for Inactive)
REMARK    1  A    between atoms: O_4  and  C_16
REMARK    2  A    between atoms: C_8  and  C_13
REMARK    3  A    between atoms: C_21  and  C_24
REMARK                            x       y       z     vdW  Elec       q    Type
REMARK                         _______ _______ _______ _____ _____    ______ ____
ROOT
ATOM      1  O   UNL     1     114.061 128.230 140.972  0.00  0.00    +0.000 OA
ATOM      2  O   UNL     1     113.239 127.255 138.373  0.00  0.00    +0.000 OA
ATOM      3  O   UNL     1     114.276 126.840 140.646  0.00  0.00    +0.000 OA
ATOM      4  C   UNL     1     113.454 129.122 140.035  0.00  0.00    +0.000 A 
ATOM      5  C   UNL     1     113.723 128.368 140.232  0.00  0.00    +0.000 A 
ATOM      6  C   UNL     1     113.115 129.260 139.295  0.00  0.00    +0.000 A 
ATOM      7  C   UNL     1     113.654 127.750 139.688  0.00  0.00    +0.000 A 
ATOM      8  C   UNL     1     113.047 128.643 138.752  0.00  0.00    +0.000 A 
ATOM      9  C   UNL     1     113.316 127.888 138.948  0.00  0.00    +0.000 A 
ATOM     10  C   UNL     1     113.939 126.969 139.905  0.00  0.00    +0.000 A 
ATOM     11  C   UNL     1     113.518 126.466 138.571  0.00  0.00    +0.000 A 
ATOM     12  C   UNL     1     113.870 126.322 139.342  0.00  0.00    +0.000 A 
ENDROOT
BRANCH   4  16
ATOM     13  O   UNL     1     112.931 129.860 141.141  0.00  0.00    +0.000 OA
ATOM     14  O   UNL     1     114.911 131.344 141.086  0.00  0.00    +0.000 OA
ATOM     15  O   UNL     1     113.728 131.588 142.211  0.00  0.00    +0.000 OA
ATOM     16  C   UNL     1     113.522 129.739 140.579  0.00  0.00    +0.000 C 
ATOM     17  C   UNL     1     114.251 130.850 141.105  0.00  0.00    +0.000 C 
ATOM     18  C   UNL     1     114.182 130.234 140.561  0.00  0.00    +0.000 C 
ATOM     19  C   UNL     1     113.660 130.972 141.666  0.00  0.00    +0.000 C 
ATOM     20  C   UNL     1     113.000 130.477 141.685  0.00  0.00    +0.000 C 
ATOM     21  C   UNL     1     112.408 130.599 142.247  0.00  0.00    +0.000 C 
ENDBRANCH   4  16
BRANCH  11  22
ATOM     22  C   UNL     1     113.448 125.851 138.026  0.00  0.00    +0.000 A 
ATOM     23  C   UNL     1     112.712 125.506 137.886  0.00  0.00    +0.000 A 
ATOM     24  C   UNL     1     114.114 125.582 137.620  0.00  0.00    +0.000 A 
ATOM     25  C   UNL     1     112.642 124.891 137.340  0.00  0.00    +0.000 A 
ATOM     26  C   UNL     1     114.045 124.968 137.075  0.00  0.00    +0.000 A 
ATOM     27  C   UNL     1     113.308 124.621 136.935  0.00  0.00    +0.000 A 
ENDBRANCH  11  22
BRANCH   6  28
ATOM     28  O   UNL     1     112.846 130.015 139.100  0.00  0.00    +0.000 OA
ATOM     29  C   UNL     1     112.489 130.148 138.369  0.00  0.00    +0.000 C 
ENDBRANCH   6  28
TORSDOF 3
ENDMDL
MODEL 6
REMARK VINA RESULT:      -8.9      3.936      4.611
REMARK  Name = 44257619
REMARK  3 active torsions:
REMARK  status: ('A' for Active; 'I' for Inactive)
REMARK    1  A    between atoms: O_4  and  C_16
REMARK    2  A    between atoms: C_8  and  C_13
REMARK    3  A    between atoms: C_21  and  C_24
REMARK                            x       y       z     vdW  Elec       q    Type
REMARK                         _______ _______ _______ _____ _____    ______ ____
ROOT
ATOM      1  O   UNL     1     109.130 130.394 136.856  0.00  0.00    +0.000 OA
ATOM      2  O   UNL     1     110.809 128.133 136.186  0.00  0.00    +0.000 OA
ATOM      3  O   UNL     1     108.514 129.189 136.354  0.00  0.00    +0.000 OA
ATOM      4  C   UNL     1     110.546 130.483 137.025  0.00  0.00    +0.000 A 
ATOM      5  C   UNL     1     109.879 130.052 136.803  0.00  0.00    +0.000 A 
ATOM      6  C   UNL     1     111.295 130.141 136.972  0.00  0.00    +0.000 A 
ATOM      7  C   UNL     1     109.961 129.279 136.526  0.00  0.00    +0.000 A 
ATOM      8  C   UNL     1     111.377 129.369 136.696  0.00  0.00    +0.000 A 
ATOM      9  C   UNL     1     110.710 128.937 136.473  0.00  0.00    +0.000 A 
ATOM     10  C   UNL     1     109.258 128.840 136.297  0.00  0.00    +0.000 A 
ATOM     11  C   UNL     1     110.118 127.678 135.953  0.00  0.00    +0.000 A 
ATOM     12  C   UNL     1     109.337 128.034 136.008  0.00  0.00    +0.000 A 
ENDROOT
BRANCH   4  16
ATOM     13  O   UNL     1     110.514 131.890 136.776  0.00  0.00    +0.000 OA
ATOM     14  O   UNL     1     110.117 132.308 139.182  0.00  0.00    +0.000 OA
ATOM     15  O   UNL     1     110.217 133.575 138.130  0.00  0.00    +0.000 OA
ATOM     16  C   UNL     1     110.464 131.257 137.302  0.00  0.00    +0.000 C 
ATOM     17  C   UNL     1     110.249 132.169 138.380  0.00  0.00    +0.000 C 
ATOM     18  C   UNL     1     110.331 131.396 138.104  0.00  0.00    +0.000 C 
ATOM     19  C   UNL     1     110.299 132.802 137.855  0.00  0.00    +0.000 C 
ATOM     20  C   UNL     1     110.432 132.662 137.052  0.00  0.00    +0.000 C 
ATOM     21  C   UNL     1     110.482 133.296 136.526  0.00  0.00    +0.000 C 
ENDBRANCH   4  16
BRANCH  11  22
ATOM     22  C   UNL     1     110.203 126.906 135.677  0.00  0.00    +0.000 A 
ATOM     23  C   UNL     1     110.455 126.310 136.189  0.00  0.00    +0.000 A 
ATOM     24  C   UNL     1     110.036 126.729 134.888  0.00  0.00    +0.000 A 
ATOM     25  C   UNL     1     110.540 125.537 135.913  0.00  0.00    +0.000 A 
ATOM     26  C   UNL     1     110.120 125.957 134.612  0.00  0.00    +0.000 A 
ATOM     27  C   UNL     1     110.373 125.360 135.124  0.00  0.00    +0.000 A 
ENDBRANCH  11  22
BRANCH   6  28
ATOM     28  O   UNL     1     111.962 130.573 137.195  0.00  0.00    +0.000 OA
ATOM     29  C   UNL     1     112.711 130.233 137.139  0.00  0.00    +0.000 C 
ENDBRANCH   6  28
TORSDOF 3
ENDMDL
MODEL 7
REMARK VINA RESULT:      -8.9      2.845      3.866
REMARK  Name = 44257619
REMARK  3 active torsions:
REMARK  status: ('A' for Active; 'I' for Inactive)
REMARK    1  A    between atoms: O_4  and  C_16
REMARK    2  A    between atoms: C_8  and  C_13
REMARK    3  A    between atoms: C_21  and  C_24
REMARK                            x       y       z     vdW  Elec       q    Type
REMARK                         _______ _______ _______ _____ _____    ______ ____
ROOT
ATOM      1  O   UNL     1     111.365 128.803 137.798  0.00  0.00    +0.000 OA
ATOM      2  O   UNL     1     113.304 127.028 136.587  0.00  0.00    +0.000 OA
ATOM      3  O   UNL     1     111.585 127.503 138.384  0.00  0.00    +0.000 OA
ATOM      4  C   UNL     1     112.086 129.221 136.638  0.00  0.00    +0.000 A 
ATOM      5  C   UNL     1     111.924 128.651 137.211  0.00  0.00    +0.000 A 
ATOM      6  C   UNL     1     112.646 129.069 136.051  0.00  0.00    +0.000 A 
ATOM      7  C   UNL     1     112.323 127.928 137.198  0.00  0.00    +0.000 A 
ATOM      8  C   UNL     1     113.044 128.347 136.038  0.00  0.00    +0.000 A 
ATOM      9  C   UNL     1     112.883 127.776 136.612  0.00  0.00    +0.000 A 
ATOM     10  C   UNL     1     112.145 127.343 137.802  0.00  0.00    +0.000 A 
ATOM     11  C   UNL     1     113.140 126.430 137.182  0.00  0.00    +0.000 A 
ATOM     12  C   UNL     1     112.557 126.588 137.794  0.00  0.00    +0.000 A 
ENDROOT
BRANCH   4  16
ATOM     13  O   UNL     1     110.978 130.030 136.240  0.00  0.00    +0.000 OA
ATOM     14  O   UNL     1     111.913 131.937 137.511  0.00  0.00    +0.000 OA
ATOM     15  O   UNL     1     110.492 132.110 136.690  0.00  0.00    +0.000 OA
ATOM     16  C   UNL     1     111.688 129.944 136.651  0.00  0.00    +0.000 C 
ATOM     17  C   UNL     1     111.601 131.301 137.087  0.00  0.00    +0.000 C 
ATOM     18  C   UNL     1     111.999 130.580 137.075  0.00  0.00    +0.000 C 
ATOM     19  C   UNL     1     110.891 131.388 136.677  0.00  0.00    +0.000 C 
ATOM     20  C   UNL     1     110.580 130.753 136.253  0.00  0.00    +0.000 C 
ATOM     21  C   UNL     1     109.869 130.840 135.842  0.00  0.00    +0.000 C 
ENDBRANCH   4  16
BRANCH  11  22
ATOM     22  C   UNL     1     113.540 125.708 137.167  0.00  0.00    +0.000 A 
ATOM     23  C   UNL     1     113.210 125.062 136.775  0.00  0.00    +0.000 A 
ATOM     24  C   UNL     1     114.270 125.633 137.544  0.00  0.00    +0.000 A 
ATOM     25  C   UNL     1     113.609 124.340 136.759  0.00  0.00    +0.000 A 
ATOM     26  C   UNL     1     114.670 124.912 137.529  0.00  0.00    +0.000 A 
ATOM     27  C   UNL     1     114.339 124.265 137.136  0.00  0.00    +0.000 A 
ENDBRANCH  11  22
BRANCH   6  28
ATOM     28  O   UNL     1     112.807 129.640 135.477  0.00  0.00    +0.000 OA
ATOM     29  C   UNL     1     113.355 129.482 134.881  0.00  0.00    +0.000 C 
ENDBRANCH   6  28
TORSDOF 3
ENDMDL
MODEL 8
REMARK VINA RESULT:      -8.7      3.817      5.161
REMARK  Name = 44257619
REMARK  3 active torsions:
REMARK  status: ('A' for Active; 'I' for Inactive)
REMARK    1  A    between atoms: O_4  and  C_16
REMARK    2  A    between atoms: C_8  and  C_13
REMARK    3  A    between atoms: C_21  and  C_24
REMARK                            x       y       z     vdW  Elec       q    Type
REMARK                         _______ _______ _______ _____ _____    ______ ____
ROOT
ATOM      1  O   UNL     1     108.533 128.540 136.099  0.00  0.00    +0.000 OA
ATOM      2  O   UNL     1     110.973 127.074 136.628  0.00  0.00    +0.000 OA
ATOM      3  O   UNL     1     108.488 127.098 136.144  0.00  0.00    +0.000 OA
ATOM      4  C   UNL     1     109.758 129.246 136.311  0.00  0.00    +0.000 A 
ATOM      5  C   UNL     1     109.343 128.535 136.257  0.00  0.00    +0.000 A 
ATOM      6  C   UNL     1     110.567 129.241 136.469  0.00  0.00    +0.000 A 
ATOM      7  C   UNL     1     109.740 127.818 136.360  0.00  0.00    +0.000 A 
ATOM      8  C   UNL     1     110.963 128.525 136.572  0.00  0.00    +0.000 A 
ATOM      9  C   UNL     1     110.549 127.813 136.518  0.00  0.00    +0.000 A 
ATOM     10  C   UNL     1     109.296 127.084 136.301  0.00  0.00    +0.000 A 
ATOM     11  C   UNL     1     110.547 126.329 136.572  0.00  0.00    +0.000 A 
ATOM     12  C   UNL     1     109.703 126.334 136.408  0.00  0.00    +0.000 A 
ENDROOT
BRANCH   4  16
ATOM     13  O   UNL     1     109.333 130.314 135.462  0.00  0.00    +0.000 OA
ATOM     14  O   UNL     1     108.231 131.408 137.388  0.00  0.00    +0.000 OA
ATOM     15  O   UNL     1     108.174 132.111 135.897  0.00  0.00    +0.000 OA
ATOM     16  C   UNL     1     109.361 129.963 136.208  0.00  0.00    +0.000 C 
ATOM     17  C   UNL     1     108.598 131.044 136.746  0.00  0.00    +0.000 C 
ATOM     18  C   UNL     1     108.994 130.328 136.850  0.00  0.00    +0.000 C 
ATOM     19  C   UNL     1     108.570 131.395 136.001  0.00  0.00    +0.000 C 
ATOM     20  C   UNL     1     108.937 131.030 135.359  0.00  0.00    +0.000 C 
ATOM     21  C   UNL     1     108.908 131.381 134.612  0.00  0.00    +0.000 C 
ENDBRANCH   4  16
BRANCH  11  22
ATOM     22  C   UNL     1     110.946 125.614 136.676  0.00  0.00    +0.000 A 
ATOM     23  C   UNL     1     111.162 125.163 136.020  0.00  0.00    +0.000 A 
ATOM     24  C   UNL     1     111.128 125.350 137.436  0.00  0.00    +0.000 A 
ATOM     25  C   UNL     1     111.560 124.448 136.124  0.00  0.00    +0.000 A 
ATOM     26  C   UNL     1     111.526 124.636 137.541  0.00  0.00    +0.000 A 
ATOM     27  C   UNL     1     111.742 124.184 136.884  0.00  0.00    +0.000 A 
ENDBRANCH  11  22
BRANCH   6  28
ATOM     28  O   UNL     1     110.981 129.953 136.523  0.00  0.00    +0.000 OA
ATOM     29  C   UNL     1     111.793 129.948 136.669  0.00  0.00    +0.000 C 
ENDBRANCH   6  28
TORSDOF 3
ENDMDL
