MODEL 1
REMARK VINA RESULT:      -9.6      0.000      0.000
REMARK  Name = 
REMARK  3 active torsions:
REMARK  status: ('A' for Active; 'I' for Inactive)
REMARK    1  A    between atoms: C_7  and  C_12
REMARK    2  A    between atoms: C_13  and  O_16
REMARK    3  A    between atoms: O_16  and  C_19
REMARK                            x       y       z     vdW  Elec       q    Type
REMARK                         _______ _______ _______ _____ _____    ______ ____
ROOT
ATOM      1  O   UNL     1     110.617 124.685 135.498  0.00  0.00    +0.000 OA
ATOM      2  C   UNL     1     111.100 125.325 135.695  0.00  0.00    +0.000 C 
ATOM      3  C   UNL     1     110.913 126.081 135.425  0.00  0.00    +0.000 A 
ATOM      4  C   UNL     1     111.769 125.207 136.162  0.00  0.00    +0.000 C 
ATOM      5  C   UNL     1     111.396 126.721 135.622  0.00  0.00    +0.000 A 
ATOM      6  C   UNL     1     110.243 126.199 134.957  0.00  0.00    +0.000 A 
ATOM      7  C   UNL     1     112.253 125.846 136.360  0.00  0.00    +0.000 C 
ATOM      8  O   UNL     1     112.066 126.603 136.089  0.00  0.00    +0.000 OA
ATOM      9  C   UNL     1     111.209 127.477 135.352  0.00  0.00    +0.000 A 
ATOM     10  O   UNL     1     109.760 125.560 134.760  0.00  0.00    +0.000 OA
ATOM     11  C   UNL     1     110.057 126.956 134.688  0.00  0.00    +0.000 A 
ATOM     12  C   UNL     1     110.539 127.595 134.885  0.00  0.00    +0.000 A 
ENDROOT
BRANCH   7  13
ATOM     13  C   UNL     1     112.922 125.728 136.827  0.00  0.00    +0.000 A 
ATOM     14  C   UNL     1     113.607 125.410 136.493  0.00  0.00    +0.000 A 
ATOM     15  C   UNL     1     112.907 125.928 137.626  0.00  0.00    +0.000 A 
ATOM     16  C   UNL     1     114.277 125.293 136.960  0.00  0.00    +0.000 A 
ATOM     17  C   UNL     1     113.577 125.810 138.094  0.00  0.00    +0.000 A 
ATOM     18  C   UNL     1     114.262 125.493 137.761  0.00  0.00    +0.000 A 
ATOM     19  O   UNL     1     114.931 125.375 138.229  0.00  0.00    +0.000 OA
ENDBRANCH   7  13
BRANCH  12  20
ATOM     20  O   UNL     1     110.352 128.352 134.615  0.00  0.00    +0.000 OA
BRANCH  20  21
ATOM     21  C   UNL     1     109.864 128.842 135.065  0.00  0.00    +0.000 C 
ATOM     22  O   UNL     1     109.254 128.518 135.516  0.00  0.00    +0.000 OA
ATOM     23  C   UNL     1     109.987 129.659 135.063  0.00  0.00    +0.000 C 
ATOM     24  C   UNL     1     108.767 129.008 135.965  0.00  0.00    +0.000 C 
ATOM     25  O   UNL     1     110.597 129.983 134.612  0.00  0.00    +0.000 OA
ATOM     26  C   UNL     1     109.499 130.149 135.513  0.00  0.00    +0.000 C 
ATOM     27  C   UNL     1     108.889 129.825 135.963  0.00  0.00    +0.000 C 
ATOM     28  O   UNL     1     109.621 130.965 135.511  0.00  0.00    +0.000 OA
ATOM     29  O   UNL     1     108.402 130.315 136.412  0.00  0.00    +0.000 OA
ENDBRANCH  20  21
ENDBRANCH  12  20
TORSDOF 3
ENDMDL
MODEL 2
REMARK VINA RESULT:      -9.3      1.654      2.021
REMARK  Name = 
REMARK  3 active torsions:
REMARK  status: ('A' for Active; 'I' for Inactive)
REMARK    1  A    between atoms: C_7  and  C_12
REMARK    2  A    between atoms: C_13  and  O_16
REMARK    3  A    between atoms: O_16  and  C_19
REMARK                            x       y       z     vdW  Elec       q    Type
REMARK                         _______ _______ _______ _____ _____    ______ ____
ROOT
ATOM      1  O   UNL     1     110.432 125.435 139.111  0.00  0.00    +0.000 OA
ATOM      2  C   UNL     1     110.838 125.621 138.417  0.00  0.00    +0.000 C 
ATOM      3  C   UNL     1     110.471 126.071 137.832  0.00  0.00    +0.000 A 
ATOM      4  C   UNL     1     111.611 125.356 138.309  0.00  0.00    +0.000 C 
ATOM      5  C   UNL     1     110.877 126.257 137.138  0.00  0.00    +0.000 A 
ATOM      6  C   UNL     1     109.696 126.337 137.940  0.00  0.00    +0.000 A 
ATOM      7  C   UNL     1     112.019 125.541 137.616  0.00  0.00    +0.000 C 
ATOM      8  O   UNL     1     111.651 125.992 137.030  0.00  0.00    +0.000 OA
ATOM      9  C   UNL     1     110.511 126.708 136.553  0.00  0.00    +0.000 A 
ATOM     10  O   UNL     1     109.290 126.151 138.633  0.00  0.00    +0.000 OA
ATOM     11  C   UNL     1     109.330 126.788 137.354  0.00  0.00    +0.000 A 
ATOM     12  C   UNL     1     109.736 126.973 136.661  0.00  0.00    +0.000 A 
ENDROOT
BRANCH   7  13
ATOM     13  C   UNL     1     112.792 125.276 137.508  0.00  0.00    +0.000 A 
ATOM     14  C   UNL     1     113.421 125.691 137.845  0.00  0.00    +0.000 A 
ATOM     15  C   UNL     1     112.937 124.597 137.063  0.00  0.00    +0.000 A 
ATOM     16  C   UNL     1     114.195 125.426 137.737  0.00  0.00    +0.000 A 
ATOM     17  C   UNL     1     113.710 124.331 136.955  0.00  0.00    +0.000 A 
ATOM     18  C   UNL     1     114.340 124.745 137.292  0.00  0.00    +0.000 A 
ATOM     19  O   UNL     1     115.113 124.480 137.183  0.00  0.00    +0.000 OA
ENDBRANCH   7  13
BRANCH  12  20
ATOM     20  O   UNL     1     109.369 127.424 136.076  0.00  0.00    +0.000 OA
BRANCH  20  21
ATOM     21  C   UNL     1     109.351 128.247 136.139  0.00  0.00    +0.000 C 
ATOM     22  O   UNL     1     110.012 128.655 136.417  0.00  0.00    +0.000 OA
ATOM     23  C   UNL     1     108.671 128.662 135.922  0.00  0.00    +0.000 C 
ATOM     24  C   UNL     1     109.993 129.477 136.479  0.00  0.00    +0.000 C 
ATOM     25  O   UNL     1     108.010 128.253 135.643  0.00  0.00    +0.000 OA
ATOM     26  C   UNL     1     108.652 129.484 135.984  0.00  0.00    +0.000 C 
ATOM     27  C   UNL     1     109.313 129.892 136.263  0.00  0.00    +0.000 C 
ATOM     28  O   UNL     1     107.973 129.899 135.768  0.00  0.00    +0.000 OA
ATOM     29  O   UNL     1     109.294 130.714 136.325  0.00  0.00    +0.000 OA
ENDBRANCH  20  21
ENDBRANCH  12  20
TORSDOF 3
ENDMDL
MODEL 3
REMARK VINA RESULT:      -9.3      1.546      2.330
REMARK  Name = 
REMARK  3 active torsions:
REMARK  status: ('A' for Active; 'I' for Inactive)
REMARK    1  A    between atoms: C_7  and  C_12
REMARK    2  A    between atoms: C_13  and  O_16
REMARK    3  A    between atoms: O_16  and  C_19
REMARK                            x       y       z     vdW  Elec       q    Type
REMARK                         _______ _______ _______ _____ _____    ______ ____
ROOT
ATOM      1  O   UNL     1     114.252 129.000 135.720  0.00  0.00    +0.000 OA
ATOM      2  C   UNL     1     113.756 128.360 135.881  0.00  0.00    +0.000 C 
ATOM      3  C   UNL     1     112.948 128.416 135.729  0.00  0.00    +0.000 A 
ATOM      4  C   UNL     1     114.070 127.665 136.195  0.00  0.00    +0.000 C 
ATOM      5  C   UNL     1     112.452 127.776 135.890  0.00  0.00    +0.000 A 
ATOM      6  C   UNL     1     112.634 129.112 135.414  0.00  0.00    +0.000 A 
ATOM      7  C   UNL     1     113.576 127.025 136.357  0.00  0.00    +0.000 C 
ATOM      8  O   UNL     1     112.766 127.081 136.204  0.00  0.00    +0.000 OA
ATOM      9  C   UNL     1     111.644 127.832 135.738  0.00  0.00    +0.000 A 
ATOM     10  O   UNL     1     113.129 129.751 135.253  0.00  0.00    +0.000 OA
ATOM     11  C   UNL     1     111.825 129.167 135.262  0.00  0.00    +0.000 A 
ATOM     12  C   UNL     1     111.330 128.528 135.423  0.00  0.00    +0.000 A 
ENDROOT
BRANCH   7  13
ATOM     13  C   UNL     1     113.889 126.329 136.670  0.00  0.00    +0.000 A 
ATOM     14  C   UNL     1     113.820 126.174 137.478  0.00  0.00    +0.000 A 
ATOM     15  C   UNL     1     114.272 125.791 136.178  0.00  0.00    +0.000 A 
ATOM     16  C   UNL     1     114.133 125.478 137.792  0.00  0.00    +0.000 A 
ATOM     17  C   UNL     1     114.586 125.095 136.491  0.00  0.00    +0.000 A 
ATOM     18  C   UNL     1     114.517 124.938 137.298  0.00  0.00    +0.000 A 
ATOM     19  O   UNL     1     114.830 124.243 137.612  0.00  0.00    +0.000 OA
ENDBRANCH   7  13
BRANCH  12  20
ATOM     20  O   UNL     1     110.522 128.583 135.271  0.00  0.00    +0.000 OA
BRANCH  20  21
ATOM     21  C   UNL     1     110.030 128.995 135.791  0.00  0.00    +0.000 C 
ATOM     22  O   UNL     1     110.202 129.009 136.598  0.00  0.00    +0.000 OA
ATOM     23  C   UNL     1     109.366 129.392 135.504  0.00  0.00    +0.000 C 
ATOM     24  C   UNL     1     109.711 129.420 137.117  0.00  0.00    +0.000 C 
ATOM     25  O   UNL     1     109.194 129.377 134.697  0.00  0.00    +0.000 OA
ATOM     26  C   UNL     1     108.875 129.803 136.024  0.00  0.00    +0.000 C 
ATOM     27  C   UNL     1     109.046 129.818 136.830  0.00  0.00    +0.000 C 
ATOM     28  O   UNL     1     108.211 130.200 135.736  0.00  0.00    +0.000 OA
ATOM     29  O   UNL     1     108.555 130.228 137.349  0.00  0.00    +0.000 OA
ENDBRANCH  20  21
ENDBRANCH  12  20
TORSDOF 3
ENDMDL
MODEL 4
REMARK VINA RESULT:      -9.2      8.035     10.875
REMARK  Name = 
REMARK  3 active torsions:
REMARK  status: ('A' for Active; 'I' for Inactive)
REMARK    1  A    between atoms: C_7  and  C_12
REMARK    2  A    between atoms: C_13  and  O_16
REMARK    3  A    between atoms: O_16  and  C_19
REMARK                            x       y       z     vdW  Elec       q    Type
REMARK                         _______ _______ _______ _____ _____    ______ ____
ROOT
ATOM      1  O   UNL     1     102.837 129.049 139.896  0.00  0.00    +0.000 OA
ATOM      2  C   UNL     1     102.938 129.450 140.611  0.00  0.00    +0.000 C 
ATOM      3  C   UNL     1     103.445 129.149 141.186  0.00  0.00    +0.000 A 
ATOM      4  C   UNL     1     102.530 130.154 140.749  0.00  0.00    +0.000 C 
ATOM      5  C   UNL     1     103.546 129.550 141.900  0.00  0.00    +0.000 A 
ATOM      6  C   UNL     1     103.854 128.444 141.047  0.00  0.00    +0.000 A 
ATOM      7  C   UNL     1     102.629 130.556 141.462  0.00  0.00    +0.000 C 
ATOM      8  O   UNL     1     103.138 130.253 142.038  0.00  0.00    +0.000 OA
ATOM      9  C   UNL     1     104.053 129.248 142.475  0.00  0.00    +0.000 A 
ATOM     10  O   UNL     1     103.754 128.043 140.334  0.00  0.00    +0.000 OA
ATOM     11  C   UNL     1     104.362 128.143 141.623  0.00  0.00    +0.000 A 
ATOM     12  C   UNL     1     104.462 128.544 142.337  0.00  0.00    +0.000 A 
ENDROOT
BRANCH   7  13
ATOM     13  C   UNL     1     102.221 131.259 141.601  0.00  0.00    +0.000 A 
ATOM     14  C   UNL     1     101.462 131.238 141.925  0.00  0.00    +0.000 A 
ATOM     15  C   UNL     1     102.571 131.982 141.415  0.00  0.00    +0.000 A 
ATOM     16  C   UNL     1     101.054 131.942 142.063  0.00  0.00    +0.000 A 
ATOM     17  C   UNL     1     102.163 132.685 141.553  0.00  0.00    +0.000 A 
ATOM     18  C   UNL     1     101.405 132.666 141.877  0.00  0.00    +0.000 A 
ATOM     19  O   UNL     1     100.996 133.369 142.016  0.00  0.00    +0.000 OA
ENDBRANCH   7  13
BRANCH  12  20
ATOM     20  O   UNL     1     104.970 128.242 142.912  0.00  0.00    +0.000 OA
BRANCH  20  21
ATOM     21  C   UNL     1     105.786 128.262 142.794  0.00  0.00    +0.000 C 
ATOM     22  O   UNL     1     106.132 128.899 142.399  0.00  0.00    +0.000 OA
ATOM     23  C   UNL     1     106.259 127.644 143.073  0.00  0.00    +0.000 C 
ATOM     24  C   UNL     1     106.947 128.919 142.282  0.00  0.00    +0.000 C 
ATOM     25  O   UNL     1     105.913 127.008 143.469  0.00  0.00    +0.000 OA
ATOM     26  C   UNL     1     107.075 127.665 142.956  0.00  0.00    +0.000 C 
ATOM     27  C   UNL     1     107.420 128.301 142.560  0.00  0.00    +0.000 C 
ATOM     28  O   UNL     1     107.547 127.048 143.234  0.00  0.00    +0.000 OA
ATOM     29  O   UNL     1     108.235 128.321 142.443  0.00  0.00    +0.000 OA
ENDBRANCH  20  21
ENDBRANCH  12  20
TORSDOF 3
ENDMDL
MODEL 5
REMARK VINA RESULT:      -9.1      2.012      3.580
REMARK  Name = 
REMARK  3 active torsions:
REMARK  status: ('A' for Active; 'I' for Inactive)
REMARK    1  A    between atoms: C_7  and  C_12
REMARK    2  A    between atoms: C_13  and  O_16
REMARK    3  A    between atoms: O_16  and  C_19
REMARK                            x       y       z     vdW  Elec       q    Type
REMARK                         _______ _______ _______ _____ _____    ______ ____
ROOT
ATOM      1  O   UNL     1     107.837 128.217 135.699  0.00  0.00    +0.000 OA
ATOM      2  C   UNL     1     108.643 128.168 135.871  0.00  0.00    +0.000 C 
ATOM      3  C   UNL     1     109.063 128.846 136.078  0.00  0.00    +0.000 A 
ATOM      4  C   UNL     1     109.028 127.439 135.836  0.00  0.00    +0.000 C 
ATOM      5  C   UNL     1     109.869 128.797 136.250  0.00  0.00    +0.000 A 
ATOM      6  C   UNL     1     108.678 129.576 136.113  0.00  0.00    +0.000 A 
ATOM      7  C   UNL     1     109.833 127.389 136.007  0.00  0.00    +0.000 C 
ATOM      8  O   UNL     1     110.254 128.068 136.215  0.00  0.00    +0.000 OA
ATOM      9  C   UNL     1     110.289 129.475 136.458  0.00  0.00    +0.000 A 
ATOM     10  O   UNL     1     107.873 129.626 135.941  0.00  0.00    +0.000 OA
ATOM     11  C   UNL     1     109.099 130.255 136.321  0.00  0.00    +0.000 A 
ATOM     12  C   UNL     1     109.904 130.205 136.493  0.00  0.00    +0.000 A 
ENDROOT
BRANCH   7  13
ATOM     13  C   UNL     1     110.218 126.660 135.972  0.00  0.00    +0.000 A 
ATOM     14  C   UNL     1     110.403 126.257 136.668  0.00  0.00    +0.000 A 
ATOM     15  C   UNL     1     110.417 126.334 135.242  0.00  0.00    +0.000 A 
ATOM     16  C   UNL     1     110.788 125.529 136.633  0.00  0.00    +0.000 A 
ATOM     17  C   UNL     1     110.802 125.605 135.206  0.00  0.00    +0.000 A 
ATOM     18  C   UNL     1     110.988 125.202 135.901  0.00  0.00    +0.000 A 
ATOM     19  O   UNL     1     111.372 124.473 135.866  0.00  0.00    +0.000 OA
ENDBRANCH   7  13
BRANCH  12  20
ATOM     20  O   UNL     1     110.324 130.883 136.700  0.00  0.00    +0.000 OA
BRANCH  20  21
ATOM     21  C   UNL     1     110.268 131.186 137.466  0.00  0.00    +0.000 C 
ATOM     22  O   UNL     1     110.218 130.675 138.111  0.00  0.00    +0.000 OA
ATOM     23  C   UNL     1     110.262 132.004 137.586  0.00  0.00    +0.000 C 
ATOM     24  C   UNL     1     110.162 130.978 138.875  0.00  0.00    +0.000 C 
ATOM     25  O   UNL     1     110.311 132.515 136.941  0.00  0.00    +0.000 OA
ATOM     26  C   UNL     1     110.206 132.307 138.351  0.00  0.00    +0.000 C 
ATOM     27  C   UNL     1     110.156 131.795 138.996  0.00  0.00    +0.000 C 
ATOM     28  O   UNL     1     110.199 133.123 138.472  0.00  0.00    +0.000 OA
ATOM     29  O   UNL     1     110.100 132.099 139.760  0.00  0.00    +0.000 OA
ENDBRANCH  20  21
ENDBRANCH  12  20
TORSDOF 3
ENDMDL
MODEL 6
REMARK VINA RESULT:      -9.1      9.431     11.860
REMARK  Name = 
REMARK  3 active torsions:
REMARK  status: ('A' for Active; 'I' for Inactive)
REMARK    1  A    between atoms: C_7  and  C_12
REMARK    2  A    between atoms: C_13  and  O_16
REMARK    3  A    between atoms: O_16  and  C_19
REMARK                            x       y       z     vdW  Elec       q    Type
REMARK                         _______ _______ _______ _____ _____    ______ ____
ROOT
ATOM      1  O   UNL     1     101.179 133.561 142.367  0.00  0.00    +0.000 OA
ATOM      2  C   UNL     1     101.820 133.364 141.886  0.00  0.00    +0.000 C 
ATOM      3  C   UNL     1     101.952 132.578 141.676  0.00  0.00    +0.000 A 
ATOM      4  C   UNL     1     102.329 133.954 141.615  0.00  0.00    +0.000 C 
ATOM      5  C   UNL     1     102.593 132.381 141.195  0.00  0.00    +0.000 A 
ATOM      6  C   UNL     1     101.443 131.987 141.947  0.00  0.00    +0.000 A 
ATOM      7  C   UNL     1     102.970 133.758 141.134  0.00  0.00    +0.000 C 
ATOM      8  O   UNL     1     103.102 132.971 140.924  0.00  0.00    +0.000 OA
ATOM      9  C   UNL     1     102.725 131.595 140.984  0.00  0.00    +0.000 A 
ATOM     10  O   UNL     1     100.802 132.184 142.427  0.00  0.00    +0.000 OA
ATOM     11  C   UNL     1     101.575 131.200 141.736  0.00  0.00    +0.000 A 
ATOM     12  C   UNL     1     102.215 131.004 141.255  0.00  0.00    +0.000 A 
ENDROOT
BRANCH   7  13
ATOM     13  C   UNL     1     103.479 134.349 140.863  0.00  0.00    +0.000 A 
ATOM     14  C   UNL     1     103.951 134.763 141.399  0.00  0.00    +0.000 A 
ATOM     15  C   UNL     1     103.515 134.524 140.059  0.00  0.00    +0.000 A 
ATOM     16  C   UNL     1     104.460 135.353 141.128  0.00  0.00    +0.000 A 
ATOM     17  C   UNL     1     104.024 135.114 139.788  0.00  0.00    +0.000 A 
ATOM     18  C   UNL     1     104.497 135.529 140.322  0.00  0.00    +0.000 A 
ATOM     19  O   UNL     1     105.006 136.119 140.051  0.00  0.00    +0.000 OA
ENDBRANCH   7  13
BRANCH  12  20
ATOM     20  O   UNL     1     102.347 130.218 141.045  0.00  0.00    +0.000 OA
BRANCH  20  21
ATOM     21  C   UNL     1     102.942 129.784 141.418  0.00  0.00    +0.000 C 
ATOM     22  O   UNL     1     103.146 129.949 142.201  0.00  0.00    +0.000 OA
ATOM     23  C   UNL     1     103.335 129.184 141.008  0.00  0.00    +0.000 C 
ATOM     24  C   UNL     1     103.740 129.516 142.573  0.00  0.00    +0.000 C 
ATOM     25  O   UNL     1     103.131 129.019 140.225  0.00  0.00    +0.000 OA
ATOM     26  C   UNL     1     103.930 128.751 141.381  0.00  0.00    +0.000 C 
ATOM     27  C   UNL     1     104.133 128.916 142.163  0.00  0.00    +0.000 C 
ATOM     28  O   UNL     1     104.322 128.152 140.971  0.00  0.00    +0.000 OA
ATOM     29  O   UNL     1     104.727 128.483 142.535  0.00  0.00    +0.000 OA
ENDBRANCH  20  21
ENDBRANCH  12  20
TORSDOF 3
ENDMDL
MODEL 7
REMARK VINA RESULT:      -9.1      7.736      9.065
REMARK  Name = 
REMARK  3 active torsions:
REMARK  status: ('A' for Active; 'I' for Inactive)
REMARK    1  A    between atoms: C_7  and  C_12
REMARK    2  A    between atoms: C_13  and  O_16
REMARK    3  A    between atoms: O_16  and  C_19
REMARK                            x       y       z     vdW  Elec       q    Type
REMARK                         _______ _______ _______ _____ _____    ______ ____
ROOT
ATOM      1  O   UNL     1     106.333 122.739 140.246  0.00  0.00    +0.000 OA
ATOM      2  C   UNL     1     105.804 123.366 140.153  0.00  0.00    +0.000 C 
ATOM      3  C   UNL     1     105.952 124.088 140.521  0.00  0.00    +0.000 A 
ATOM      4  C   UNL     1     105.127 123.269 139.692  0.00  0.00    +0.000 C 
ATOM      5  C   UNL     1     105.423 124.715 140.428  0.00  0.00    +0.000 A 
ATOM      6  C   UNL     1     106.630 124.186 140.983  0.00  0.00    +0.000 A 
ATOM      7  C   UNL     1     104.597 123.894 139.598  0.00  0.00    +0.000 C 
ATOM      8  O   UNL     1     104.746 124.618 139.967  0.00  0.00    +0.000 OA
ATOM      9  C   UNL     1     105.571 125.438 140.796  0.00  0.00    +0.000 A 
ATOM     10  O   UNL     1     107.158 123.560 141.075  0.00  0.00    +0.000 OA
ATOM     11  C   UNL     1     106.777 124.909 141.351  0.00  0.00    +0.000 A 
ATOM     12  C   UNL     1     106.249 125.535 141.258  0.00  0.00    +0.000 A 
ENDROOT
BRANCH   7  13
ATOM     13  C   UNL     1     103.920 123.797 139.137  0.00  0.00    +0.000 A 
ATOM     14  C   UNL     1     103.210 123.570 139.491  0.00  0.00    +0.000 A 
ATOM     15  C   UNL     1     103.954 123.927 138.324  0.00  0.00    +0.000 A 
ATOM     16  C   UNL     1     102.533 123.473 139.030  0.00  0.00    +0.000 A 
ATOM     17  C   UNL     1     103.276 123.830 137.863  0.00  0.00    +0.000 A 
ATOM     18  C   UNL     1     102.566 123.603 138.215  0.00  0.00    +0.000 A 
ATOM     19  O   UNL     1     101.889 123.506 137.754  0.00  0.00    +0.000 OA
ENDBRANCH   7  13
BRANCH  12  20
ATOM     20  O   UNL     1     106.397 126.258 141.626  0.00  0.00    +0.000 OA
BRANCH  20  21
ATOM     21  C   UNL     1     106.313 126.330 142.444  0.00  0.00    +0.000 C 
ATOM     22  O   UNL     1     105.705 125.932 142.834  0.00  0.00    +0.000 OA
ATOM     23  C   UNL     1     106.839 126.802 142.871  0.00  0.00    +0.000 C 
ATOM     24  C   UNL     1     105.623 126.004 143.651  0.00  0.00    +0.000 C 
ATOM     25  O   UNL     1     107.447 127.201 142.481  0.00  0.00    +0.000 OA
ATOM     26  C   UNL     1     106.756 126.874 143.689  0.00  0.00    +0.000 C 
ATOM     27  C   UNL     1     106.148 126.476 144.079  0.00  0.00    +0.000 C 
ATOM     28  O   UNL     1     107.281 127.346 144.117  0.00  0.00    +0.000 OA
ATOM     29  O   UNL     1     106.065 126.549 144.896  0.00  0.00    +0.000 OA
ENDBRANCH  20  21
ENDBRANCH  12  20
TORSDOF 3
ENDMDL
MODEL 8
REMARK VINA RESULT:      -9.0      2.477      4.306
REMARK  Name = 
REMARK  3 active torsions:
REMARK  status: ('A' for Active; 'I' for Inactive)
REMARK    1  A    between atoms: C_7  and  C_12
REMARK    2  A    between atoms: C_13  and  O_16
REMARK    3  A    between atoms: O_16  and  C_19
REMARK                            x       y       z     vdW  Elec       q    Type
REMARK                         _______ _______ _______ _____ _____    ______ ____
ROOT
ATOM      1  O   UNL     1     110.762 129.529 134.619  0.00  0.00    +0.000 OA
ATOM      2  C   UNL     1     111.405 129.118 134.932  0.00  0.00    +0.000 C 
ATOM      3  C   UNL     1     111.325 128.325 135.145  0.00  0.00    +0.000 A 
ATOM      4  C   UNL     1     112.129 129.500 135.033  0.00  0.00    +0.000 C 
ATOM      5  C   UNL     1     111.969 127.914 135.458  0.00  0.00    +0.000 A 
ATOM      6  C   UNL     1     110.600 127.942 135.044  0.00  0.00    +0.000 A 
ATOM      7  C   UNL     1     112.773 129.091 135.346  0.00  0.00    +0.000 C 
ATOM      8  O   UNL     1     112.692 128.297 135.558  0.00  0.00    +0.000 OA
ATOM      9  C   UNL     1     111.889 127.122 135.670  0.00  0.00    +0.000 A 
ATOM     10  O   UNL     1     109.957 128.352 134.731  0.00  0.00    +0.000 OA
ATOM     11  C   UNL     1     110.521 127.149 135.257  0.00  0.00    +0.000 A 
ATOM     12  C   UNL     1     111.164 126.739 135.570  0.00  0.00    +0.000 A 
ENDROOT
BRANCH   7  13
ATOM     13  C   UNL     1     113.497 129.474 135.446  0.00  0.00    +0.000 A 
ATOM     14  C   UNL     1     113.654 129.881 136.147  0.00  0.00    +0.000 A 
ATOM     15  C   UNL     1     114.062 129.449 134.847  0.00  0.00    +0.000 A 
ATOM     16  C   UNL     1     114.378 130.263 136.247  0.00  0.00    +0.000 A 
ATOM     17  C   UNL     1     114.786 129.832 134.948  0.00  0.00    +0.000 A 
ATOM     18  C   UNL     1     114.944 130.239 135.647  0.00  0.00    +0.000 A 
ATOM     19  O   UNL     1     115.668 130.622 135.748  0.00  0.00    +0.000 OA
ENDBRANCH   7  13
BRANCH  12  20
ATOM     20  O   UNL     1     111.084 125.946 135.782  0.00  0.00    +0.000 OA
BRANCH  20  21
ATOM     21  C   UNL     1     111.032 125.735 136.578  0.00  0.00    +0.000 C 
ATOM     22  O   UNL     1     110.665 126.240 137.118  0.00  0.00    +0.000 OA
ATOM     23  C   UNL     1     111.349 125.017 136.836  0.00  0.00    +0.000 C 
ATOM     24  C   UNL     1     110.614 126.028 137.913  0.00  0.00    +0.000 C 
ATOM     25  O   UNL     1     111.717 124.512 136.296  0.00  0.00    +0.000 OA
ATOM     26  C   UNL     1     111.298 124.805 137.632  0.00  0.00    +0.000 C 
ATOM     27  C   UNL     1     110.931 125.310 138.170  0.00  0.00    +0.000 C 
ATOM     28  O   UNL     1     111.615 124.088 137.889  0.00  0.00    +0.000 OA
ATOM     29  O   UNL     1     110.880 125.098 138.965  0.00  0.00    +0.000 OA
ENDBRANCH  20  21
ENDBRANCH  12  20
TORSDOF 3
ENDMDL
MODEL 9
REMARK VINA RESULT:      -9.0     10.510     11.922
REMARK  Name = 
REMARK  3 active torsions:
REMARK  status: ('A' for Active; 'I' for Inactive)
REMARK    1  A    between atoms: C_7  and  C_12
REMARK    2  A    between atoms: C_13  and  O_16
REMARK    3  A    between atoms: O_16  and  C_19
REMARK                            x       y       z     vdW  Elec       q    Type
REMARK                         _______ _______ _______ _____ _____    ______ ____
ROOT
ATOM      1  O   UNL     1     107.197 127.257 145.477  0.00  0.00    +0.000 OA
ATOM      2  C   UNL     1     106.592 126.942 145.013  0.00  0.00    +0.000 C 
ATOM      3  C   UNL     1     106.245 126.223 145.218  0.00  0.00    +0.000 A 
ATOM      4  C   UNL     1     106.334 127.348 144.342  0.00  0.00    +0.000 C 
ATOM      5  C   UNL     1     105.639 125.909 144.754  0.00  0.00    +0.000 A 
ATOM      6  C   UNL     1     106.503 125.817 145.889  0.00  0.00    +0.000 A 
ATOM      7  C   UNL     1     105.729 127.035 143.877  0.00  0.00    +0.000 C 
ATOM      8  O   UNL     1     105.381 126.315 144.083  0.00  0.00    +0.000 OA
ATOM      9  C   UNL     1     105.292 125.190 144.959  0.00  0.00    +0.000 A 
ATOM     10  O   UNL     1     107.108 126.131 146.353  0.00  0.00    +0.000 OA
ATOM     11  C   UNL     1     106.156 125.097 146.094  0.00  0.00    +0.000 A 
ATOM     12  C   UNL     1     105.551 124.784 145.630  0.00  0.00    +0.000 A 
ENDROOT
BRANCH   7  13
ATOM     13  C   UNL     1     105.471 127.441 143.207  0.00  0.00    +0.000 A 
ATOM     14  C   UNL     1     105.671 127.165 142.456  0.00  0.00    +0.000 A 
ATOM     15  C   UNL     1     105.013 128.122 143.288  0.00  0.00    +0.000 A 
ATOM     16  C   UNL     1     105.413 127.570 141.785  0.00  0.00    +0.000 A 
ATOM     17  C   UNL     1     104.755 128.528 142.618  0.00  0.00    +0.000 A 
ATOM     18  C   UNL     1     104.955 128.253 141.866  0.00  0.00    +0.000 A 
ATOM     19  O   UNL     1     104.696 128.658 141.196  0.00  0.00    +0.000 OA
ENDBRANCH   7  13
BRANCH  12  20
ATOM     20  O   UNL     1     105.204 124.065 145.836  0.00  0.00    +0.000 OA
BRANCH  20  21
ATOM     21  C   UNL     1     104.442 124.049 146.152  0.00  0.00    +0.000 C 
ATOM     22  O   UNL     1     104.173 124.676 146.616  0.00  0.00    +0.000 OA
ATOM     23  C   UNL     1     103.947 123.404 146.004  0.00  0.00    +0.000 C 
ATOM     24  C   UNL     1     103.412 124.660 146.932  0.00  0.00    +0.000 C 
ATOM     25  O   UNL     1     104.216 122.777 145.540  0.00  0.00    +0.000 OA
ATOM     26  C   UNL     1     103.185 123.388 146.320  0.00  0.00    +0.000 C 
ATOM     27  C   UNL     1     102.917 124.015 146.783  0.00  0.00    +0.000 C 
ATOM     28  O   UNL     1     102.691 122.744 146.172  0.00  0.00    +0.000 OA
ATOM     29  O   UNL     1     102.156 123.999 147.099  0.00  0.00    +0.000 OA
ENDBRANCH  20  21
ENDBRANCH  12  20
TORSDOF 3
ENDMDL
MODEL 10
REMARK VINA RESULT:      -8.9      3.967      5.296
REMARK  Name = 
REMARK  3 active torsions:
REMARK  status: ('A' for Active; 'I' for Inactive)
REMARK    1  A    between atoms: C_7  and  C_12
REMARK    2  A    between atoms: C_13  and  O_16
REMARK    3  A    between atoms: O_16  and  C_19
REMARK                            x       y       z     vdW  Elec       q    Type
REMARK                         _______ _______ _______ _____ _____    ______ ____
ROOT
ATOM      1  O   UNL     1     112.410 128.870 136.702  0.00  0.00    +0.000 OA
ATOM      2  C   UNL     1     112.688 128.368 137.295  0.00  0.00    +0.000 C 
ATOM      3  C   UNL     1     112.792 128.652 138.062  0.00  0.00    +0.000 A 
ATOM      4  C   UNL     1     112.861 127.580 137.120  0.00  0.00    +0.000 C 
ATOM      5  C   UNL     1     113.070 128.150 138.655  0.00  0.00    +0.000 A 
ATOM      6  C   UNL     1     112.619 129.441 138.237  0.00  0.00    +0.000 A 
ATOM      7  C   UNL     1     113.138 127.077 137.712  0.00  0.00    +0.000 C 
ATOM      8  O   UNL     1     113.243 127.362 138.480  0.00  0.00    +0.000 OA
ATOM      9  C   UNL     1     113.175 128.434 139.421  0.00  0.00    +0.000 A 
ATOM     10  O   UNL     1     112.342 129.943 137.645  0.00  0.00    +0.000 OA
ATOM     11  C   UNL     1     112.724 129.725 139.005  0.00  0.00    +0.000 A 
ATOM     12  C   UNL     1     113.002 129.223 139.597  0.00  0.00    +0.000 A 
ENDROOT
BRANCH   7  13
ATOM     13  C   UNL     1     113.311 126.290 137.537  0.00  0.00    +0.000 A 
ATOM     14  C   UNL     1     112.720 125.717 137.589  0.00  0.00    +0.000 A 
ATOM     15  C   UNL     1     114.075 126.076 137.311  0.00  0.00    +0.000 A 
ATOM     16  C   UNL     1     112.893 124.929 137.414  0.00  0.00    +0.000 A 
ATOM     17  C   UNL     1     114.248 125.289 137.136  0.00  0.00    +0.000 A 
ATOM     18  C   UNL     1     113.657 124.715 137.187  0.00  0.00    +0.000 A 
ATOM     19  O   UNL     1     113.830 123.927 137.012  0.00  0.00    +0.000 OA
ENDBRANCH   7  13
BRANCH  12  20
ATOM     20  O   UNL     1     113.106 129.507 140.363  0.00  0.00    +0.000 OA
BRANCH  20  21
ATOM     21  C   UNL     1     113.758 129.981 140.543  0.00  0.00    +0.000 C 
ATOM     22  O   UNL     1     114.478 129.856 140.161  0.00  0.00    +0.000 OA
ATOM     23  C   UNL     1     113.688 130.581 141.106  0.00  0.00    +0.000 C 
ATOM     24  C   UNL     1     115.129 130.330 140.341  0.00  0.00    +0.000 C 
ATOM     25  O   UNL     1     112.967 130.706 141.488  0.00  0.00    +0.000 OA
ATOM     26  C   UNL     1     114.339 131.055 141.286  0.00  0.00    +0.000 C 
ATOM     27  C   UNL     1     115.059 130.930 140.904  0.00  0.00    +0.000 C 
ATOM     28  O   UNL     1     114.269 131.655 141.848  0.00  0.00    +0.000 OA
ATOM     29  O   UNL     1     115.709 131.404 141.084  0.00  0.00    +0.000 OA
ENDBRANCH  20  21
ENDBRANCH  12  20
TORSDOF 3
ENDMDL
