MODEL 1
REMARK VINA RESULT:      -9.3      0.000      0.000
REMARK  Name = 131835968
REMARK  12 active torsions:
REMARK  status: ('A' for Active; 'I' for Inactive)
REMARK    1  A    between atoms: O_2  and  C_18
REMARK    2  A    between atoms: O_2  and  C_20
REMARK    3  A    between atoms: C_17  and  C_19
REMARK    4  A    between atoms: C_23  and  C_24
REMARK    5  A    between atoms: C_26  and  C_29
REMARK    6  A    between atoms: C_29  and  C_34
REMARK    7  A    between atoms: C_33  and  C_38
REMARK    8  A    between atoms: C_37  and  C_39
REMARK    9  A    between atoms: C_38  and  C_42
REMARK   10  A    between atoms: C_39  and  C_40
REMARK   11  A    between atoms: C_40  and  C_44
REMARK   12  A    between atoms: C_43  and  C_46
REMARK                            x       y       z     vdW  Elec       q    Type
REMARK                         _______ _______ _______ _____ _____    ______ ____
ROOT
ATOM      1  O   UNL     1     105.920 125.587 142.489  0.00  0.00    +0.000 OA
ATOM      2  O   UNL     1     104.929 127.018 140.729  0.00  0.00    +0.000 OA
ATOM      3  O   UNL     1     104.809 125.890 139.839  0.00  0.00    +0.000 OA
ATOM      4  O   UNL     1     105.708 123.263 140.746  0.00  0.00    +0.000 OA
ATOM      5  C   UNL     1     105.809 126.393 142.626  0.00  0.00    +0.000 A 
ATOM      6  C   UNL     1     105.479 126.870 142.040  0.00  0.00    +0.000 A 
ATOM      7  C   UNL     1     105.371 125.735 141.178  0.00  0.00    +0.000 A 
ATOM      8  C   UNL     1     105.259 126.542 141.316  0.00  0.00    +0.000 A 
ATOM      9  C   UNL     1     105.701 125.259 141.764  0.00  0.00    +0.000 A 
ATOM     10  C   UNL     1     105.138 125.405 140.419  0.00  0.00    +0.000 A 
ATOM     11  C   UNL     1     105.251 124.567 140.270  0.00  0.00    +0.000 A 
ATOM     12  C   UNL     1     105.822 124.418 141.633  0.00  0.00    +0.000 A 
ATOM     13  C   UNL     1     105.595 124.069 140.880  0.00  0.00    +0.000 A 
ENDROOT
BRANCH   5  18
ATOM     14  O   UNL     1     107.395 126.726 142.935  0.00  0.00    +0.000 OA
ATOM     15  C   UNL     1     106.466 127.378 144.799  0.00  0.00    +0.000 A 
ATOM     16  C   UNL     1     107.040 127.217 144.230  0.00  0.00    +0.000 A 
ATOM     17  C   UNL     1     105.673 127.212 144.645  0.00  0.00    +0.000 A 
ATOM     18  C   UNL     1     106.028 126.721 143.351  0.00  0.00    +0.000 A 
ATOM     19  C   UNL     1     106.821 126.888 143.505  0.00  0.00    +0.000 A 
ATOM     20  C   UNL     1     105.454 126.883 143.921  0.00  0.00    +0.000 A 
BRANCH  15  21
ATOM     21  O   UNL     1     106.685 127.707 145.524  0.00  0.00    +0.000 OA
BRANCH  21  30
ATOM     22  O   UNL     1     106.939 126.499 146.243  0.00  0.00    +0.000 OA
ATOM     23  O   UNL     1     105.806 127.444 148.230  0.00  0.00    +0.000 OA
ATOM     24  O   UNL     1     106.438 125.921 148.288  0.00  0.00    +0.000 OA
ATOM     25  O   UNL     1     105.929 128.337 146.848  0.00  0.00    +0.000 OA
ATOM     26  C   UNL     1     106.184 127.129 147.568  0.00  0.00    +0.000 C 
ATOM     27  C   UNL     1     106.500 126.367 147.597  0.00  0.00    +0.000 C 
ATOM     28  C   UNL     1     106.245 127.575 146.878  0.00  0.00    +0.000 C 
ATOM     29  C   UNL     1     106.878 126.052 146.935  0.00  0.00    +0.000 C 
ATOM     30  C   UNL     1     106.623 127.260 146.215  0.00  0.00    +0.000 C 
BRANCH  29  33
ATOM     31  O   UNL     1     107.996 125.184 147.129  0.00  0.00    +0.000 OA
ATOM     32  O   UNL     1     106.710 124.637 146.825  0.00  0.00    +0.000 OA
ATOM     33  C   UNL     1     107.194 125.291 146.963  0.00  0.00    +0.000 C 
ENDBRANCH  29  33
ENDBRANCH  21  30
ENDBRANCH  15  21
ENDBRANCH   5  18
BRANCH   6  34
ATOM     34  C   UNL     1     105.367 127.676 142.178  0.00  0.00    +0.000 C 
BRANCH  34  35
ATOM     35  C   UNL     1     104.673 128.045 141.929  0.00  0.00    +0.000 C 
ATOM     36  C   UNL     1     104.639 128.867 141.875  0.00  0.00    +0.000 C 
ATOM     37  C   UNL     1     103.945 129.237 141.626  0.00  0.00    +0.000 C 
BRANCH  36  38
ATOM     38  C   UNL     1     105.301 129.321 142.068  0.00  0.00    +0.000 C 
BRANCH  38  39
ATOM     39  C   UNL     1     105.205 130.078 142.384  0.00  0.00    +0.000 C 
BRANCH  39  40
ATOM     40  C   UNL     1     105.834 130.610 142.375  0.00  0.00    +0.000 C 
ATOM     41  C   UNL     1     105.927 131.148 142.993  0.00  0.00    +0.000 C 
ATOM     42  C   UNL     1     106.557 131.682 142.985  0.00  0.00    +0.000 C 
ATOM     43  C   UNL     1     105.391 131.153 143.620  0.00  0.00    +0.000 C 
ENDBRANCH  39  40
ENDBRANCH  38  39
ENDBRANCH  36  38
ENDBRANCH  34  35
ENDBRANCH   6  34
BRANCH  11  44
ATOM     44  C   UNL     1     105.032 124.241 139.544  0.00  0.00    +0.000 C 
BRANCH  44  45
ATOM     45  C   UNL     1     104.255 123.988 139.424  0.00  0.00    +0.000 C 
ATOM     46  C   UNL     1     104.027 123.695 138.688  0.00  0.00    +0.000 C 
ATOM     47  C   UNL     1     104.574 123.654 138.072  0.00  0.00    +0.000 C 
BRANCH  46  49
ATOM     48  O   UNL     1     102.799 123.770 137.960  0.00  0.00    +0.000 OA
ATOM     49  C   UNL     1     103.250 123.441 138.567  0.00  0.00    +0.000 C 
ENDBRANCH  46  49
ENDBRANCH  44  45
ENDBRANCH  11  44
TORSDOF 12
ENDMDL
MODEL 2
REMARK VINA RESULT:      -9.2      8.356      9.843
REMARK  Name = 131835968
REMARK  12 active torsions:
REMARK  status: ('A' for Active; 'I' for Inactive)
REMARK    1  A    between atoms: O_2  and  C_18
REMARK    2  A    between atoms: O_2  and  C_20
REMARK    3  A    between atoms: C_17  and  C_19
REMARK    4  A    between atoms: C_23  and  C_24
REMARK    5  A    between atoms: C_26  and  C_29
REMARK    6  A    between atoms: C_29  and  C_34
REMARK    7  A    between atoms: C_33  and  C_38
REMARK    8  A    between atoms: C_37  and  C_39
REMARK    9  A    between atoms: C_38  and  C_42
REMARK   10  A    between atoms: C_39  and  C_40
REMARK   11  A    between atoms: C_40  and  C_44
REMARK   12  A    between atoms: C_43  and  C_46
REMARK                            x       y       z     vdW  Elec       q    Type
REMARK                         _______ _______ _______ _____ _____    ______ ____
ROOT
ATOM      1  O   UNL     1     110.833 128.649 136.612  0.00  0.00    +0.000 OA
ATOM      2  O   UNL     1     111.448 131.026 136.919  0.00  0.00    +0.000 OA
ATOM      3  O   UNL     1     110.288 131.453 136.175  0.00  0.00    +0.000 OA
ATOM      4  O   UNL     1     108.471 129.435 135.098  0.00  0.00    +0.000 OA
ATOM      5  C   UNL     1     111.513 128.848 137.033  0.00  0.00    +0.000 A 
ATOM      6  C   UNL     1     111.718 129.640 137.136  0.00  0.00    +0.000 A 
ATOM      7  C   UNL     1     110.562 130.035 136.394  0.00  0.00    +0.000 A 
ATOM      8  C   UNL     1     111.243 130.234 136.817  0.00  0.00    +0.000 A 
ATOM      9  C   UNL     1     110.357 129.243 136.292  0.00  0.00    +0.000 A 
ATOM     10  C   UNL     1     110.075 130.663 136.067  0.00  0.00    +0.000 A 
ATOM     11  C   UNL     1     109.365 130.462 135.627  0.00  0.00    +0.000 A 
ATOM     12  C   UNL     1     109.651 129.023 135.855  0.00  0.00    +0.000 A 
ATOM     13  C   UNL     1     109.151 129.637 135.519  0.00  0.00    +0.000 A 
ENDROOT
BRANCH   5  18
ATOM     14  O   UNL     1     111.094 128.134 138.461  0.00  0.00    +0.000 OA
ATOM     15  C   UNL     1     112.939 127.066 137.991  0.00  0.00    +0.000 A 
ATOM     16  C   UNL     1     112.254 127.303 138.386  0.00  0.00    +0.000 A 
ATOM     17  C   UNL     1     113.148 127.422 137.278  0.00  0.00    +0.000 A 
ATOM     18  C   UNL     1     111.988 128.254 137.352  0.00  0.00    +0.000 A 
ATOM     19  C   UNL     1     111.779 127.897 138.067  0.00  0.00    +0.000 A 
ATOM     20  C   UNL     1     112.673 128.016 136.958  0.00  0.00    +0.000 A 
BRANCH  15  21
ATOM     21  O   UNL     1     113.414 126.472 138.310  0.00  0.00    +0.000 OA
BRANCH  21  30
ATOM     22  O   UNL     1     112.729 125.365 137.723  0.00  0.00    +0.000 OA
ATOM     23  O   UNL     1     114.889 124.204 137.389  0.00  0.00    +0.000 OA
ATOM     24  O   UNL     1     113.484 123.484 136.913  0.00  0.00    +0.000 OA
ATOM     25  O   UNL     1     114.855 125.699 138.088  0.00  0.00    +0.000 OA
ATOM     26  C   UNL     1     114.169 124.591 137.500  0.00  0.00    +0.000 C 
ATOM     27  C   UNL     1     113.466 124.230 137.262  0.00  0.00    +0.000 C 
ATOM     28  C   UNL     1     114.152 125.338 137.850  0.00  0.00    +0.000 C 
ATOM     29  C   UNL     1     112.746 124.617 137.373  0.00  0.00    +0.000 C 
ATOM     30  C   UNL     1     113.432 125.724 137.961  0.00  0.00    +0.000 C 
BRANCH  29  33
ATOM     31  O   UNL     1     111.595 123.827 137.679  0.00  0.00    +0.000 OA
ATOM     32  O   UNL     1     111.787 124.327 136.354  0.00  0.00    +0.000 OA
ATOM     33  C   UNL     1     112.043 124.257 137.135  0.00  0.00    +0.000 C 
ENDBRANCH  29  33
ENDBRANCH  21  30
ENDBRANCH  15  21
ENDBRANCH   5  18
BRANCH   6  34
ATOM     34  C   UNL     1     112.398 129.839 137.558  0.00  0.00    +0.000 C 
BRANCH  34  35
ATOM     35  C   UNL     1     112.948 130.361 137.233  0.00  0.00    +0.000 C 
ATOM     36  C   UNL     1     113.506 130.728 137.717  0.00  0.00    +0.000 C 
ATOM     37  C   UNL     1     114.056 131.250 137.392  0.00  0.00    +0.000 C 
BRANCH  36  38
ATOM     38  C   UNL     1     113.514 130.572 138.527  0.00  0.00    +0.000 C 
BRANCH  38  39
ATOM     39  C   UNL     1     114.225 130.605 138.946  0.00  0.00    +0.000 C 
BRANCH  39  40
ATOM     40  C   UNL     1     114.231 130.874 139.726  0.00  0.00    +0.000 C 
ATOM     41  C   UNL     1     114.706 130.500 140.287  0.00  0.00    +0.000 C 
ATOM     42  C   UNL     1     114.712 130.769 141.067  0.00  0.00    +0.000 C 
ATOM     43  C   UNL     1     115.176 129.858 140.068  0.00  0.00    +0.000 C 
ENDBRANCH  39  40
ENDBRANCH  38  39
ENDBRANCH  36  38
ENDBRANCH  34  35
ENDBRANCH   6  34
BRANCH  11  44
ATOM     44  C   UNL     1     108.892 131.058 135.309  0.00  0.00    +0.000 C 
BRANCH  44  45
ATOM     45  C   UNL     1     108.155 131.222 135.642  0.00  0.00    +0.000 C 
ATOM     46  C   UNL     1     107.687 131.825 135.331  0.00  0.00    +0.000 C 
ATOM     47  C   UNL     1     107.954 132.265 134.686  0.00  0.00    +0.000 C 
BRANCH  46  49
ATOM     48  O   UNL     1     106.272 131.981 135.193  0.00  0.00    +0.000 OA
ATOM     49  C   UNL     1     106.949 131.990 135.664  0.00  0.00    +0.000 C 
ENDBRANCH  46  49
ENDBRANCH  44  45
ENDBRANCH  11  44
TORSDOF 12
ENDMDL
MODEL 3
REMARK VINA RESULT:      -9.1      7.249     10.098
REMARK  Name = 131835968
REMARK  12 active torsions:
REMARK  status: ('A' for Active; 'I' for Inactive)
REMARK    1  A    between atoms: O_2  and  C_18
REMARK    2  A    between atoms: O_2  and  C_20
REMARK    3  A    between atoms: C_17  and  C_19
REMARK    4  A    between atoms: C_23  and  C_24
REMARK    5  A    between atoms: C_26  and  C_29
REMARK    6  A    between atoms: C_29  and  C_34
REMARK    7  A    between atoms: C_33  and  C_38
REMARK    8  A    between atoms: C_37  and  C_39
REMARK    9  A    between atoms: C_38  and  C_42
REMARK   10  A    between atoms: C_39  and  C_40
REMARK   11  A    between atoms: C_40  and  C_44
REMARK   12  A    between atoms: C_43  and  C_46
REMARK                            x       y       z     vdW  Elec       q    Type
REMARK                         _______ _______ _______ _____ _____    ______ ____
ROOT
ATOM      1  O   UNL     1     112.276 128.588 141.565  0.00  0.00    +0.000 OA
ATOM      2  O   UNL     1     112.185 130.756 140.375  0.00  0.00    +0.000 OA
ATOM      3  O   UNL     1     111.977 131.462 141.615  0.00  0.00    +0.000 OA
ATOM      4  O   UNL     1     111.858 129.944 144.108  0.00  0.00    +0.000 OA
ATOM      5  C   UNL     1     112.363 128.612 140.746  0.00  0.00    +0.000 A 
ATOM      6  C   UNL     1     112.333 129.335 140.348  0.00  0.00    +0.000 A 
ATOM      7  C   UNL     1     112.128 130.009 141.592  0.00  0.00    +0.000 A 
ATOM      8  C   UNL     1     112.215 130.033 140.771  0.00  0.00    +0.000 A 
ATOM      9  C   UNL     1     112.158 129.286 141.988  0.00  0.00    +0.000 A 
ATOM     10  C   UNL     1     112.006 130.743 142.021  0.00  0.00    +0.000 A 
ATOM     11  C   UNL     1     111.914 130.725 142.875  0.00  0.00    +0.000 A 
ATOM     12  C   UNL     1     112.068 129.248 142.842  0.00  0.00    +0.000 A 
ATOM     13  C   UNL     1     111.945 129.972 143.289  0.00  0.00    +0.000 A 
ENDROOT
BRANCH   5  18
ATOM     14  O   UNL     1     111.110 127.563 140.520  0.00  0.00    +0.000 OA
ATOM     15  C   UNL     1     112.717 126.517 139.476  0.00  0.00    +0.000 A 
ATOM     16  C   UNL     1     111.972 126.691 139.786  0.00  0.00    +0.000 A 
ATOM     17  C   UNL     1     113.343 127.041 139.589  0.00  0.00    +0.000 A 
ATOM     18  C   UNL     1     112.481 127.914 140.323  0.00  0.00    +0.000 A 
ATOM     19  C   UNL     1     111.854 127.389 140.209  0.00  0.00    +0.000 A 
ATOM     20  C   UNL     1     113.225 127.740 140.012  0.00  0.00    +0.000 A 
BRANCH  15  21
ATOM     21  O   UNL     1     112.834 125.819 139.053  0.00  0.00    +0.000 OA
BRANCH  21  30
ATOM     22  O   UNL     1     111.942 125.996 137.951  0.00  0.00    +0.000 OA
ATOM     23  O   UNL     1     113.745 125.344 136.386  0.00  0.00    +0.000 OA
ATOM     24  O   UNL     1     112.252 125.738 135.806  0.00  0.00    +0.000 OA
ATOM     25  O   UNL     1     114.037 125.384 138.010  0.00  0.00    +0.000 OA
ATOM     26  C   UNL     1     113.144 125.561 136.908  0.00  0.00    +0.000 C 
ATOM     27  C   UNL     1     112.397 125.758 136.617  0.00  0.00    +0.000 C 
ATOM     28  C   UNL     1     113.290 125.581 137.719  0.00  0.00    +0.000 C 
ATOM     29  C   UNL     1     111.796 125.976 137.139  0.00  0.00    +0.000 C 
ATOM     30  C   UNL     1     112.689 125.799 138.241  0.00  0.00    +0.000 C 
BRANCH  29  33
ATOM     31  O   UNL     1     110.466 125.592 136.785  0.00  0.00    +0.000 OA
ATOM     32  O   UNL     1     110.886 126.950 136.625  0.00  0.00    +0.000 OA
ATOM     33  C   UNL     1     111.050 126.173 136.849  0.00  0.00    +0.000 C 
ENDBRANCH  29  33
ENDBRANCH  21  30
ENDBRANCH  15  21
ENDBRANCH   5  18
BRANCH   6  34
ATOM     34  C   UNL     1     112.421 129.359 139.529  0.00  0.00    +0.000 C 
BRANCH  34  35
ATOM     35  C   UNL     1     111.969 129.884 139.080  0.00  0.00    +0.000 C 
ATOM     36  C   UNL     1     112.158 130.020 138.289  0.00  0.00    +0.000 C 
ATOM     37  C   UNL     1     111.706 130.545 137.841  0.00  0.00    +0.000 C 
BRANCH  36  38
ATOM     38  C   UNL     1     112.799 129.632 137.946  0.00  0.00    +0.000 C 
BRANCH  38  39
ATOM     39  C   UNL     1     112.898 129.644 137.126  0.00  0.00    +0.000 C 
BRANCH  39  40
ATOM     40  C   UNL     1     113.586 129.335 136.790  0.00  0.00    +0.000 C 
ATOM     41  C   UNL     1     113.614 129.179 135.981  0.00  0.00    +0.000 C 
ATOM     42  C   UNL     1     114.301 128.870 135.644  0.00  0.00    +0.000 C 
ATOM     43  C   UNL     1     112.955 129.332 135.508  0.00  0.00    +0.000 C 
ENDBRANCH  39  40
ENDBRANCH  38  39
ENDBRANCH  36  38
ENDBRANCH  34  35
ENDBRANCH   6  34
BRANCH  11  44
ATOM     44  C   UNL     1     111.796 131.425 143.295  0.00  0.00    +0.000 C 
BRANCH  44  45
ATOM     45  C   UNL     1     112.442 131.833 143.606  0.00  0.00    +0.000 C 
ATOM     46  C   UNL     1     112.324 132.525 144.039  0.00  0.00    +0.000 C 
ATOM     47  C   UNL     1     111.559 132.810 144.160  0.00  0.00    +0.000 C 
BRANCH  46  49
ATOM     48  O   UNL     1     112.860 133.669 144.707  0.00  0.00    +0.000 OA
ATOM     49  C   UNL     1     112.970 132.934 144.350  0.00  0.00    +0.000 C 
ENDBRANCH  46  49
ENDBRANCH  44  45
ENDBRANCH  11  44
TORSDOF 12
ENDMDL
MODEL 4
REMARK VINA RESULT:      -9.0      2.683      4.161
REMARK  Name = 131835968
REMARK  12 active torsions:
REMARK  status: ('A' for Active; 'I' for Inactive)
REMARK    1  A    between atoms: O_2  and  C_18
REMARK    2  A    between atoms: O_2  and  C_20
REMARK    3  A    between atoms: C_17  and  C_19
REMARK    4  A    between atoms: C_23  and  C_24
REMARK    5  A    between atoms: C_26  and  C_29
REMARK    6  A    between atoms: C_29  and  C_34
REMARK    7  A    between atoms: C_33  and  C_38
REMARK    8  A    between atoms: C_37  and  C_39
REMARK    9  A    between atoms: C_38  and  C_42
REMARK   10  A    between atoms: C_39  and  C_40
REMARK   11  A    between atoms: C_40  and  C_44
REMARK   12  A    between atoms: C_43  and  C_46
REMARK                            x       y       z     vdW  Elec       q    Type
REMARK                         _______ _______ _______ _____ _____    ______ ____
ROOT
ATOM      1  O   UNL     1     107.604 127.545 142.975  0.00  0.00    +0.000 OA
ATOM      2  O   UNL     1     106.564 129.076 141.332  0.00  0.00    +0.000 OA
ATOM      3  O   UNL     1     107.831 129.278 140.675  0.00  0.00    +0.000 OA
ATOM      4  O   UNL     1     110.197 127.904 141.699  0.00  0.00    +0.000 OA
ATOM      5  C   UNL     1     106.797 127.709 143.017  0.00  0.00    +0.000 A 
ATOM      6  C   UNL     1     106.449 128.219 142.470  0.00  0.00    +0.000 A 
ATOM      7  C   UNL     1     107.718 128.402 141.837  0.00  0.00    +0.000 A 
ATOM      8  C   UNL     1     106.910 128.566 141.880  0.00  0.00    +0.000 A 
ATOM      9  C   UNL     1     108.064 127.891 142.385  0.00  0.00    +0.000 A 
ATOM     10  C   UNL     1     108.187 128.769 141.218  0.00  0.00    +0.000 A 
ATOM     11  C   UNL     1     109.028 128.602 141.168  0.00  0.00    +0.000 A 
ATOM     12  C   UNL     1     108.904 127.712 142.351  0.00  0.00    +0.000 A 
ATOM     13  C   UNL     1     109.390 128.070 141.738  0.00  0.00    +0.000 A 
ENDROOT
BRANCH   5  18
ATOM     14  O   UNL     1     106.420 126.104 142.934  0.00  0.00    +0.000 OA
ATOM     15  C   UNL     1     105.415 126.669 144.788  0.00  0.00    +0.000 A 
ATOM     16  C   UNL     1     105.687 126.213 144.156  0.00  0.00    +0.000 A 
ATOM     17  C   UNL     1     105.603 127.470 144.830  0.00  0.00    +0.000 A 
ATOM     18  C   UNL     1     106.336 127.362 143.608  0.00  0.00    +0.000 A 
ATOM     19  C   UNL     1     106.147 126.559 143.566  0.00  0.00    +0.000 A 
ATOM     20  C   UNL     1     106.064 127.817 144.239  0.00  0.00    +0.000 A 
BRANCH  15  21
ATOM     21  O   UNL     1     104.954 126.322 145.378  0.00  0.00    +0.000 OA
BRANCH  21  30
ATOM     22  O   UNL     1     106.040 125.992 146.247  0.00  0.00    +0.000 OA
ATOM     23  O   UNL     1     104.864 123.924 146.929  0.00  0.00    +0.000 OA
ATOM     24  O   UNL     1     106.342 124.283 147.571  0.00  0.00    +0.000 OA
ATOM     25  O   UNL     1     104.171 124.943 145.833  0.00  0.00    +0.000 OA
ATOM     26  C   UNL     1     105.256 124.613 146.702  0.00  0.00    +0.000 C 
ATOM     27  C   UNL     1     105.995 124.793 147.023  0.00  0.00    +0.000 C 
ATOM     28  C   UNL     1     104.909 125.123 146.154  0.00  0.00    +0.000 C 
ATOM     29  C   UNL     1     106.387 125.482 146.795  0.00  0.00    +0.000 C 
ATOM     30  C   UNL     1     105.301 125.812 145.927  0.00  0.00    +0.000 C 
BRANCH  29  33
ATOM     31  O   UNL     1     107.179 126.155 147.776  0.00  0.00    +0.000 OA
ATOM     32  O   UNL     1     107.810 125.351 146.776  0.00  0.00    +0.000 OA
ATOM     33  C   UNL     1     107.125 125.662 147.116  0.00  0.00    +0.000 C 
ENDBRANCH  29  33
ENDBRANCH  21  30
ENDBRANCH  15  21
ENDBRANCH   5  18
BRANCH   6  34
ATOM     34  C   UNL     1     105.643 128.383 142.512  0.00  0.00    +0.000 C 
BRANCH  34  35
ATOM     35  C   UNL     1     105.167 128.295 141.844  0.00  0.00    +0.000 C 
ATOM     36  C   UNL     1     104.430 128.662 141.810  0.00  0.00    +0.000 C 
ATOM     37  C   UNL     1     103.954 128.574 141.142  0.00  0.00    +0.000 C 
BRANCH  36  38
ATOM     38  C   UNL     1     104.166 129.117 142.446  0.00  0.00    +0.000 C 
BRANCH  38  39
ATOM     39  C   UNL     1     103.561 129.668 142.336  0.00  0.00    +0.000 C 
BRANCH  39  40
ATOM     40  C   UNL     1     103.348 130.173 142.953  0.00  0.00    +0.000 C 
ATOM     41  C   UNL     1     102.802 130.777 142.819  0.00  0.00    +0.000 C 
ATOM     42  C   UNL     1     102.588 131.283 143.436  0.00  0.00    +0.000 C 
ATOM     43  C   UNL     1     102.471 130.877 142.070  0.00  0.00    +0.000 C 
ENDBRANCH  39  40
ENDBRANCH  38  39
ENDBRANCH  36  38
ENDBRANCH  34  35
ENDBRANCH   6  34
BRANCH  11  44
ATOM     44  C   UNL     1     109.486 128.950 140.577  0.00  0.00    +0.000 C 
BRANCH  44  45
ATOM     45  C   UNL     1     109.891 129.653 140.729  0.00  0.00    +0.000 C 
ATOM     46  C   UNL     1     110.336 130.009 140.133  0.00  0.00    +0.000 C 
ATOM     47  C   UNL     1     110.376 129.664 139.385  0.00  0.00    +0.000 C 
BRANCH  46  49
ATOM     48  O   UNL     1     111.240 131.034 139.710  0.00  0.00    +0.000 OA
ATOM     49  C   UNL     1     110.742 130.712 140.284  0.00  0.00    +0.000 C 
ENDBRANCH  46  49
ENDBRANCH  44  45
ENDBRANCH  11  44
TORSDOF 12
ENDMDL
MODEL 5
REMARK VINA RESULT:      -8.9      1.990      4.266
REMARK  Name = 131835968
REMARK  12 active torsions:
REMARK  status: ('A' for Active; 'I' for Inactive)
REMARK    1  A    between atoms: O_2  and  C_18
REMARK    2  A    between atoms: O_2  and  C_20
REMARK    3  A    between atoms: C_17  and  C_19
REMARK    4  A    between atoms: C_23  and  C_24
REMARK    5  A    between atoms: C_26  and  C_29
REMARK    6  A    between atoms: C_29  and  C_34
REMARK    7  A    between atoms: C_33  and  C_38
REMARK    8  A    between atoms: C_37  and  C_39
REMARK    9  A    between atoms: C_38  and  C_42
REMARK   10  A    between atoms: C_39  and  C_40
REMARK   11  A    between atoms: C_40  and  C_44
REMARK   12  A    between atoms: C_43  and  C_46
REMARK                            x       y       z     vdW  Elec       q    Type
REMARK                         _______ _______ _______ _____ _____    ______ ____
ROOT
ATOM      1  O   UNL     1     106.132 127.049 143.775  0.00  0.00    +0.000 OA
ATOM      2  O   UNL     1     106.006 124.680 144.480  0.00  0.00    +0.000 OA
ATOM      3  O   UNL     1     106.038 124.239 143.107  0.00  0.00    +0.000 OA
ATOM      4  O   UNL     1     106.200 126.234 140.980  0.00  0.00    +0.000 OA
ATOM      5  C   UNL     1     106.094 126.859 144.576  0.00  0.00    +0.000 A 
ATOM      6  C   UNL     1     106.052 126.069 144.812  0.00  0.00    +0.000 A 
ATOM      7  C   UNL     1     106.085 125.659 143.443  0.00  0.00    +0.000 A 
ATOM      8  C   UNL     1     106.048 125.469 144.245  0.00  0.00    +0.000 A 
ATOM      9  C   UNL     1     106.127 126.449 143.208  0.00  0.00    +0.000 A 
ATOM     10  C   UNL     1     106.080 125.026 142.862  0.00  0.00    +0.000 A 
ATOM     11  C   UNL     1     106.119 125.218 142.026  0.00  0.00    +0.000 A 
ATOM     12  C   UNL     1     106.167 126.660 142.376  0.00  0.00    +0.000 A 
ATOM     13  C   UNL     1     106.162 126.040 141.780  0.00  0.00    +0.000 A 
ENDROOT
BRANCH   5  18
ATOM     14  O   UNL     1     104.804 127.878 144.709  0.00  0.00    +0.000 OA
ATOM     15  C   UNL     1     106.108 128.657 146.276  0.00  0.00    +0.000 A 
ATOM     16  C   UNL     1     105.458 128.568 145.776  0.00  0.00    +0.000 A 
ATOM     17  C   UNL     1     106.753 128.148 146.210  0.00  0.00    +0.000 A 
ATOM     18  C   UNL     1     106.099 127.458 145.143  0.00  0.00    +0.000 A 
ATOM     19  C   UNL     1     105.453 127.968 145.209  0.00  0.00    +0.000 A 
ATOM     20  C   UNL     1     106.748 127.548 145.644  0.00  0.00    +0.000 A 
BRANCH  15  21
ATOM     21  O   UNL     1     106.113 129.257 146.843  0.00  0.00    +0.000 OA
BRANCH  21  30
ATOM     22  O   UNL     1     105.400 128.549 147.860  0.00  0.00    +0.000 OA
ATOM     23  O   UNL     1     104.218 130.632 148.482  0.00  0.00    +0.000 OA
ATOM     24  O   UNL     1     103.899 129.230 149.291  0.00  0.00    +0.000 OA
ATOM     25  O   UNL     1     105.324 130.646 147.258  0.00  0.00    +0.000 OA
ATOM     26  C   UNL     1     104.612 129.938 148.274  0.00  0.00    +0.000 C 
ATOM     27  C   UNL     1     104.452 129.237 148.680  0.00  0.00    +0.000 C 
ATOM     28  C   UNL     1     105.165 129.945 147.663  0.00  0.00    +0.000 C 
ATOM     29  C   UNL     1     104.846 128.542 148.472  0.00  0.00    +0.000 C 
ATOM     30  C   UNL     1     105.559 129.250 147.456  0.00  0.00    +0.000 C 
BRANCH  29  33
ATOM     31  O   UNL     1     104.051 127.368 148.647  0.00  0.00    +0.000 OA
ATOM     32  O   UNL     1     105.164 127.613 149.510  0.00  0.00    +0.000 OA
ATOM     33  C   UNL     1     104.688 127.841 148.877  0.00  0.00    +0.000 C 
ENDBRANCH  29  33
ENDBRANCH  21  30
ENDBRANCH  15  21
ENDBRANCH   5  18
BRANCH   6  34
ATOM     34  C   UNL     1     106.015 125.879 145.613  0.00  0.00    +0.000 C 
BRANCH  34  35
ATOM     35  C   UNL     1     105.448 125.344 145.885  0.00  0.00    +0.000 C 
ATOM     36  C   UNL     1     105.547 124.973 146.615  0.00  0.00    +0.000 C 
ATOM     37  C   UNL     1     104.980 124.438 146.887  0.00  0.00    +0.000 C 
BRANCH  36  38
ATOM     38  C   UNL     1     106.213 125.136 147.073  0.00  0.00    +0.000 C 
BRANCH  38  39
ATOM     39  C   UNL     1     106.315 124.760 147.801  0.00  0.00    +0.000 C 
BRANCH  39  40
ATOM     40  C   UNL     1     107.062 124.735 148.150  0.00  0.00    +0.000 C 
ATOM     41  C   UNL     1     107.136 124.553 148.952  0.00  0.00    +0.000 C 
ATOM     42  C   UNL     1     107.883 124.527 149.302  0.00  0.00    +0.000 C 
ATOM     43  C   UNL     1     106.463 124.396 149.403  0.00  0.00    +0.000 C 
ENDBRANCH  39  40
ENDBRANCH  38  39
ENDBRANCH  36  38
ENDBRANCH  34  35
ENDBRANCH   6  34
BRANCH  11  44
ATOM     44  C   UNL     1     106.114 124.616 141.462  0.00  0.00    +0.000 C 
BRANCH  44  45
ATOM     45  C   UNL     1     105.406 124.397 141.099  0.00  0.00    +0.000 C 
ATOM     46  C   UNL     1     105.395 123.772 140.560  0.00  0.00    +0.000 C 
ATOM     47  C   UNL     1     106.092 123.366 140.384  0.00  0.00    +0.000 C 
BRANCH  46  49
ATOM     48  O   UNL     1     104.701 123.084 139.517  0.00  0.00    +0.000 OA
ATOM     49  C   UNL     1     104.688 123.552 140.197  0.00  0.00    +0.000 C 
ENDBRANCH  46  49
ENDBRANCH  44  45
ENDBRANCH  11  44
TORSDOF 12
ENDMDL
MODEL 6
REMARK VINA RESULT:      -8.9      2.691      5.996
REMARK  Name = 131835968
REMARK  12 active torsions:
REMARK  status: ('A' for Active; 'I' for Inactive)
REMARK    1  A    between atoms: O_2  and  C_18
REMARK    2  A    between atoms: O_2  and  C_20
REMARK    3  A    between atoms: C_17  and  C_19
REMARK    4  A    between atoms: C_23  and  C_24
REMARK    5  A    between atoms: C_26  and  C_29
REMARK    6  A    between atoms: C_29  and  C_34
REMARK    7  A    between atoms: C_33  and  C_38
REMARK    8  A    between atoms: C_37  and  C_39
REMARK    9  A    between atoms: C_38  and  C_42
REMARK   10  A    between atoms: C_39  and  C_40
REMARK   11  A    between atoms: C_40  and  C_44
REMARK   12  A    between atoms: C_43  and  C_46
REMARK                            x       y       z     vdW  Elec       q    Type
REMARK                         _______ _______ _______ _____ _____    ______ ____
ROOT
ATOM      1  O   UNL     1     104.039 129.146 141.977  0.00  0.00    +0.000 OA
ATOM      2  O   UNL     1     103.829 130.620 143.954  0.00  0.00    +0.000 OA
ATOM      3  O   UNL     1     102.767 131.364 143.322  0.00  0.00    +0.000 OA
ATOM      4  O   UNL     1     101.902 130.602 140.638  0.00  0.00    +0.000 OA
ATOM      5  C   UNL     1     104.529 129.031 142.630  0.00  0.00    +0.000 A 
ATOM      6  C   UNL     1     104.459 129.523 143.290  0.00  0.00    +0.000 A 
ATOM      7  C   UNL     1     103.409 130.243 142.641  0.00  0.00    +0.000 A 
ATOM      8  C   UNL     1     103.899 130.128 143.295  0.00  0.00    +0.000 A 
ATOM      9  C   UNL     1     103.479 129.752 141.982  0.00  0.00    +0.000 A 
ATOM     10  C   UNL     1     102.830 130.878 142.658  0.00  0.00    +0.000 A 
ATOM     11  C   UNL     1     102.317 131.002 141.981  0.00  0.00    +0.000 A 
ATOM     12  C   UNL     1     102.975 129.861 141.295  0.00  0.00    +0.000 A 
ATOM     13  C   UNL     1     102.389 130.490 141.293  0.00  0.00    +0.000 A 
ENDROOT
BRANCH   5  18
ATOM     14  O   UNL     1     105.960 129.237 141.835  0.00  0.00    +0.000 OA
ATOM     15  C   UNL     1     106.208 127.214 142.615  0.00  0.00    +0.000 A 
ATOM     16  C   UNL     1     106.364 127.922 142.222  0.00  0.00    +0.000 A 
ATOM     17  C   UNL     1     105.493 127.111 143.012  0.00  0.00    +0.000 A 
ATOM     18  C   UNL     1     105.088 128.425 142.625  0.00  0.00    +0.000 A 
ATOM     19  C   UNL     1     105.805 128.528 142.227  0.00  0.00    +0.000 A 
ATOM     20  C   UNL     1     104.933 127.717 143.017  0.00  0.00    +0.000 A 
BRANCH  15  21
ATOM     21  O   UNL     1     106.768 126.608 142.610  0.00  0.00    +0.000 OA
BRANCH  21  30
ATOM     22  O   UNL     1     106.158 125.826 141.581  0.00  0.00    +0.000 OA
ATOM     23  O   UNL     1     108.396 125.211 140.721  0.00  0.00    +0.000 OA
ATOM     24  O   UNL     1     107.040 124.634 139.979  0.00  0.00    +0.000 OA
ATOM     25  O   UNL     1     108.260 126.198 142.037  0.00  0.00    +0.000 OA
ATOM     26  C   UNL     1     107.650 125.416 141.008  0.00  0.00    +0.000 C 
ATOM     27  C   UNL     1     106.972 125.127 140.636  0.00  0.00    +0.000 C 
ATOM     28  C   UNL     1     107.582 125.909 141.665  0.00  0.00    +0.000 C 
ATOM     29  C   UNL     1     106.226 125.332 140.923  0.00  0.00    +0.000 C 
ATOM     30  C   UNL     1     106.836 126.114 141.952  0.00  0.00    +0.000 C 
BRANCH  29  33
ATOM     31  O   UNL     1     105.213 124.332 140.802  0.00  0.00    +0.000 OA
ATOM     32  O   UNL     1     105.204 125.467 139.933  0.00  0.00    +0.000 OA
ATOM     33  C   UNL     1     105.548 125.044 140.552  0.00  0.00    +0.000 C 
ENDBRANCH  29  33
ENDBRANCH  21  30
ENDBRANCH  15  21
ENDBRANCH   5  18
BRANCH   6  34
ATOM     34  C   UNL     1     104.948 129.408 143.943  0.00  0.00    +0.000 C 
BRANCH  34  35
ATOM     35  C   UNL     1     104.651 129.512 144.706  0.00  0.00    +0.000 C 
ATOM     36  C   UNL     1     105.167 129.601 145.342  0.00  0.00    +0.000 C 
ATOM     37  C   UNL     1     104.869 129.705 146.105  0.00  0.00    +0.000 C 
BRANCH  36  38
ATOM     38  C   UNL     1     105.982 129.587 145.217  0.00  0.00    +0.000 C 
BRANCH  38  39
ATOM     39  C   UNL     1     106.484 129.283 145.798  0.00  0.00    +0.000 C 
BRANCH  39  40
ATOM     40  C   UNL     1     107.300 129.388 145.733  0.00  0.00    +0.000 C 
ATOM     41  C   UNL     1     107.812 128.788 145.974  0.00  0.00    +0.000 C 
ATOM     42  C   UNL     1     108.629 128.893 145.910  0.00  0.00    +0.000 C 
ATOM     43  C   UNL     1     107.509 128.084 146.280  0.00  0.00    +0.000 C 
ENDBRANCH  39  40
ENDBRANCH  38  39
ENDBRANCH  36  38
ENDBRANCH  34  35
ENDBRANCH   6  34
BRANCH  11  44
ATOM     44  C   UNL     1     101.758 131.609 141.988  0.00  0.00    +0.000 C 
BRANCH  44  45
ATOM     45  C   UNL     1     101.955 132.355 141.697  0.00  0.00    +0.000 C 
ATOM     46  C   UNL     1     101.431 132.985 141.789  0.00  0.00    +0.000 C 
ATOM     47  C   UNL     1     100.710 132.870 142.173  0.00  0.00    +0.000 C 
BRANCH  46  49
ATOM     48  O   UNL     1     101.253 134.404 141.796  0.00  0.00    +0.000 OA
ATOM     49  C   UNL     1     101.628 133.732 141.497  0.00  0.00    +0.000 C 
ENDBRANCH  46  49
ENDBRANCH  44  45
ENDBRANCH  11  44
TORSDOF 12
ENDMDL
MODEL 7
REMARK VINA RESULT:      -8.9      3.253      5.682
REMARK  Name = 131835968
REMARK  12 active torsions:
REMARK  status: ('A' for Active; 'I' for Inactive)
REMARK    1  A    between atoms: O_2  and  C_18
REMARK    2  A    between atoms: O_2  and  C_20
REMARK    3  A    between atoms: C_17  and  C_19
REMARK    4  A    between atoms: C_23  and  C_24
REMARK    5  A    between atoms: C_26  and  C_29
REMARK    6  A    between atoms: C_29  and  C_34
REMARK    7  A    between atoms: C_33  and  C_38
REMARK    8  A    between atoms: C_37  and  C_39
REMARK    9  A    between atoms: C_38  and  C_42
REMARK   10  A    between atoms: C_39  and  C_40
REMARK   11  A    between atoms: C_40  and  C_44
REMARK   12  A    between atoms: C_43  and  C_46
REMARK                            x       y       z     vdW  Elec       q    Type
REMARK                         _______ _______ _______ _____ _____    ______ ____
ROOT
ATOM      1  O   UNL     1     106.334 129.154 142.551  0.00  0.00    +0.000 OA
ATOM      2  O   UNL     1     104.184 128.148 141.852  0.00  0.00    +0.000 OA
ATOM      3  O   UNL     1     104.777 126.834 141.816  0.00  0.00    +0.000 OA
ATOM      4  O   UNL     1     107.600 126.531 142.501  0.00  0.00    +0.000 OA
ATOM      5  C   UNL     1     105.670 129.631 142.449  0.00  0.00    +0.000 A 
ATOM      6  C   UNL     1     104.953 129.297 142.216  0.00  0.00    +0.000 A 
ATOM      7  C   UNL     1     105.565 128.005 142.188  0.00  0.00    +0.000 A 
ATOM      8  C   UNL     1     104.900 128.484 142.085  0.00  0.00    +0.000 A 
ATOM      9  C   UNL     1     106.282 128.341 142.421  0.00  0.00    +0.000 A 
ATOM     10  C   UNL     1     105.498 127.160 142.049  0.00  0.00    +0.000 A 
ATOM     11  C   UNL     1     106.186 126.657 142.155  0.00  0.00    +0.000 A 
ATOM     12  C   UNL     1     106.982 127.854 142.532  0.00  0.00    +0.000 A 
ATOM     13  C   UNL     1     106.934 127.006 142.397  0.00  0.00    +0.000 A 
ENDROOT
BRANCH   5  18
ATOM     14  O   UNL     1     106.416 130.598 141.339  0.00  0.00    +0.000 OA
ATOM     15  C   UNL     1     105.827 132.070 142.840  0.00  0.00    +0.000 A 
ATOM     16  C   UNL     1     106.148 131.741 142.154  0.00  0.00    +0.000 A 
ATOM     17  C   UNL     1     105.455 131.587 143.394  0.00  0.00    +0.000 A 
ATOM     18  C   UNL     1     105.723 130.444 142.579  0.00  0.00    +0.000 A 
ATOM     19  C   UNL     1     106.096 130.928 142.024  0.00  0.00    +0.000 A 
ATOM     20  C   UNL     1     105.402 130.774 143.264  0.00  0.00    +0.000 A 
BRANCH  15  21
ATOM     21  O   UNL     1     105.880 132.883 142.970  0.00  0.00    +0.000 OA
BRANCH  21  30
ATOM     22  O   UNL     1     105.082 133.431 141.919  0.00  0.00    +0.000 OA
ATOM     23  O   UNL     1     103.824 134.774 143.574  0.00  0.00    +0.000 OA
ATOM     24  O   UNL     1     103.446 134.875 141.971  0.00  0.00    +0.000 OA
ATOM     25  O   UNL     1     105.041 133.779 144.073  0.00  0.00    +0.000 OA
ATOM     26  C   UNL     1     104.243 134.327 143.022  0.00  0.00    +0.000 C 
ATOM     27  C   UNL     1     104.054 134.377 142.221  0.00  0.00    +0.000 C 
ATOM     28  C   UNL     1     104.851 133.829 143.272  0.00  0.00    +0.000 C 
ATOM     29  C   UNL     1     104.473 133.929 141.669  0.00  0.00    +0.000 C 
ATOM     30  C   UNL     1     105.271 133.381 142.720  0.00  0.00    +0.000 C 
BRANCH  29  33
ATOM     31  O   UNL     1     103.726 133.464 140.543  0.00  0.00    +0.000 OA
ATOM     32  O   UNL     1     104.653 134.543 140.391  0.00  0.00    +0.000 OA
ATOM     33  C   UNL     1     104.284 133.979 140.868  0.00  0.00    +0.000 C 
ENDBRANCH  29  33
ENDBRANCH  21  30
ENDBRANCH  15  21
ENDBRANCH   5  18
BRANCH   6  34
ATOM     34  C   UNL     1     104.289 129.774 142.113  0.00  0.00    +0.000 C 
BRANCH  34  35
ATOM     35  C   UNL     1     103.764 129.624 141.494  0.00  0.00    +0.000 C 
ATOM     36  C   UNL     1     103.025 129.990 141.481  0.00  0.00    +0.000 C 
ATOM     37  C   UNL     1     102.500 129.841 140.863  0.00  0.00    +0.000 C 
BRANCH  36  38
ATOM     38  C   UNL     1     102.810 130.507 142.088  0.00  0.00    +0.000 C 
BRANCH  38  39
ATOM     39  C   UNL     1     102.126 130.963 142.019  0.00  0.00    +0.000 C 
BRANCH  39  40
ATOM     40  C   UNL     1     101.839 131.378 142.672  0.00  0.00    +0.000 C 
ATOM     41  C   UNL     1     101.280 131.975 142.567  0.00  0.00    +0.000 C 
ATOM     42  C   UNL     1     100.993 132.390 143.221  0.00  0.00    +0.000 C 
ATOM     43  C   UNL     1     101.008 132.158 141.810  0.00  0.00    +0.000 C 
ENDBRANCH  39  40
ENDBRANCH  38  39
ENDBRANCH  36  38
ENDBRANCH  34  35
ENDBRANCH   6  34
BRANCH  11  44
ATOM     44  C   UNL     1     106.131 125.845 142.024  0.00  0.00    +0.000 C 
BRANCH  44  45
ATOM     45  C   UNL     1     106.285 125.536 141.274  0.00  0.00    +0.000 C 
ATOM     46  C   UNL     1     106.187 124.730 141.132  0.00  0.00    +0.000 C 
ATOM     47  C   UNL     1     105.936 124.231 141.739  0.00  0.00    +0.000 C 
BRANCH  46  49
ATOM     48  O   UNL     1     105.777 123.950 140.006  0.00  0.00    +0.000 OA
ATOM     49  C   UNL     1     106.341 124.420 140.382  0.00  0.00    +0.000 C 
ENDBRANCH  46  49
ENDBRANCH  44  45
ENDBRANCH  11  44
TORSDOF 12
ENDMDL
MODEL 8
REMARK VINA RESULT:      -8.9      7.193      8.199
REMARK  Name = 131835968
REMARK  12 active torsions:
REMARK  status: ('A' for Active; 'I' for Inactive)
REMARK    1  A    between atoms: O_2  and  C_18
REMARK    2  A    between atoms: O_2  and  C_20
REMARK    3  A    between atoms: C_17  and  C_19
REMARK    4  A    between atoms: C_23  and  C_24
REMARK    5  A    between atoms: C_26  and  C_29
REMARK    6  A    between atoms: C_29  and  C_34
REMARK    7  A    between atoms: C_33  and  C_38
REMARK    8  A    between atoms: C_37  and  C_39
REMARK    9  A    between atoms: C_38  and  C_42
REMARK   10  A    between atoms: C_39  and  C_40
REMARK   11  A    between atoms: C_40  and  C_44
REMARK   12  A    between atoms: C_43  and  C_46
REMARK                            x       y       z     vdW  Elec       q    Type
REMARK                         _______ _______ _______ _____ _____    ______ ____
ROOT
ATOM      1  O   UNL     1     112.240 128.204 139.668  0.00  0.00    +0.000 OA
ATOM      2  O   UNL     1     112.570 128.872 137.308  0.00  0.00    +0.000 OA
ATOM      3  O   UNL     1     112.941 127.526 136.948  0.00  0.00    +0.000 OA
ATOM      4  O   UNL     1     112.978 125.463 139.015  0.00  0.00    +0.000 OA
ATOM      5  C   UNL     1     112.113 128.986 139.439  0.00  0.00    +0.000 A 
ATOM      6  C   UNL     1     112.223 129.209 138.652  0.00  0.00    +0.000 A 
ATOM      7  C   UNL     1     112.587 127.867 138.323  0.00  0.00    +0.000 A 
ATOM      8  C   UNL     1     112.460 128.650 138.094  0.00  0.00    +0.000 A 
ATOM      9  C   UNL     1     112.477 127.644 139.110  0.00  0.00    +0.000 A 
ATOM     10  C   UNL     1     112.833 127.293 137.733  0.00  0.00    +0.000 A 
ATOM     11  C   UNL     1     112.967 126.477 137.964  0.00  0.00    +0.000 A 
ATOM     12  C   UNL     1     112.606 126.832 139.360  0.00  0.00    +0.000 A 
ATOM     13  C   UNL     1     112.852 126.244 138.783  0.00  0.00    +0.000 A 
ENDROOT
BRANCH   5  18
ATOM     14  O   UNL     1     110.522 129.112 139.857  0.00  0.00    +0.000 OA
ATOM     15  C   UNL     1     111.403 130.664 141.113  0.00  0.00    +0.000 A 
ATOM     16  C   UNL     1     110.844 130.168 140.765  0.00  0.00    +0.000 A 
ATOM     17  C   UNL     1     112.198 130.601 140.905  0.00  0.00    +0.000 A 
ATOM     18  C   UNL     1     111.877 129.545 139.997  0.00  0.00    +0.000 A 
ATOM     19  C   UNL     1     111.080 129.608 140.207  0.00  0.00    +0.000 A 
ATOM     20  C   UNL     1     112.435 130.042 140.347  0.00  0.00    +0.000 A 
BRANCH  15  21
ATOM     21  O   UNL     1     111.166 131.224 141.672  0.00  0.00    +0.000 OA
BRANCH  21  30
ATOM     22  O   UNL     1     111.199 130.351 142.802  0.00  0.00    +0.000 OA
ATOM     23  O   UNL     1     112.013 132.212 144.216  0.00  0.00    +0.000 OA
ATOM     24  O   UNL     1     111.775 130.718 144.875  0.00  0.00    +0.000 OA
ATOM     25  O   UNL     1     111.709 132.465 142.614  0.00  0.00    +0.000 OA
ATOM     26  C   UNL     1     111.742 131.592 143.745  0.00  0.00    +0.000 C 
ATOM     27  C   UNL     1     111.623 130.845 144.075  0.00  0.00    +0.000 C 
ATOM     28  C   UNL     1     111.590 131.718 142.944  0.00  0.00    +0.000 C 
ATOM     29  C   UNL     1     111.352 130.224 143.604  0.00  0.00    +0.000 C 
ATOM     30  C   UNL     1     111.319 131.097 142.473  0.00  0.00    +0.000 C 
BRANCH  29  33
ATOM     31  O   UNL     1     110.484 129.263 144.209  0.00  0.00    +0.000 OA
ATOM     32  O   UNL     1     111.860 128.945 143.987  0.00  0.00    +0.000 OA
ATOM     33  C   UNL     1     111.232 129.477 143.933  0.00  0.00    +0.000 C 
ENDBRANCH  29  33
ENDBRANCH  21  30
ENDBRANCH  15  21
ENDBRANCH   5  18
BRANCH   6  34
ATOM     34  C   UNL     1     112.097 129.991 138.424  0.00  0.00    +0.000 C 
BRANCH  34  35
ATOM     35  C   UNL     1     112.636 130.369 137.927  0.00  0.00    +0.000 C 
ATOM     36  C   UNL     1     112.407 131.036 137.499  0.00  0.00    +0.000 C 
ATOM     37  C   UNL     1     112.946 131.413 137.002  0.00  0.00    +0.000 C 
BRANCH  36  38
ATOM     38  C   UNL     1     111.638 131.326 137.569  0.00  0.00    +0.000 C 
BRANCH  38  39
ATOM     39  C   UNL     1     111.395 131.968 137.110  0.00  0.00    +0.000 C 
BRANCH  39  40
ATOM     40  C   UNL     1     110.625 131.996 136.815  0.00  0.00    +0.000 C 
ATOM     41  C   UNL     1     110.271 132.724 136.658  0.00  0.00    +0.000 C 
ATOM     42  C   UNL     1     109.501 132.752 136.363  0.00  0.00    +0.000 C 
ATOM     43  C   UNL     1     110.687 133.423 136.795  0.00  0.00    +0.000 C 
ENDBRANCH  39  40
ENDBRANCH  38  39
ENDBRANCH  36  38
ENDBRANCH  34  35
ENDBRANCH   6  34
BRANCH  11  44
ATOM     44  C   UNL     1     113.204 125.920 137.404  0.00  0.00    +0.000 C 
BRANCH  44  45
ATOM     45  C   UNL     1     114.006 125.790 137.265  0.00  0.00    +0.000 C 
ATOM     46  C   UNL     1     114.243 125.219 136.718  0.00  0.00    +0.000 C 
ATOM     47  C   UNL     1     113.678 124.778 136.311  0.00  0.00    +0.000 C 
BRANCH  46  49
ATOM     48  O   UNL     1     115.338 125.098 135.807  0.00  0.00    +0.000 OA
ATOM     49  C   UNL     1     115.046 125.089 136.579  0.00  0.00    +0.000 C 
ENDBRANCH  46  49
ENDBRANCH  44  45
ENDBRANCH  11  44
TORSDOF 12
ENDMDL
MODEL 9
REMARK VINA RESULT:      -8.9      2.301      3.844
REMARK  Name = 131835968
REMARK  12 active torsions:
REMARK  status: ('A' for Active; 'I' for Inactive)
REMARK    1  A    between atoms: O_2  and  C_18
REMARK    2  A    between atoms: O_2  and  C_20
REMARK    3  A    between atoms: C_17  and  C_19
REMARK    4  A    between atoms: C_23  and  C_24
REMARK    5  A    between atoms: C_26  and  C_29
REMARK    6  A    between atoms: C_29  and  C_34
REMARK    7  A    between atoms: C_33  and  C_38
REMARK    8  A    between atoms: C_37  and  C_39
REMARK    9  A    between atoms: C_38  and  C_42
REMARK   10  A    between atoms: C_39  and  C_40
REMARK   11  A    between atoms: C_40  and  C_44
REMARK   12  A    between atoms: C_43  and  C_46
REMARK                            x       y       z     vdW  Elec       q    Type
REMARK                         _______ _______ _______ _____ _____    ______ ____
ROOT
ATOM      1  O   UNL     1     105.438 128.281 143.039  0.00  0.00    +0.000 OA
ATOM      2  O   UNL     1     104.176 127.935 140.938  0.00  0.00    +0.000 OA
ATOM      3  O   UNL     1     104.852 126.683 140.704  0.00  0.00    +0.000 OA
ATOM      4  O   UNL     1     106.843 125.763 142.633  0.00  0.00    +0.000 OA
ATOM      5  C   UNL     1     104.885 128.842 142.793  0.00  0.00    +0.000 A 
ATOM      6  C   UNL     1     104.464 128.727 142.092  0.00  0.00    +0.000 A 
ATOM      7  C   UNL     1     105.149 127.490 141.885  0.00  0.00    +0.000 A 
ATOM      8  C   UNL     1     104.596 128.051 141.638  0.00  0.00    +0.000 A 
ATOM      9  C   UNL     1     105.570 127.605 142.585  0.00  0.00    +0.000 A 
ATOM     10  C   UNL     1     105.278 126.790 141.403  0.00  0.00    +0.000 A 
ATOM     11  C   UNL     1     105.852 126.202 141.654  0.00  0.00    +0.000 A 
ATOM     12  C   UNL     1     106.148 127.028 142.852  0.00  0.00    +0.000 A 
ATOM     13  C   UNL     1     106.290 126.321 142.384  0.00  0.00    +0.000 A 
ENDROOT
BRANCH   5  18
ATOM     14  O   UNL     1     105.910 130.129 142.673  0.00  0.00    +0.000 OA
ATOM     15  C   UNL     1     104.489 130.870 144.155  0.00  0.00    +0.000 A 
ATOM     16  C   UNL     1     105.134 130.838 143.641  0.00  0.00    +0.000 A 
ATOM     17  C   UNL     1     103.977 130.226 144.215  0.00  0.00    +0.000 A 
ATOM     18  C   UNL     1     104.753 129.518 143.247  0.00  0.00    +0.000 A 
ATOM     19  C   UNL     1     105.266 130.162 143.187  0.00  0.00    +0.000 A 
ATOM     20  C   UNL     1     104.109 129.550 143.761  0.00  0.00    +0.000 A 
BRANCH  15  21
ATOM     21  O   UNL     1     104.358 131.546 144.609  0.00  0.00    +0.000 OA
BRANCH  21  30
ATOM     22  O   UNL     1     104.964 131.063 145.810  0.00  0.00    +0.000 OA
ATOM     23  O   UNL     1     105.846 133.328 146.275  0.00  0.00    +0.000 OA
ATOM     24  O   UNL     1     106.158 132.090 147.321  0.00  0.00    +0.000 OA
ATOM     25  O   UNL     1     104.946 133.056 144.920  0.00  0.00    +0.000 OA
ATOM     26  C   UNL     1     105.552 132.573 146.120  0.00  0.00    +0.000 C 
ATOM     27  C   UNL     1     105.709 131.954 146.643  0.00  0.00    +0.000 C 
ATOM     28  C   UNL     1     105.102 132.437 145.443  0.00  0.00    +0.000 C 
ATOM     29  C   UNL     1     105.414 131.199 146.488  0.00  0.00    +0.000 C 
ATOM     30  C   UNL     1     104.808 131.682 145.288  0.00  0.00    +0.000 C 
BRANCH  29  33
ATOM     31  O   UNL     1     105.044 130.417 147.625  0.00  0.00    +0.000 OA
ATOM     32  O   UNL     1     106.251 130.123 146.918  0.00  0.00    +0.000 OA
ATOM     33  C   UNL     1     105.570 130.580 147.010  0.00  0.00    +0.000 C 
ENDBRANCH  29  33
ENDBRANCH  21  30
ENDBRANCH  15  21
ENDBRANCH   5  18
BRANCH   6  34
ATOM     34  C   UNL     1     103.912 129.287 141.846  0.00  0.00    +0.000 C 
BRANCH  34  35
ATOM     35  C   UNL     1     103.395 129.114 141.227  0.00  0.00    +0.000 C 
ATOM     36  C   UNL     1     102.881 129.693 140.944  0.00  0.00    +0.000 C 
ATOM     37  C   UNL     1     102.363 129.519 140.325  0.00  0.00    +0.000 C 
BRANCH  36  38
ATOM     38  C   UNL     1     102.883 130.446 141.280  0.00  0.00    +0.000 C 
BRANCH  38  39
ATOM     39  C   UNL     1     102.203 130.913 141.252  0.00  0.00    +0.000 C 
BRANCH  39  40
ATOM     40  C   UNL     1     102.260 131.731 141.345  0.00  0.00    +0.000 C 
ATOM     41  C   UNL     1     101.667 132.142 141.744  0.00  0.00    +0.000 C 
ATOM     42  C   UNL     1     101.724 132.960 141.838  0.00  0.00    +0.000 C 
ATOM     43  C   UNL     1     101.017 131.736 142.051  0.00  0.00    +0.000 C 
ENDBRANCH  39  40
ENDBRANCH  38  39
ENDBRANCH  36  38
ENDBRANCH  34  35
ENDBRANCH   6  34
BRANCH  11  44
ATOM     44  C   UNL     1     105.982 125.527 141.198  0.00  0.00    +0.000 C 
BRANCH  44  45
ATOM     45  C   UNL     1     105.561 124.835 141.356  0.00  0.00    +0.000 C 
ATOM     46  C   UNL     1     105.652 124.177 140.868  0.00  0.00    +0.000 C 
ATOM     47  C   UNL     1     106.163 124.210 140.221  0.00  0.00    +0.000 C 
BRANCH  46  49
ATOM     48  O   UNL     1     105.389 122.798 140.595  0.00  0.00    +0.000 OA
ATOM     49  C   UNL     1     105.232 123.484 141.026  0.00  0.00    +0.000 C 
ENDBRANCH  46  49
ENDBRANCH  44  45
ENDBRANCH  11  44
TORSDOF 12
ENDMDL
MODEL 10
REMARK VINA RESULT:      -8.8      6.799      9.730
REMARK  Name = 131835968
REMARK  12 active torsions:
REMARK  status: ('A' for Active; 'I' for Inactive)
REMARK    1  A    between atoms: O_2  and  C_18
REMARK    2  A    between atoms: O_2  and  C_20
REMARK    3  A    between atoms: C_17  and  C_19
REMARK    4  A    between atoms: C_23  and  C_24
REMARK    5  A    between atoms: C_26  and  C_29
REMARK    6  A    between atoms: C_29  and  C_34
REMARK    7  A    between atoms: C_33  and  C_38
REMARK    8  A    between atoms: C_37  and  C_39
REMARK    9  A    between atoms: C_38  and  C_42
REMARK   10  A    between atoms: C_39  and  C_40
REMARK   11  A    between atoms: C_40  and  C_44
REMARK   12  A    between atoms: C_43  and  C_46
REMARK                            x       y       z     vdW  Elec       q    Type
REMARK                         _______ _______ _______ _____ _____    ______ ____
ROOT
ATOM      1  O   UNL     1     110.927 129.364 139.402  0.00  0.00    +0.000 OA
ATOM      2  O   UNL     1     110.368 131.771 139.544  0.00  0.00    +0.000 OA
ATOM      3  O   UNL     1     110.664 131.786 140.955  0.00  0.00    +0.000 OA
ATOM      4  O   UNL     1     111.542 129.318 142.248  0.00  0.00    +0.000 OA
ATOM      5  C   UNL     1     110.684 129.771 138.728  0.00  0.00    +0.000 A 
ATOM      6  C   UNL     1     110.497 130.574 138.774  0.00  0.00    +0.000 A 
ATOM      7  C   UNL     1     110.797 130.561 140.172  0.00  0.00    +0.000 A 
ATOM      8  C   UNL     1     110.554 130.969 139.496  0.00  0.00    +0.000 A 
ATOM      9  C   UNL     1     110.983 129.759 140.124  0.00  0.00    +0.000 A 
ATOM     10  C   UNL     1     110.852 130.983 140.918  0.00  0.00    +0.000 A 
ATOM     11  C   UNL     1     111.105 130.565 141.624  0.00  0.00    +0.000 A 
ATOM     12  C   UNL     1     111.238 129.323 140.820  0.00  0.00    +0.000 A 
ATOM     13  C   UNL     1     111.299 129.729 141.576  0.00  0.00    +0.000 A 
ENDROOT
BRANCH   5  18
ATOM     14  O   UNL     1     109.336 128.887 138.375  0.00  0.00    +0.000 OA
ATOM     15  C   UNL     1     110.513 128.586 136.561  0.00  0.00    +0.000 A 
ATOM     16  C   UNL     1     109.896 128.539 137.107  0.00  0.00    +0.000 A 
ATOM     17  C   UNL     1     111.187 129.028 136.737  0.00  0.00    +0.000 A 
ATOM     18  C   UNL     1     110.627 129.376 138.005  0.00  0.00    +0.000 A 
ATOM     19  C   UNL     1     109.953 128.934 137.829  0.00  0.00    +0.000 A 
ATOM     20  C   UNL     1     111.243 129.423 137.460  0.00  0.00    +0.000 A 
BRANCH  15  21
ATOM     21  O   UNL     1     110.457 128.192 135.839  0.00  0.00    +0.000 OA
BRANCH  21  30
ATOM     22  O   UNL     1     111.190 127.026 136.221  0.00  0.00    +0.000 OA
ATOM     23  O   UNL     1     109.661 125.622 134.873  0.00  0.00    +0.000 OA
ATOM     24  O   UNL     1     110.904 124.925 135.705  0.00  0.00    +0.000 OA
ATOM     25  O   UNL     1     109.438 127.256 134.940  0.00  0.00    +0.000 OA
ATOM     26  C   UNL     1     110.171 126.090 135.323  0.00  0.00    +0.000 C 
ATOM     27  C   UNL     1     110.792 125.741 135.738  0.00  0.00    +0.000 C 
ATOM     28  C   UNL     1     110.059 126.906 135.356  0.00  0.00    +0.000 C 
ATOM     29  C   UNL     1     111.302 126.209 136.188  0.00  0.00    +0.000 C 
ATOM     30  C   UNL     1     110.569 127.374 135.805  0.00  0.00    +0.000 C 
BRANCH  29  33
ATOM     31  O   UNL     1     112.671 125.805 136.258  0.00  0.00    +0.000 OA
ATOM     32  O   UNL     1     111.798 125.569 137.365  0.00  0.00    +0.000 OA
ATOM     33  C   UNL     1     111.923 125.861 136.604  0.00  0.00    +0.000 C 
ENDBRANCH  29  33
ENDBRANCH  21  30
ENDBRANCH  15  21
ENDBRANCH   5  18
BRANCH   6  34
ATOM     34  C   UNL     1     110.254 130.981 138.100  0.00  0.00    +0.000 C 
BRANCH  34  35
ATOM     35  C   UNL     1     110.532 131.744 137.955  0.00  0.00    +0.000 C 
ATOM     36  C   UNL     1     110.148 132.227 137.409  0.00  0.00    +0.000 C 
ATOM     37  C   UNL     1     110.426 132.991 137.264  0.00  0.00    +0.000 C 
BRANCH  36  38
ATOM     38  C   UNL     1     109.484 131.948 137.006  0.00  0.00    +0.000 C 
BRANCH  38  39
ATOM     39  C   UNL     1     109.302 132.241 136.256  0.00  0.00    +0.000 C 
BRANCH  39  40
ATOM     40  C   UNL     1     108.539 132.156 135.955  0.00  0.00    +0.000 C 
ATOM     41  C   UNL     1     108.422 132.106 135.140  0.00  0.00    +0.000 C 
ATOM     42  C   UNL     1     107.658 132.021 134.838  0.00  0.00    +0.000 C 
ATOM     43  C   UNL     1     109.067 132.141 134.627  0.00  0.00    +0.000 C 
ENDBRANCH  39  40
ENDBRANCH  38  39
ENDBRANCH  36  38
ENDBRANCH  34  35
ENDBRANCH   6  34
BRANCH  11  44
ATOM     44  C   UNL     1     111.160 130.962 142.345  0.00  0.00    +0.000 C 
BRANCH  44  45
ATOM     45  C   UNL     1     111.863 131.340 142.554  0.00  0.00    +0.000 C 
ATOM     46  C   UNL     1     111.913 131.753 143.267  0.00  0.00    +0.000 C 
ATOM     47  C   UNL     1     111.261 131.787 143.770  0.00  0.00    +0.000 C 
BRANCH  46  49
ATOM     48  O   UNL     1     112.647 132.598 144.157  0.00  0.00    +0.000 OA
ATOM     49  C   UNL     1     112.616 132.131 143.477  0.00  0.00    +0.000 C 
ENDBRANCH  46  49
ENDBRANCH  44  45
ENDBRANCH  11  44
TORSDOF 12
ENDMDL
