MODEL 1
REMARK VINA RESULT:      -8.0      0.000      0.000
REMARK  Name = 13871373
REMARK  4 active torsions:
REMARK  status: ('A' for Active; 'I' for Inactive)
REMARK    1  A    between atoms: O_4  and  C_18
REMARK    2  A    between atoms: O_5  and  C_19
REMARK    3  A    between atoms: O_6  and  C_22
REMARK    4  A    between atoms: C_8  and  C_11
REMARK                            x       y       z     vdW  Elec       q    Type
REMARK                         _______ _______ _______ _____ _____    ______ ____
ROOT
ATOM      1  O   UNL     1     104.565 124.680 139.496  0.00  0.00    +0.000 OA
ATOM      2  O   UNL     1     106.074 122.849 140.380  0.00  0.00    +0.000 OA
ATOM      3  O   UNL     1     106.655 123.801 141.295  0.00  0.00    +0.000 OA
ATOM      4  C   UNL     1     104.507 123.890 139.163  0.00  0.00    +0.000 C 
ATOM      5  C   UNL     1     105.019 123.266 139.461  0.00  0.00    +0.000 C 
ATOM      6  C   UNL     1     105.624 124.237 140.408  0.00  0.00    +0.000 A 
ATOM      7  C   UNL     1     105.580 123.442 140.088  0.00  0.00    +0.000 C 
ATOM      8  C   UNL     1     105.133 124.836 140.122  0.00  0.00    +0.000 A 
ATOM      9  C   UNL     1     106.165 124.400 141.009  0.00  0.00    +0.000 A 
ATOM     10  C   UNL     1     105.184 125.597 140.437  0.00  0.00    +0.000 A 
ATOM     11  C   UNL     1     106.215 125.160 141.325  0.00  0.00    +0.000 A 
ATOM     12  C   UNL     1     105.725 125.759 141.038  0.00  0.00    +0.000 A 
ENDROOT
BRANCH   4  14
ATOM     13  O   UNL     1     101.804 123.677 138.261  0.00  0.00    +0.000 OA
ATOM     14  C   UNL     1     103.965 123.730 138.562  0.00  0.00    +0.000 A 
ATOM     15  C   UNL     1     103.156 123.783 138.712  0.00  0.00    +0.000 A 
ATOM     16  C   UNL     1     104.233 123.518 137.811  0.00  0.00    +0.000 A 
ATOM     17  C   UNL     1     102.614 123.624 138.112  0.00  0.00    +0.000 A 
ATOM     18  C   UNL     1     103.690 123.359 137.210  0.00  0.00    +0.000 A 
ATOM     19  C   UNL     1     102.881 123.412 137.360  0.00  0.00    +0.000 A 
BRANCH  19  20
ATOM     20  O   UNL     1     102.339 123.253 136.760  0.00  0.00    +0.000 OA
ATOM     21  C   UNL     1     102.592 122.899 136.059  0.00  0.00    +0.000 C 
ENDBRANCH  19  20
ENDBRANCH   4  14
BRANCH  11  22
ATOM     22  O   UNL     1     106.757 125.322 141.926  0.00  0.00    +0.000 OA
ATOM     23  C   UNL     1     107.521 125.567 141.739  0.00  0.00    +0.000 C 
ENDBRANCH  11  22
BRANCH  12  24
ATOM     24  O   UNL     1     105.776 126.520 141.354  0.00  0.00    +0.000 OA
ATOM     25  C   UNL     1     105.114 127.013 141.350  0.00  0.00    +0.000 C 
ENDBRANCH  12  24
TORSDOF 4
ENDMDL
MODEL 2
REMARK VINA RESULT:      -7.9      6.456      8.932
REMARK  Name = 13871373
REMARK  4 active torsions:
REMARK  status: ('A' for Active; 'I' for Inactive)
REMARK    1  A    between atoms: O_4  and  C_18
REMARK    2  A    between atoms: O_5  and  C_19
REMARK    3  A    between atoms: O_6  and  C_22
REMARK    4  A    between atoms: C_8  and  C_11
REMARK                            x       y       z     vdW  Elec       q    Type
REMARK                         _______ _______ _______ _____ _____    ______ ____
ROOT
ATOM      1  O   UNL     1     104.563 124.245 146.862  0.00  0.00    +0.000 OA
ATOM      2  O   UNL     1     102.974 125.595 148.298  0.00  0.00    +0.000 OA
ATOM      3  O   UNL     1     101.864 124.972 147.617  0.00  0.00    +0.000 OA
ATOM      4  C   UNL     1     104.882 124.787 147.448  0.00  0.00    +0.000 C 
ATOM      5  C   UNL     1     104.344 125.247 147.937  0.00  0.00    +0.000 C 
ATOM      6  C   UNL     1     103.196 124.612 147.243  0.00  0.00    +0.000 A 
ATOM      7  C   UNL     1     103.496 125.158 147.833  0.00  0.00    +0.000 C 
ATOM      8  C   UNL     1     103.712 124.171 146.773  0.00  0.00    +0.000 A 
ATOM      9  C   UNL     1     102.380 124.531 147.148  0.00  0.00    +0.000 A 
ATOM     10  C   UNL     1     103.411 123.649 146.209  0.00  0.00    +0.000 A 
ATOM     11  C   UNL     1     102.080 124.010 146.584  0.00  0.00    +0.000 A 
ATOM     12  C   UNL     1     102.596 123.568 146.114  0.00  0.00    +0.000 A 
ENDROOT
BRANCH   4  14
ATOM     13  O   UNL     1     107.432 125.521 146.390  0.00  0.00    +0.000 OA
ATOM     14  C   UNL     1     105.698 124.866 147.541  0.00  0.00    +0.000 A 
ATOM     15  C   UNL     1     106.157 125.154 146.919  0.00  0.00    +0.000 A 
ATOM     16  C   UNL     1     106.054 124.656 148.255  0.00  0.00    +0.000 A 
ATOM     17  C   UNL     1     106.973 125.233 147.012  0.00  0.00    +0.000 A 
ATOM     18  C   UNL     1     106.870 124.735 148.347  0.00  0.00    +0.000 A 
ATOM     19  C   UNL     1     107.330 125.023 147.726  0.00  0.00    +0.000 A 
BRANCH  19  20
ATOM     20  O   UNL     1     108.145 125.102 147.818  0.00  0.00    +0.000 OA
ATOM     21  C   UNL     1     108.524 124.744 148.457  0.00  0.00    +0.000 C 
ENDBRANCH  19  20
ENDBRANCH   4  14
BRANCH  11  22
ATOM     22  O   UNL     1     101.264 123.929 146.488  0.00  0.00    +0.000 OA
ATOM     23  C   UNL     1     100.842 123.409 146.969  0.00  0.00    +0.000 C 
ENDBRANCH  11  22
BRANCH  12  24
ATOM     24  O   UNL     1     102.295 123.046 145.550  0.00  0.00    +0.000 OA
ATOM     25  C   UNL     1     102.791 122.739 144.967  0.00  0.00    +0.000 C 
ENDBRANCH  12  24
TORSDOF 4
ENDMDL
MODEL 3
REMARK VINA RESULT:      -7.8      8.937     10.785
REMARK  Name = 13871373
REMARK  4 active torsions:
REMARK  status: ('A' for Active; 'I' for Inactive)
REMARK    1  A    between atoms: O_4  and  C_18
REMARK    2  A    between atoms: O_5  and  C_19
REMARK    3  A    between atoms: O_6  and  C_22
REMARK    4  A    between atoms: C_8  and  C_11
REMARK                            x       y       z     vdW  Elec       q    Type
REMARK                         _______ _______ _______ _____ _____    ______ ____
ROOT
ATOM      1  O   UNL     1     113.913 127.539 136.296  0.00  0.00    +0.000 OA
ATOM      2  O   UNL     1     111.403 127.480 135.974  0.00  0.00    +0.000 OA
ATOM      3  O   UNL     1     111.399 126.111 136.433  0.00  0.00    +0.000 OA
ATOM      4  C   UNL     1     113.509 128.240 136.006  0.00  0.00    +0.000 C 
ATOM      5  C   UNL     1     112.657 128.223 135.895  0.00  0.00    +0.000 C 
ATOM      6  C   UNL     1     112.641 126.814 136.366  0.00  0.00    +0.000 A 
ATOM      7  C   UNL     1     112.221 127.505 136.077  0.00  0.00    +0.000 C 
ATOM      8  C   UNL     1     113.460 126.831 136.472  0.00  0.00    +0.000 A 
ATOM      9  C   UNL     1     112.217 126.128 136.538  0.00  0.00    +0.000 A 
ATOM     10  C   UNL     1     113.853 126.161 136.750  0.00  0.00    +0.000 A 
ATOM     11  C   UNL     1     112.610 125.459 136.817  0.00  0.00    +0.000 A 
ATOM     12  C   UNL     1     113.429 125.475 136.923  0.00  0.00    +0.000 A 
ENDROOT
BRANCH   4  14
ATOM     13  O   UNL     1     114.463 130.820 136.779  0.00  0.00    +0.000 OA
ATOM     14  C   UNL     1     113.936 128.925 135.834  0.00  0.00    +0.000 A 
ATOM     15  C   UNL     1     113.987 129.530 136.392  0.00  0.00    +0.000 A 
ATOM     16  C   UNL     1     114.313 129.004 135.104  0.00  0.00    +0.000 A 
ATOM     17  C   UNL     1     114.413 130.214 136.221  0.00  0.00    +0.000 A 
ATOM     18  C   UNL     1     114.740 129.689 134.933  0.00  0.00    +0.000 A 
ATOM     19  C   UNL     1     114.790 130.294 135.491  0.00  0.00    +0.000 A 
BRANCH  19  20
ATOM     20  O   UNL     1     115.217 130.979 135.320  0.00  0.00    +0.000 OA
ATOM     21  C   UNL     1     115.636 131.037 134.612  0.00  0.00    +0.000 C 
ENDBRANCH  19  20
ENDBRANCH   4  14
BRANCH  11  22
ATOM     22  O   UNL     1     112.186 124.772 136.989  0.00  0.00    +0.000 OA
ATOM     23  C   UNL     1     111.959 124.263 136.382  0.00  0.00    +0.000 C 
ENDBRANCH  11  22
BRANCH  12  24
ATOM     24  O   UNL     1     113.822 124.805 137.201  0.00  0.00    +0.000 OA
ATOM     25  C   UNL     1     114.616 124.854 137.419  0.00  0.00    +0.000 C 
ENDBRANCH  12  24
TORSDOF 4
ENDMDL
MODEL 4
REMARK VINA RESULT:      -7.8      7.190      7.841
REMARK  Name = 13871373
REMARK  4 active torsions:
REMARK  status: ('A' for Active; 'I' for Inactive)
REMARK    1  A    between atoms: O_4  and  C_18
REMARK    2  A    between atoms: O_5  and  C_19
REMARK    3  A    between atoms: O_6  and  C_22
REMARK    4  A    between atoms: C_8  and  C_11
REMARK                            x       y       z     vdW  Elec       q    Type
REMARK                         _______ _______ _______ _____ _____    ______ ____
ROOT
ATOM      1  O   UNL     1     110.734 127.120 136.471  0.00  0.00    +0.000 OA
ATOM      2  O   UNL     1     110.422 125.111 134.962  0.00  0.00    +0.000 OA
ATOM      3  O   UNL     1     111.231 124.332 135.870  0.00  0.00    +0.000 OA
ATOM      4  C   UNL     1     110.264 127.199 135.756  0.00  0.00    +0.000 C 
ATOM      5  C   UNL     1     110.156 126.518 135.241  0.00  0.00    +0.000 C 
ATOM      6  C   UNL     1     110.987 125.708 136.168  0.00  0.00    +0.000 A 
ATOM      7  C   UNL     1     110.521 125.769 135.450  0.00  0.00    +0.000 C 
ATOM      8  C   UNL     1     111.090 126.362 136.662  0.00  0.00    +0.000 A 
ATOM      9  C   UNL     1     111.334 124.985 136.363  0.00  0.00    +0.000 A 
ATOM     10  C   UNL     1     111.541 126.291 137.350  0.00  0.00    +0.000 A 
ATOM     11  C   UNL     1     111.784 124.915 137.051  0.00  0.00    +0.000 A 
ATOM     12  C   UNL     1     111.887 125.569 137.545  0.00  0.00    +0.000 A 
ENDROOT
BRANCH   4  14
ATOM     13  O   UNL     1     108.088 129.038 135.978  0.00  0.00    +0.000 OA
ATOM     14  C   UNL     1     109.918 127.923 135.564  0.00  0.00    +0.000 A 
ATOM     15  C   UNL     1     109.176 128.119 135.867  0.00  0.00    +0.000 A 
ATOM     16  C   UNL     1     110.314 128.451 135.069  0.00  0.00    +0.000 A 
ATOM     17  C   UNL     1     108.830 128.842 135.675  0.00  0.00    +0.000 A 
ATOM     18  C   UNL     1     109.968 129.175 134.877  0.00  0.00    +0.000 A 
ATOM     19  C   UNL     1     109.227 129.371 135.180  0.00  0.00    +0.000 A 
BRANCH  19  20
ATOM     20  O   UNL     1     108.880 130.095 134.989  0.00  0.00    +0.000 OA
ATOM     21  C   UNL     1     109.326 130.678 134.613  0.00  0.00    +0.000 C 
ENDBRANCH  19  20
ENDBRANCH   4  14
BRANCH  11  22
ATOM     22  O   UNL     1     112.131 124.193 137.246  0.00  0.00    +0.000 OA
ATOM     23  C   UNL     1     112.822 123.951 136.867  0.00  0.00    +0.000 C 
ENDBRANCH  11  22
BRANCH  12  24
ATOM     24  O   UNL     1     112.338 125.499 138.233  0.00  0.00    +0.000 OA
ATOM     25  C   UNL     1     112.435 126.150 138.730  0.00  0.00    +0.000 C 
ENDBRANCH  12  24
TORSDOF 4
ENDMDL
MODEL 5
REMARK VINA RESULT:      -7.7      6.620      7.805
REMARK  Name = 13871373
REMARK  4 active torsions:
REMARK  status: ('A' for Active; 'I' for Inactive)
REMARK    1  A    between atoms: O_4  and  C_18
REMARK    2  A    between atoms: O_5  and  C_19
REMARK    3  A    between atoms: O_6  and  C_22
REMARK    4  A    between atoms: C_8  and  C_11
REMARK                            x       y       z     vdW  Elec       q    Type
REMARK                         _______ _______ _______ _____ _____    ______ ____
ROOT
ATOM      1  O   UNL     1     110.529 127.458 136.437  0.00  0.00    +0.000 OA
ATOM      2  O   UNL     1     108.047 127.298 135.963  0.00  0.00    +0.000 OA
ATOM      3  O   UNL     1     108.026 128.720 135.714  0.00  0.00    +0.000 OA
ATOM      4  C   UNL     1     110.139 126.694 136.489  0.00  0.00    +0.000 C 
ATOM      5  C   UNL     1     109.296 126.636 136.329  0.00  0.00    +0.000 C 
ATOM      6  C   UNL     1     109.263 128.099 136.071  0.00  0.00    +0.000 A 
ATOM      7  C   UNL     1     108.856 127.344 136.118  0.00  0.00    +0.000 C 
ATOM      8  C   UNL     1     110.072 128.154 136.225  0.00  0.00    +0.000 A 
ATOM      9  C   UNL     1     108.835 128.775 135.869  0.00  0.00    +0.000 A 
ATOM     10  C   UNL     1     110.452 128.885 136.177  0.00  0.00    +0.000 A 
ATOM     11  C   UNL     1     109.215 129.505 135.820  0.00  0.00    +0.000 A 
ATOM     12  C   UNL     1     110.024 129.560 135.974  0.00  0.00    +0.000 A 
ENDROOT
BRANCH   4  14
ATOM     13  O   UNL     1     111.233 124.964 138.483  0.00  0.00    +0.000 OA
ATOM     14  C   UNL     1     110.569 126.020 136.692  0.00  0.00    +0.000 A 
ATOM     15  C   UNL     1     110.686 125.828 137.486  0.00  0.00    +0.000 A 
ATOM     16  C   UNL     1     110.883 125.538 136.101  0.00  0.00    +0.000 A 
ATOM     17  C   UNL     1     111.116 125.155 137.689  0.00  0.00    +0.000 A 
ATOM     18  C   UNL     1     111.314 124.863 136.304  0.00  0.00    +0.000 A 
ATOM     19  C   UNL     1     111.431 124.672 137.097  0.00  0.00    +0.000 A 
BRANCH  19  20
ATOM     20  O   UNL     1     111.861 123.999 137.301  0.00  0.00    +0.000 OA
ATOM     21  C   UNL     1     112.212 123.541 136.712  0.00  0.00    +0.000 C 
ENDBRANCH  19  20
ENDBRANCH   4  14
BRANCH  11  22
ATOM     22  O   UNL     1     108.787 130.181 135.618  0.00  0.00    +0.000 OA
ATOM     23  C   UNL     1     108.363 130.589 136.194  0.00  0.00    +0.000 C 
ENDBRANCH  11  22
BRANCH  12  24
ATOM     24  O   UNL     1     110.404 130.291 135.926  0.00  0.00    +0.000 OA
ATOM     25  C   UNL     1     111.222 130.337 136.026  0.00  0.00    +0.000 C 
ENDBRANCH  12  24
TORSDOF 4
ENDMDL
MODEL 6
REMARK VINA RESULT:      -7.7      8.374     10.175
REMARK  Name = 13871373
REMARK  4 active torsions:
REMARK  status: ('A' for Active; 'I' for Inactive)
REMARK    1  A    between atoms: O_4  and  C_18
REMARK    2  A    between atoms: O_5  and  C_19
REMARK    3  A    between atoms: O_6  and  C_22
REMARK    4  A    between atoms: C_8  and  C_11
REMARK                            x       y       z     vdW  Elec       q    Type
REMARK                         _______ _______ _______ _____ _____    ______ ____
ROOT
ATOM      1  O   UNL     1     112.626 127.158 136.172  0.00  0.00    +0.000 OA
ATOM      2  O   UNL     1     114.406 125.535 136.953  0.00  0.00    +0.000 OA
ATOM      3  O   UNL     1     113.468 124.454 136.770  0.00  0.00    +0.000 OA
ATOM      4  C   UNL     1     113.401 127.457 136.393  0.00  0.00    +0.000 C 
ATOM      5  C   UNL     1     114.008 126.908 136.658  0.00  0.00    +0.000 C 
ATOM      6  C   UNL     1     113.050 125.788 136.474  0.00  0.00    +0.000 A 
ATOM      7  C   UNL     1     113.830 126.069 136.699  0.00  0.00    +0.000 C 
ATOM      8  C   UNL     1     112.468 126.315 136.219  0.00  0.00    +0.000 A 
ATOM      9  C   UNL     1     112.886 124.980 136.516  0.00  0.00    +0.000 A 
ATOM     10  C   UNL     1     111.722 126.033 136.006  0.00  0.00    +0.000 A 
ATOM     11  C   UNL     1     112.141 124.699 136.303  0.00  0.00    +0.000 A 
ATOM     12  C   UNL     1     111.558 125.226 136.048  0.00  0.00    +0.000 A 
ENDROOT
BRANCH   4  14
ATOM     13  O   UNL     1     114.457 129.698 134.969  0.00  0.00    +0.000 OA
ATOM     14  C   UNL     1     113.562 128.265 136.350  0.00  0.00    +0.000 A 
ATOM     15  C   UNL     1     113.929 128.578 135.681  0.00  0.00    +0.000 A 
ATOM     16  C   UNL     1     113.356 128.760 136.977  0.00  0.00    +0.000 A 
ATOM     17  C   UNL     1     114.090 129.385 135.638  0.00  0.00    +0.000 A 
ATOM     18  C   UNL     1     113.517 129.569 136.934  0.00  0.00    +0.000 A 
ATOM     19  C   UNL     1     113.884 129.881 136.266  0.00  0.00    +0.000 A 
BRANCH  19  20
ATOM     20  O   UNL     1     114.046 130.688 136.222  0.00  0.00    +0.000 OA
ATOM     21  C   UNL     1     113.772 131.195 136.812  0.00  0.00    +0.000 C 
ENDBRANCH  19  20
ENDBRANCH   4  14
BRANCH  11  22
ATOM     22  O   UNL     1     111.976 123.891 136.344  0.00  0.00    +0.000 OA
ATOM     23  C   UNL     1     111.845 123.534 137.075  0.00  0.00    +0.000 C 
ENDBRANCH  11  22
BRANCH  12  24
ATOM     24  O   UNL     1     110.812 124.944 135.834  0.00  0.00    +0.000 OA
ATOM     25  C   UNL     1     110.310 125.413 135.378  0.00  0.00    +0.000 C 
ENDBRANCH  12  24
TORSDOF 4
ENDMDL
MODEL 7
REMARK VINA RESULT:      -7.6      6.214      8.672
REMARK  Name = 13871373
REMARK  4 active torsions:
REMARK  status: ('A' for Active; 'I' for Inactive)
REMARK    1  A    between atoms: O_4  and  C_18
REMARK    2  A    between atoms: O_5  and  C_19
REMARK    3  A    between atoms: O_6  and  C_22
REMARK    4  A    between atoms: C_8  and  C_11
REMARK                            x       y       z     vdW  Elec       q    Type
REMARK                         _______ _______ _______ _____ _____    ______ ____
ROOT
ATOM      1  O   UNL     1     102.912 131.897 141.202  0.00  0.00    +0.000 OA
ATOM      2  O   UNL     1     100.712 132.114 142.435  0.00  0.00    +0.000 OA
ATOM      3  O   UNL     1     100.759 133.541 142.220  0.00  0.00    +0.000 OA
ATOM      4  C   UNL     1     102.532 131.191 141.512  0.00  0.00    +0.000 C 
ATOM      5  C   UNL     1     101.784 131.262 141.932  0.00  0.00    +0.000 C 
ATOM      6  C   UNL     1     101.823 132.731 141.717  0.00  0.00    +0.000 A 
ATOM      7  C   UNL     1     101.429 132.037 142.034  0.00  0.00    +0.000 C 
ATOM      8  C   UNL     1     102.541 132.663 141.314  0.00  0.00    +0.000 A 
ATOM      9  C   UNL     1     101.476 133.473 141.818  0.00  0.00    +0.000 A 
ATOM     10  C   UNL     1     102.910 133.337 141.014  0.00  0.00    +0.000 A 
ATOM     11  C   UNL     1     101.845 134.146 141.518  0.00  0.00    +0.000 A 
ATOM     12  C   UNL     1     102.563 134.078 141.115  0.00  0.00    +0.000 A 
ENDROOT
BRANCH   4  14
ATOM     13  O   UNL     1     102.920 128.835 139.942  0.00  0.00    +0.000 OA
ATOM     14  C   UNL     1     102.881 130.451 141.409  0.00  0.00    +0.000 A 
ATOM     15  C   UNL     1     102.726 130.013 140.728  0.00  0.00    +0.000 A 
ATOM     16  C   UNL     1     103.386 130.149 141.988  0.00  0.00    +0.000 A 
ATOM     17  C   UNL     1     103.075 129.273 140.624  0.00  0.00    +0.000 A 
ATOM     18  C   UNL     1     103.735 129.408 141.884  0.00  0.00    +0.000 A 
ATOM     19  C   UNL     1     103.580 128.971 141.203  0.00  0.00    +0.000 A 
BRANCH  19  20
ATOM     20  O   UNL     1     103.929 128.231 141.099  0.00  0.00    +0.000 OA
ATOM     21  C   UNL     1     104.546 127.994 141.592  0.00  0.00    +0.000 C 
ENDBRANCH  19  20
ENDBRANCH   4  14
BRANCH  11  22
ATOM     22  O   UNL     1     101.499 134.888 141.619  0.00  0.00    +0.000 OA
ATOM     23  C   UNL     1     101.608 135.302 142.324  0.00  0.00    +0.000 C 
ENDBRANCH  11  22
BRANCH  12  24
ATOM     24  O   UNL     1     102.933 134.752 140.815  0.00  0.00    +0.000 OA
ATOM     25  C   UNL     1     103.506 134.680 140.226  0.00  0.00    +0.000 C 
ENDBRANCH  12  24
TORSDOF 4
ENDMDL
MODEL 8
REMARK VINA RESULT:      -7.6      7.191      9.030
REMARK  Name = 13871373
REMARK  4 active torsions:
REMARK  status: ('A' for Active; 'I' for Inactive)
REMARK    1  A    between atoms: O_4  and  C_18
REMARK    2  A    between atoms: O_5  and  C_19
REMARK    3  A    between atoms: O_6  and  C_22
REMARK    4  A    between atoms: C_8  and  C_11
REMARK                            x       y       z     vdW  Elec       q    Type
REMARK                         _______ _______ _______ _____ _____    ______ ____
ROOT
ATOM      1  O   UNL     1     112.081 126.707 137.477  0.00  0.00    +0.000 OA
ATOM      2  O   UNL     1     111.504 124.282 137.029  0.00  0.00    +0.000 OA
ATOM      3  O   UNL     1     110.947 124.674 135.757  0.00  0.00    +0.000 OA
ATOM      4  C   UNL     1     112.277 126.111 138.065  0.00  0.00    +0.000 C 
ATOM      5  C   UNL     1     112.082 125.287 137.916  0.00  0.00    +0.000 C 
ATOM      6  C   UNL     1     111.506 125.679 136.604  0.00  0.00    +0.000 A 
ATOM      7  C   UNL     1     111.694 125.071 137.180  0.00  0.00    +0.000 C 
ATOM      8  C   UNL     1     111.693 126.470 136.748  0.00  0.00    +0.000 A 
ATOM      9  C   UNL     1     111.134 125.464 135.900  0.00  0.00    +0.000 A 
ATOM     10  C   UNL     1     111.508 127.046 136.186  0.00  0.00    +0.000 A 
ATOM     11  C   UNL     1     110.948 126.040 135.339  0.00  0.00    +0.000 A 
ATOM     12  C   UNL     1     111.135 126.831 135.482  0.00  0.00    +0.000 A 
ENDROOT
BRANCH   4  14
ATOM     13  O   UNL     1     112.124 126.816 140.830  0.00  0.00    +0.000 OA
ATOM     14  C   UNL     1     112.649 126.329 138.768  0.00  0.00    +0.000 A 
ATOM     15  C   UNL     1     112.201 126.464 139.448  0.00  0.00    +0.000 A 
ATOM     16  C   UNL     1     113.470 126.412 138.792  0.00  0.00    +0.000 A 
ATOM     17  C   UNL     1     112.572 126.681 140.151  0.00  0.00    +0.000 A 
ATOM     18  C   UNL     1     113.841 126.630 139.496  0.00  0.00    +0.000 A 
ATOM     19  C   UNL     1     113.394 126.764 140.175  0.00  0.00    +0.000 A 
BRANCH  19  20
ATOM     20  O   UNL     1     113.765 126.982 140.879  0.00  0.00    +0.000 OA
ATOM     21  C   UNL     1     114.574 127.143 140.884  0.00  0.00    +0.000 C 
ENDBRANCH  19  20
ENDBRANCH   4  14
BRANCH  11  22
ATOM     22  O   UNL     1     110.576 125.825 134.635  0.00  0.00    +0.000 OA
ATOM     23  C   UNL     1     109.757 125.732 134.612  0.00  0.00    +0.000 C 
ENDBRANCH  11  22
BRANCH  12  24
ATOM     24  O   UNL     1     110.950 127.407 134.921  0.00  0.00    +0.000 OA
ATOM     25  C   UNL     1     111.259 128.168 134.993  0.00  0.00    +0.000 C 
ENDBRANCH  12  24
TORSDOF 4
ENDMDL
MODEL 9
REMARK VINA RESULT:      -7.5      6.384      8.246
REMARK  Name = 13871373
REMARK  4 active torsions:
REMARK  status: ('A' for Active; 'I' for Inactive)
REMARK    1  A    between atoms: O_4  and  C_18
REMARK    2  A    between atoms: O_5  and  C_19
REMARK    3  A    between atoms: O_6  and  C_22
REMARK    4  A    between atoms: C_8  and  C_11
REMARK                            x       y       z     vdW  Elec       q    Type
REMARK                         _______ _______ _______ _____ _____    ______ ____
ROOT
ATOM      1  O   UNL     1     103.389 124.519 146.197  0.00  0.00    +0.000 OA
ATOM      2  O   UNL     1     103.283 124.824 148.708  0.00  0.00    +0.000 OA
ATOM      3  O   UNL     1     101.999 124.164 148.711  0.00  0.00    +0.000 OA
ATOM      4  C   UNL     1     104.038 124.911 146.602  0.00  0.00    +0.000 C 
ATOM      5  C   UNL     1     104.005 125.016 147.455  0.00  0.00    +0.000 C 
ATOM      6  C   UNL     1     102.684 124.338 147.469  0.00  0.00    +0.000 A 
ATOM      7  C   UNL     1     103.323 124.727 147.890  0.00  0.00    +0.000 C 
ATOM      8  C   UNL     1     102.716 124.237 146.650  0.00  0.00    +0.000 A 
ATOM      9  C   UNL     1     102.031 124.064 147.893  0.00  0.00    +0.000 A 
ATOM     10  C   UNL     1     102.095 123.862 146.257  0.00  0.00    +0.000 A 
ATOM     11  C   UNL     1     101.411 123.688 147.500  0.00  0.00    +0.000 A 
ATOM     12  C   UNL     1     101.443 123.587 146.680  0.00  0.00    +0.000 A 
ENDROOT
BRANCH   4  14
ATOM     13  O   UNL     1     106.404 124.383 145.089  0.00  0.00    +0.000 OA
ATOM     14  C   UNL     1     104.689 125.184 146.175  0.00  0.00    +0.000 A 
ATOM     15  C   UNL     1     105.222 124.647 145.845  0.00  0.00    +0.000 A 
ATOM     16  C   UNL     1     104.808 125.995 146.078  0.00  0.00    +0.000 A 
ATOM     17  C   UNL     1     105.872 124.920 145.419  0.00  0.00    +0.000 A 
ATOM     18  C   UNL     1     105.460 126.268 145.651  0.00  0.00    +0.000 A 
ATOM     19  C   UNL     1     105.991 125.732 145.322  0.00  0.00    +0.000 A 
BRANCH  19  20
ATOM     20  O   UNL     1     106.642 126.004 144.895  0.00  0.00    +0.000 OA
ATOM     21  C   UNL     1     106.665 126.786 144.634  0.00  0.00    +0.000 C 
ENDBRANCH  19  20
ENDBRANCH   4  14
BRANCH  11  22
ATOM     22  O   UNL     1     100.759 123.413 147.923  0.00  0.00    +0.000 OA
ATOM     23  C   UNL     1     100.825 122.739 148.393  0.00  0.00    +0.000 C 
ENDBRANCH  11  22
BRANCH  12  24
ATOM     24  O   UNL     1     100.823 123.212 146.287  0.00  0.00    +0.000 OA
ATOM     25  C   UNL     1     100.866 123.089 145.472  0.00  0.00    +0.000 C 
ENDBRANCH  12  24
TORSDOF 4
ENDMDL
MODEL 10
REMARK VINA RESULT:      -7.5      5.908      7.073
REMARK  Name = 13871373
REMARK  4 active torsions:
REMARK  status: ('A' for Active; 'I' for Inactive)
REMARK    1  A    between atoms: O_4  and  C_18
REMARK    2  A    between atoms: O_5  and  C_19
REMARK    3  A    between atoms: O_6  and  C_22
REMARK    4  A    between atoms: C_8  and  C_11
REMARK                            x       y       z     vdW  Elec       q    Type
REMARK                         _______ _______ _______ _____ _____    ______ ____
ROOT
ATOM      1  O   UNL     1     104.355 124.683 145.905  0.00  0.00    +0.000 OA
ATOM      2  O   UNL     1     105.395 124.492 148.205  0.00  0.00    +0.000 OA
ATOM      3  O   UNL     1     106.552 125.202 147.716  0.00  0.00    +0.000 OA
ATOM      4  C   UNL     1     103.922 124.283 146.531  0.00  0.00    +0.000 C 
ATOM      5  C   UNL     1     104.273 124.217 147.313  0.00  0.00    +0.000 C 
ATOM      6  C   UNL     1     105.469 124.947 146.820  0.00  0.00    +0.000 A 
ATOM      7  C   UNL     1     105.051 124.551 147.457  0.00  0.00    +0.000 C 
ATOM      8  C   UNL     1     105.132 125.011 146.069  0.00  0.00    +0.000 A 
ATOM      9  C   UNL     1     106.216 125.266 146.965  0.00  0.00    +0.000 A 
ATOM     10  C   UNL     1     105.542 125.394 145.464  0.00  0.00    +0.000 A 
ATOM     11  C   UNL     1     106.626 125.649 146.361  0.00  0.00    +0.000 A 
ATOM     12  C   UNL     1     106.289 125.712 145.610  0.00  0.00    +0.000 A 
ENDROOT
BRANCH   4  14
ATOM     13  O   UNL     1     101.099 124.287 146.972  0.00  0.00    +0.000 OA
ATOM     14  C   UNL     1     103.176 123.965 146.382  0.00  0.00    +0.000 A 
ATOM     15  C   UNL     1     102.510 124.285 146.751  0.00  0.00    +0.000 A 
ATOM     16  C   UNL     1     103.094 123.327 145.865  0.00  0.00    +0.000 A 
ATOM     17  C   UNL     1     101.764 123.967 146.603  0.00  0.00    +0.000 A 
ATOM     18  C   UNL     1     102.347 123.010 145.717  0.00  0.00    +0.000 A 
ATOM     19  C   UNL     1     101.682 123.329 146.086  0.00  0.00    +0.000 A 
BRANCH  19  20
ATOM     20  O   UNL     1     100.935 123.012 145.938  0.00  0.00    +0.000 OA
ATOM     21  C   UNL     1     100.715 122.821 145.167  0.00  0.00    +0.000 C 
ENDBRANCH  19  20
ENDBRANCH   4  14
BRANCH  11  22
ATOM     22  O   UNL     1     107.373 125.968 146.506  0.00  0.00    +0.000 OA
ATOM     23  C   UNL     1     107.444 126.695 146.887  0.00  0.00    +0.000 C 
ENDBRANCH  11  22
BRANCH  12  24
ATOM     24  O   UNL     1     106.699 126.095 145.005  0.00  0.00    +0.000 OA
ATOM     25  C   UNL     1     106.385 126.116 144.242  0.00  0.00    +0.000 C 
ENDBRANCH  12  24
TORSDOF 4
ENDMDL
