MODEL 1
REMARK VINA RESULT:      -9.4      0.000      0.000
REMARK  Name = 42608082
REMARK  6 active torsions:
REMARK  status: ('A' for Active; 'I' for Inactive)
REMARK    1  A    between atoms: O_2  and  C_16
REMARK    2  A    between atoms: O_2  and  C_18
REMARK    3  A    between atoms: O_9  and  C_27
REMARK    4  A    between atoms: O_10  and  C_32
REMARK    5  A    between atoms: C_15  and  C_17
REMARK    6  A    between atoms: C_20  and  C_25
REMARK                            x       y       z     vdW  Elec       q    Type
REMARK                         _______ _______ _______ _____ _____    ______ ____
ROOT
ATOM      1  O   UNL     1     105.136 123.807 139.479  0.00  0.00    +0.000 OA
ATOM      2  O   UNL     1     104.935 126.145 140.264  0.00  0.00    +0.000 OA
ATOM      3  C   UNL     1     106.154 125.203 140.871  0.00  0.00    +0.000 A 
ATOM      4  C   UNL     1     105.603 124.882 140.294  0.00  0.00    +0.000 A 
ATOM      5  C   UNL     1     104.534 124.290 139.187  0.00  0.00    +0.000 C 
ATOM      6  C   UNL     1     104.467 125.070 139.448  0.00  0.00    +0.000 C 
ATOM      7  C   UNL     1     105.670 124.103 140.033  0.00  0.00    +0.000 A 
ATOM      8  C   UNL     1     105.002 125.366 140.002  0.00  0.00    +0.000 C 
ATOM      9  C   UNL     1     106.782 124.704 141.179  0.00  0.00    +0.000 A 
ATOM     10  C   UNL     1     106.292 123.590 140.329  0.00  0.00    +0.000 A 
ATOM     11  C   UNL     1     106.852 123.893 140.906  0.00  0.00    +0.000 A 
ENDROOT
BRANCH   5  13
ATOM     12  O   UNL     1     101.845 123.726 138.398  0.00  0.00    +0.000 OA
ATOM     13  C   UNL     1     103.999 123.993 138.632  0.00  0.00    +0.000 A 
ATOM     14  C   UNL     1     103.190 124.008 138.792  0.00  0.00    +0.000 A 
ATOM     15  C   UNL     1     104.273 123.682 137.919  0.00  0.00    +0.000 A 
ATOM     16  C   UNL     1     102.655 123.711 138.239  0.00  0.00    +0.000 A 
ATOM     17  C   UNL     1     103.738 123.385 137.366  0.00  0.00    +0.000 A 
ATOM     18  C   UNL     1     102.929 123.400 137.526  0.00  0.00    +0.000 A 
BRANCH  18  19
ATOM     19  O   UNL     1     102.394 123.103 136.972  0.00  0.00    +0.000 OA
ATOM     20  C   UNL     1     102.667 122.811 136.251  0.00  0.00    +0.000 C 
ENDBRANCH  18  19
ENDBRANCH   5  13
BRANCH  11  21
ATOM     21  O   UNL     1     107.452 123.407 141.197  0.00  0.00    +0.000 OA
ATOM     22  C   UNL     1     108.237 123.550 140.988  0.00  0.00    +0.000 C 
ENDBRANCH  11  21
BRANCH   3  23
ATOM     23  O   UNL     1     106.080 125.983 141.127  0.00  0.00    +0.000 OA
BRANCH  23  32
ATOM     24  O   UNL     1     106.007 125.836 142.547  0.00  0.00    +0.000 OA
ATOM     25  O   UNL     1     107.766 127.557 142.816  0.00  0.00    +0.000 OA
ATOM     26  O   UNL     1     107.106 126.835 144.146  0.00  0.00    +0.000 OA
ATOM     27  O   UNL     1     107.252 127.130 141.307  0.00  0.00    +0.000 OA
ATOM     28  C   UNL     1     107.179 126.983 142.726  0.00  0.00    +0.000 C 
ATOM     29  C   UNL     1     106.850 126.623 143.390  0.00  0.00    +0.000 C 
ATOM     30  C   UNL     1     106.923 126.770 141.971  0.00  0.00    +0.000 C 
ATOM     31  C   UNL     1     106.264 126.049 143.301  0.00  0.00    +0.000 C 
ATOM     32  C   UNL     1     106.337 126.196 141.881  0.00  0.00    +0.000 C 
BRANCH  31  34
ATOM     33  O   UNL     1     105.167 125.385 143.933  0.00  0.00    +0.000 OA
ATOM     34  C   UNL     1     105.934 125.688 143.966  0.00  0.00    +0.000 C 
ENDBRANCH  31  34
ENDBRANCH  23  32
ENDBRANCH   3  23
TORSDOF 6
ENDMDL
MODEL 2
REMARK VINA RESULT:      -9.2      6.920      8.740
REMARK  Name = 42608082
REMARK  6 active torsions:
REMARK  status: ('A' for Active; 'I' for Inactive)
REMARK    1  A    between atoms: O_2  and  C_16
REMARK    2  A    between atoms: O_2  and  C_18
REMARK    3  A    between atoms: O_9  and  C_27
REMARK    4  A    between atoms: O_10  and  C_32
REMARK    5  A    between atoms: C_15  and  C_17
REMARK    6  A    between atoms: C_20  and  C_25
REMARK                            x       y       z     vdW  Elec       q    Type
REMARK                         _______ _______ _______ _____ _____    ______ ____
ROOT
ATOM      1  O   UNL     1     112.424 127.761 138.064  0.00  0.00    +0.000 OA
ATOM      2  O   UNL     1     113.992 127.880 139.975  0.00  0.00    +0.000 OA
ATOM      3  C   UNL     1     113.485 129.291 139.272  0.00  0.00    +0.000 A 
ATOM      4  C   UNL     1     113.207 128.533 138.976  0.00  0.00    +0.000 A 
ATOM      5  C   UNL     1     112.687 127.067 138.427  0.00  0.00    +0.000 C 
ATOM      6  C   UNL     1     113.210 127.107 139.064  0.00  0.00    +0.000 C 
ATOM      7  C   UNL     1     112.684 128.494 138.339  0.00  0.00    +0.000 A 
ATOM      8  C   UNL     1     113.470 127.841 139.338  0.00  0.00    +0.000 C 
ATOM      9  C   UNL     1     113.215 130.016 138.898  0.00  0.00    +0.000 A 
ATOM     10  C   UNL     1     112.403 129.208 137.954  0.00  0.00    +0.000 A 
ATOM     11  C   UNL     1     112.670 129.974 138.235  0.00  0.00    +0.000 A 
ENDROOT
BRANCH   5  13
ATOM     12  O   UNL     1     110.855 124.878 138.572  0.00  0.00    +0.000 OA
ATOM     13  C   UNL     1     112.427 126.334 138.151  0.00  0.00    +0.000 A 
ATOM     14  C   UNL     1     111.771 125.973 138.499  0.00  0.00    +0.000 A 
ATOM     15  C   UNL     1     112.821 125.963 137.529  0.00  0.00    +0.000 A 
ATOM     16  C   UNL     1     111.510 125.240 138.224  0.00  0.00    +0.000 A 
ATOM     17  C   UNL     1     112.560 125.230 137.254  0.00  0.00    +0.000 A 
ATOM     18  C   UNL     1     111.904 124.868 137.602  0.00  0.00    +0.000 A 
BRANCH  18  19
ATOM     19  O   UNL     1     111.643 124.136 137.327  0.00  0.00    +0.000 OA
ATOM     20  C   UNL     1     111.993 123.798 136.660  0.00  0.00    +0.000 C 
ENDBRANCH  18  19
ENDBRANCH   5  13
BRANCH  11  21
ATOM     21  O   UNL     1     112.405 130.666 137.871  0.00  0.00    +0.000 OA
ATOM     22  C   UNL     1     112.816 130.977 137.226  0.00  0.00    +0.000 C 
ENDBRANCH  11  21
BRANCH   3  23
ATOM     23  O   UNL     1     114.007 129.322 139.909  0.00  0.00    +0.000 OA
BRANCH  23  32
ATOM     24  O   UNL     1     113.202 129.886 140.946  0.00  0.00    +0.000 OA
ATOM     25  O   UNL     1     114.970 131.556 141.409  0.00  0.00    +0.000 OA
ATOM     26  O   UNL     1     113.576 131.563 142.292  0.00  0.00    +0.000 OA
ATOM     27  O   UNL     1     115.185 130.435 140.217  0.00  0.00    +0.000 OA
ATOM     28  C   UNL     1     114.381 130.999 141.254  0.00  0.00    +0.000 C 
ATOM     29  C   UNL     1     113.684 131.003 141.696  0.00  0.00    +0.000 C 
ATOM     30  C   UNL     1     114.489 130.439 140.658  0.00  0.00    +0.000 C 
ATOM     31  C   UNL     1     113.095 130.447 141.541  0.00  0.00    +0.000 C 
ATOM     32  C   UNL     1     113.900 129.882 140.504  0.00  0.00    +0.000 C 
BRANCH  31  34
ATOM     33  O   UNL     1     112.067 129.739 142.237  0.00  0.00    +0.000 OA
ATOM     34  C   UNL     1     112.397 130.450 141.983  0.00  0.00    +0.000 C 
ENDBRANCH  31  34
ENDBRANCH  23  32
ENDBRANCH   3  23
TORSDOF 6
ENDMDL
MODEL 3
REMARK VINA RESULT:      -9.1      8.142      9.457
REMARK  Name = 42608082
REMARK  6 active torsions:
REMARK  status: ('A' for Active; 'I' for Inactive)
REMARK    1  A    between atoms: O_2  and  C_16
REMARK    2  A    between atoms: O_2  and  C_18
REMARK    3  A    between atoms: O_9  and  C_27
REMARK    4  A    between atoms: O_10  and  C_32
REMARK    5  A    between atoms: C_15  and  C_17
REMARK    6  A    between atoms: C_20  and  C_25
REMARK                            x       y       z     vdW  Elec       q    Type
REMARK                         _______ _______ _______ _____ _____    ______ ____
ROOT
ATOM      1  O   UNL     1     113.281 127.368 136.295  0.00  0.00    +0.000 OA
ATOM      2  O   UNL     1     111.860 128.539 137.948  0.00  0.00    +0.000 OA
ATOM      3  C   UNL     1     112.711 129.440 136.849  0.00  0.00    +0.000 A 
ATOM      4  C   UNL     1     112.764 128.582 136.842  0.00  0.00    +0.000 A 
ATOM      5  C   UNL     1     112.850 126.934 136.850  0.00  0.00    +0.000 C 
ATOM      6  C   UNL     1     112.376 127.325 137.401  0.00  0.00    +0.000 C 
ATOM      7  C   UNL     1     113.238 128.191 136.291  0.00  0.00    +0.000 A 
ATOM      8  C   UNL     1     112.334 128.149 137.397  0.00  0.00    +0.000 C 
ATOM      9  C   UNL     1     113.158 129.896 136.274  0.00  0.00    +0.000 A 
ATOM     10  C   UNL     1     113.692 128.631 135.709  0.00  0.00    +0.000 A 
ATOM     11  C   UNL     1     113.651 129.489 135.701  0.00  0.00    +0.000 A 
ENDROOT
BRANCH   5  13
ATOM     12  O   UNL     1     114.269 124.534 137.477  0.00  0.00    +0.000 OA
ATOM     13  C   UNL     1     112.894 126.110 136.852  0.00  0.00    +0.000 A 
ATOM     14  C   UNL     1     113.559 125.734 137.163  0.00  0.00    +0.000 A 
ATOM     15  C   UNL     1     112.273 125.662 136.545  0.00  0.00    +0.000 A 
ATOM     16  C   UNL     1     113.604 124.910 137.166  0.00  0.00    +0.000 A 
ATOM     17  C   UNL     1     112.317 124.839 136.549  0.00  0.00    +0.000 A 
ATOM     18  C   UNL     1     112.983 124.462 136.859  0.00  0.00    +0.000 A 
BRANCH  18  19
ATOM     19  O   UNL     1     113.027 123.639 136.862  0.00  0.00    +0.000 OA
ATOM     20  C   UNL     1     112.335 123.189 136.862  0.00  0.00    +0.000 C 
ENDBRANCH  18  19
ENDBRANCH   5  13
BRANCH  11  21
ATOM     21  O   UNL     1     114.084 129.919 135.145  0.00  0.00    +0.000 OA
ATOM     22  C   UNL     1     114.856 130.155 135.314  0.00  0.00    +0.000 C 
ENDBRANCH  11  21
BRANCH   3  23
ATOM     23  O   UNL     1     112.235 129.822 137.403  0.00  0.00    +0.000 OA
BRANCH  23  32
ATOM     24  O   UNL     1     111.154 130.241 136.568  0.00  0.00    +0.000 OA
ATOM     25  O   UNL     1     111.219 132.486 137.612  0.00  0.00    +0.000 OA
ATOM     26  O   UNL     1     110.116 132.157 136.429  0.00  0.00    +0.000 OA
ATOM     27  O   UNL     1     112.279 131.317 138.099  0.00  0.00    +0.000 OA
ATOM     28  C   UNL     1     111.197 131.737 137.264  0.00  0.00    +0.000 C 
ATOM     29  C   UNL     1     110.646 131.573 136.673  0.00  0.00    +0.000 C 
ATOM     30  C   UNL     1     111.728 131.153 137.508  0.00  0.00    +0.000 C 
ATOM     31  C   UNL     1     110.625 130.825 136.325  0.00  0.00    +0.000 C 
ATOM     32  C   UNL     1     111.706 130.406 137.160  0.00  0.00    +0.000 C 
BRANCH  31  34
ATOM     33  O   UNL     1     109.682 129.935 135.726  0.00  0.00    +0.000 OA
ATOM     34  C   UNL     1     110.073 130.661 135.734  0.00  0.00    +0.000 C 
ENDBRANCH  31  34
ENDBRANCH  23  32
ENDBRANCH   3  23
TORSDOF 6
ENDMDL
MODEL 4
REMARK VINA RESULT:      -9.0      4.566      5.977
REMARK  Name = 42608082
REMARK  6 active torsions:
REMARK  status: ('A' for Active; 'I' for Inactive)
REMARK    1  A    between atoms: O_2  and  C_16
REMARK    2  A    between atoms: O_2  and  C_18
REMARK    3  A    between atoms: O_9  and  C_27
REMARK    4  A    between atoms: O_10  and  C_32
REMARK    5  A    between atoms: C_15  and  C_17
REMARK    6  A    between atoms: C_20  and  C_25
REMARK                            x       y       z     vdW  Elec       q    Type
REMARK                         _______ _______ _______ _____ _____    ______ ____
ROOT
ATOM      1  O   UNL     1     105.432 126.585 143.993  0.00  0.00    +0.000 OA
ATOM      2  O   UNL     1     107.107 127.292 145.672  0.00  0.00    +0.000 OA
ATOM      3  C   UNL     1     106.483 125.761 145.765  0.00  0.00    +0.000 A 
ATOM      4  C   UNL     1     106.228 126.298 145.144  0.00  0.00    +0.000 A 
ATOM      5  C   UNL     1     105.753 127.345 143.961  0.00  0.00    +0.000 C 
ATOM      6  C   UNL     1     106.312 127.581 144.520  0.00  0.00    +0.000 C 
ATOM      7  C   UNL     1     105.669 126.062 144.584  0.00  0.00    +0.000 A 
ATOM      8  C   UNL     1     106.549 127.056 145.112  0.00  0.00    +0.000 C 
ATOM      9  C   UNL     1     106.152 124.969 145.803  0.00  0.00    +0.000 A 
ATOM     10  C   UNL     1     105.328 125.274 144.607  0.00  0.00    +0.000 A 
ATOM     11  C   UNL     1     105.571 124.724 145.220  0.00  0.00    +0.000 A 
ENDROOT
BRANCH   5  13
ATOM     12  O   UNL     1     106.022 128.361 141.303  0.00  0.00    +0.000 OA
ATOM     13  C   UNL     1     105.516 127.868 143.369  0.00  0.00    +0.000 A 
ATOM     14  C   UNL     1     105.887 127.854 142.632  0.00  0.00    +0.000 A 
ATOM     15  C   UNL     1     104.907 128.406 143.512  0.00  0.00    +0.000 A 
ATOM     16  C   UNL     1     105.650 128.376 142.040  0.00  0.00    +0.000 A 
ATOM     17  C   UNL     1     104.670 128.929 142.920  0.00  0.00    +0.000 A 
ATOM     18  C   UNL     1     105.041 128.914 142.183  0.00  0.00    +0.000 A 
BRANCH  18  19
ATOM     19  O   UNL     1     104.804 129.437 141.591  0.00  0.00    +0.000 OA
ATOM     20  C   UNL     1     104.182 129.961 141.729  0.00  0.00    +0.000 C 
ENDBRANCH  18  19
ENDBRANCH   5  13
BRANCH  11  21
ATOM     21  O   UNL     1     105.247 123.965 145.249  0.00  0.00    +0.000 OA
ATOM     22  C   UNL     1     104.465 123.858 145.487  0.00  0.00    +0.000 C 
ENDBRANCH  11  21
BRANCH   3  23
ATOM     23  O   UNL     1     107.041 126.005 146.320  0.00  0.00    +0.000 OA
BRANCH  23  32
ATOM     24  O   UNL     1     106.278 126.040 147.527  0.00  0.00    +0.000 OA
ATOM     25  O   UNL     1     108.024 124.708 148.671  0.00  0.00    +0.000 OA
ATOM     26  O   UNL     1     106.677 125.188 149.497  0.00  0.00    +0.000 OA
ATOM     27  O   UNL     1     108.205 125.117 147.082  0.00  0.00    +0.000 OA
ATOM     28  C   UNL     1     107.441 125.153 148.290  0.00  0.00    +0.000 C 
ATOM     29  C   UNL     1     106.769 125.392 148.703  0.00  0.00    +0.000 C 
ATOM     30  C   UNL     1     107.533 125.357 147.495  0.00  0.00    +0.000 C 
ATOM     31  C   UNL     1     106.187 125.836 148.321  0.00  0.00    +0.000 C 
ATOM     32  C   UNL     1     106.951 125.800 147.114  0.00  0.00    +0.000 C 
BRANCH  31  34
ATOM     33  O   UNL     1     105.196 126.826 148.604  0.00  0.00    +0.000 OA
ATOM     34  C   UNL     1     105.514 126.076 148.735  0.00  0.00    +0.000 C 
ENDBRANCH  31  34
ENDBRANCH  23  32
ENDBRANCH   3  23
TORSDOF 6
ENDMDL
MODEL 5
REMARK VINA RESULT:      -8.9      3.298      6.606
REMARK  Name = 42608082
REMARK  6 active torsions:
REMARK  status: ('A' for Active; 'I' for Inactive)
REMARK    1  A    between atoms: O_2  and  C_16
REMARK    2  A    between atoms: O_2  and  C_18
REMARK    3  A    between atoms: O_9  and  C_27
REMARK    4  A    between atoms: O_10  and  C_32
REMARK    5  A    between atoms: C_15  and  C_17
REMARK    6  A    between atoms: C_20  and  C_25
REMARK                            x       y       z     vdW  Elec       q    Type
REMARK                         _______ _______ _______ _____ _____    ______ ____
ROOT
ATOM      1  O   UNL     1     106.361 125.079 145.367  0.00  0.00    +0.000 OA
ATOM      2  O   UNL     1     105.597 127.415 145.069  0.00  0.00    +0.000 OA
ATOM      3  C   UNL     1     105.758 126.452 143.731  0.00  0.00    +0.000 A 
ATOM      4  C   UNL     1     105.937 126.143 144.513  0.00  0.00    +0.000 A 
ATOM      5  C   UNL     1     106.275 125.573 146.023  0.00  0.00    +0.000 C 
ATOM      6  C   UNL     1     106.021 126.351 145.924  0.00  0.00    +0.000 C 
ATOM      7  C   UNL     1     106.192 125.364 144.612  0.00  0.00    +0.000 A 
ATOM      8  C   UNL     1     105.852 126.636 145.168  0.00  0.00    +0.000 C 
ATOM      9  C   UNL     1     105.845 125.943 143.044  0.00  0.00    +0.000 A 
ATOM     10  C   UNL     1     106.285 124.841 143.937  0.00  0.00    +0.000 A 
ATOM     11  C   UNL     1     106.110 125.132 143.148  0.00  0.00    +0.000 A 
ENDROOT
BRANCH   5  13
ATOM     12  O   UNL     1     105.413 124.334 148.450  0.00  0.00    +0.000 OA
ATOM     13  C   UNL     1     106.445 125.286 146.779  0.00  0.00    +0.000 A 
ATOM     14  C   UNL     1     105.844 124.953 147.237  0.00  0.00    +0.000 A 
ATOM     15  C   UNL     1     107.213 125.333 147.076  0.00  0.00    +0.000 A 
ATOM     16  C   UNL     1     106.013 124.667 147.992  0.00  0.00    +0.000 A 
ATOM     17  C   UNL     1     107.381 125.047 147.831  0.00  0.00    +0.000 A 
ATOM     18  C   UNL     1     106.781 124.714 148.290  0.00  0.00    +0.000 A 
BRANCH  18  19
ATOM     19  O   UNL     1     106.949 124.428 149.045  0.00  0.00    +0.000 OA
ATOM     20  C   UNL     1     107.724 124.444 149.328  0.00  0.00    +0.000 C 
ENDBRANCH  18  19
ENDBRANCH   5  13
BRANCH  11  21
ATOM     21  O   UNL     1     106.197 124.636 142.494  0.00  0.00    +0.000 OA
ATOM     22  C   UNL     1     105.549 124.216 142.205  0.00  0.00    +0.000 C 
ENDBRANCH  11  21
BRANCH   3  23
ATOM     23  O   UNL     1     105.504 127.231 143.641  0.00  0.00    +0.000 OA
BRANCH  23  32
ATOM     24  O   UNL     1     106.650 127.820 143.022  0.00  0.00    +0.000 OA
ATOM     25  O   UNL     1     105.186 128.908 141.348  0.00  0.00    +0.000 OA
ATOM     26  O   UNL     1     106.820 129.134 141.288  0.00  0.00    +0.000 OA
ATOM     27  O   UNL     1     104.529 127.956 142.525  0.00  0.00    +0.000 OA
ATOM     28  C   UNL     1     105.675 128.545 141.906  0.00  0.00    +0.000 C 
ATOM     29  C   UNL     1     106.491 128.658 141.876  0.00  0.00    +0.000 C 
ATOM     30  C   UNL     1     105.345 128.069 142.494  0.00  0.00    +0.000 C 
ATOM     31  C   UNL     1     106.978 128.296 142.434  0.00  0.00    +0.000 C 
ATOM     32  C   UNL     1     105.833 127.707 143.052  0.00  0.00    +0.000 C 
BRANCH  31  34
ATOM     33  O   UNL     1     108.251 128.304 143.083  0.00  0.00    +0.000 OA
ATOM     34  C   UNL     1     107.796 128.409 142.404  0.00  0.00    +0.000 C 
ENDBRANCH  31  34
ENDBRANCH  23  32
ENDBRANCH   3  23
TORSDOF 6
ENDMDL
MODEL 6
REMARK VINA RESULT:      -8.9      7.414      8.725
REMARK  Name = 42608082
REMARK  6 active torsions:
REMARK  status: ('A' for Active; 'I' for Inactive)
REMARK    1  A    between atoms: O_2  and  C_16
REMARK    2  A    between atoms: O_2  and  C_18
REMARK    3  A    between atoms: O_9  and  C_27
REMARK    4  A    between atoms: O_10  and  C_32
REMARK    5  A    between atoms: C_15  and  C_17
REMARK    6  A    between atoms: C_20  and  C_25
REMARK                            x       y       z     vdW  Elec       q    Type
REMARK                         _______ _______ _______ _____ _____    ______ ____
ROOT
ATOM      1  O   UNL     1     110.844 128.993 137.058  0.00  0.00    +0.000 OA
ATOM      2  O   UNL     1     112.047 127.660 135.354  0.00  0.00    +0.000 OA
ATOM      3  C   UNL     1     112.499 127.518 136.941  0.00  0.00    +0.000 A 
ATOM      4  C   UNL     1     111.858 128.046 136.717  0.00  0.00    +0.000 A 
ATOM      5  C   UNL     1     110.632 129.051 136.263  0.00  0.00    +0.000 C 
ATOM      6  C   UNL     1     111.033 128.607 135.695  0.00  0.00    +0.000 C 
ATOM      7  C   UNL     1     111.458 128.490 137.286  0.00  0.00    +0.000 A 
ATOM      8  C   UNL     1     111.647 128.104 135.923  0.00  0.00    +0.000 C 
ATOM      9  C   UNL     1     112.725 127.454 137.768  0.00  0.00    +0.000 A 
ATOM     10  C   UNL     1     111.669 128.438 138.116  0.00  0.00    +0.000 A 
ATOM     11  C   UNL     1     112.307 127.916 138.359  0.00  0.00    +0.000 A 
ENDROOT
BRANCH   5  13
ATOM     12  O   UNL     1     107.836 129.563 135.961  0.00  0.00    +0.000 OA
ATOM     13  C   UNL     1     110.018 129.554 136.036  0.00  0.00    +0.000 A 
ATOM     14  C   UNL     1     109.234 129.308 136.112  0.00  0.00    +0.000 A 
ATOM     15  C   UNL     1     110.188 130.303 135.734  0.00  0.00    +0.000 A 
ATOM     16  C   UNL     1     108.620 129.810 135.886  0.00  0.00    +0.000 A 
ATOM     17  C   UNL     1     109.574 130.805 135.508  0.00  0.00    +0.000 A 
ATOM     18  C   UNL     1     108.790 130.559 135.584  0.00  0.00    +0.000 A 
BRANCH  18  19
ATOM     19  O   UNL     1     108.176 131.061 135.358  0.00  0.00    +0.000 OA
ATOM     20  C   UNL     1     108.340 131.837 135.131  0.00  0.00    +0.000 C 
ENDBRANCH  18  19
ENDBRANCH   5  13
BRANCH  11  21
ATOM     21  O   UNL     1     112.517 127.860 139.155  0.00  0.00    +0.000 OA
ATOM     22  C   UNL     1     113.084 128.370 139.470  0.00  0.00    +0.000 C 
ENDBRANCH  11  21
BRANCH   3  23
ATOM     23  O   UNL     1     112.894 127.079 136.367  0.00  0.00    +0.000 OA
BRANCH  23  32
ATOM     24  O   UNL     1     112.405 125.758 136.610  0.00  0.00    +0.000 OA
ATOM     25  O   UNL     1     114.726 124.897 136.608  0.00  0.00    +0.000 OA
ATOM     26  O   UNL     1     113.461 123.864 136.851  0.00  0.00    +0.000 OA
ATOM     27  O   UNL     1     114.441 126.504 136.366  0.00  0.00    +0.000 OA
ATOM     28  C   UNL     1     113.951 125.184 136.608  0.00  0.00    +0.000 C 
ATOM     29  C   UNL     1     113.320 124.668 136.730  0.00  0.00    +0.000 C 
ATOM     30  C   UNL     1     113.810 125.988 136.487  0.00  0.00    +0.000 C 
ATOM     31  C   UNL     1     112.547 124.955 136.731  0.00  0.00    +0.000 C 
ATOM     32  C   UNL     1     113.037 126.275 136.488  0.00  0.00    +0.000 C 
BRANCH  31  34
ATOM     33  O   UNL     1     111.210 124.544 136.437  0.00  0.00    +0.000 OA
ATOM     34  C   UNL     1     111.915 124.438 136.853  0.00  0.00    +0.000 C 
ENDBRANCH  31  34
ENDBRANCH  23  32
ENDBRANCH   3  23
TORSDOF 6
ENDMDL
MODEL 7
REMARK VINA RESULT:      -8.9      6.839      9.922
REMARK  Name = 42608082
REMARK  6 active torsions:
REMARK  status: ('A' for Active; 'I' for Inactive)
REMARK    1  A    between atoms: O_2  and  C_16
REMARK    2  A    between atoms: O_2  and  C_18
REMARK    3  A    between atoms: O_9  and  C_27
REMARK    4  A    between atoms: O_10  and  C_32
REMARK    5  A    between atoms: C_15  and  C_17
REMARK    6  A    between atoms: C_20  and  C_25
REMARK                            x       y       z     vdW  Elec       q    Type
REMARK                         _______ _______ _______ _____ _____    ______ ____
ROOT
ATOM      1  O   UNL     1     113.043 129.151 139.146  0.00  0.00    +0.000 OA
ATOM      2  O   UNL     1     113.712 126.832 139.694  0.00  0.00    +0.000 OA
ATOM      3  C   UNL     1     113.357 127.208 138.121  0.00  0.00    +0.000 A 
ATOM      4  C   UNL     1     113.309 127.810 138.733  0.00  0.00    +0.000 A 
ATOM      5  C   UNL     1     113.224 128.947 139.925  0.00  0.00    +0.000 C 
ATOM      6  C   UNL     1     113.447 128.174 140.108  0.00  0.00    +0.000 C 
ATOM      7  C   UNL     1     113.086 128.583 138.550  0.00  0.00    +0.000 A 
ATOM      8  C   UNL     1     113.489 127.605 139.511  0.00  0.00    +0.000 C 
ATOM      9  C   UNL     1     113.170 127.415 137.308  0.00  0.00    +0.000 A 
ATOM     10  C   UNL     1     112.895 128.807 137.744  0.00  0.00    +0.000 A 
ATOM     11  C   UNL     1     112.937 128.220 137.118  0.00  0.00    +0.000 A 
ENDROOT
BRANCH   5  13
ATOM     12  O   UNL     1     114.389 131.142 141.337  0.00  0.00    +0.000 OA
ATOM     13  C   UNL     1     113.181 129.516 140.521  0.00  0.00    +0.000 A 
ATOM     14  C   UNL     1     113.806 130.044 140.632  0.00  0.00    +0.000 A 
ATOM     15  C   UNL     1     112.515 129.558 141.006  0.00  0.00    +0.000 A 
ATOM     16  C   UNL     1     113.764 130.614 141.227  0.00  0.00    +0.000 A 
ATOM     17  C   UNL     1     112.474 130.127 141.601  0.00  0.00    +0.000 A 
ATOM     18  C   UNL     1     113.098 130.655 141.712  0.00  0.00    +0.000 A 
BRANCH  18  19
ATOM     19  O   UNL     1     113.056 131.225 142.307  0.00  0.00    +0.000 OA
ATOM     20  C   UNL     1     112.375 131.291 142.767  0.00  0.00    +0.000 C 
ENDBRANCH  18  19
ENDBRANCH   5  13
BRANCH  11  21
ATOM     21  O   UNL     1     112.756 128.428 136.341  0.00  0.00    +0.000 OA
ATOM     22  C   UNL     1     113.344 128.727 135.845  0.00  0.00    +0.000 C 
ENDBRANCH  11  21
BRANCH   3  23
ATOM     23  O   UNL     1     113.580 126.438 138.312  0.00  0.00    +0.000 OA
BRANCH  23  32
ATOM     24  O   UNL     1     112.364 125.716 138.111  0.00  0.00    +0.000 OA
ATOM     25  O   UNL     1     113.584 124.038 136.759  0.00  0.00    +0.000 OA
ATOM     26  O   UNL     1     111.960 123.875 137.009  0.00  0.00    +0.000 OA
ATOM     27  O   UNL     1     114.393 125.320 137.411  0.00  0.00    +0.000 OA
ATOM     28  C   UNL     1     113.177 124.598 137.210  0.00  0.00    +0.000 C 
ATOM     29  C   UNL     1     112.366 124.516 137.334  0.00  0.00    +0.000 C 
ATOM     30  C   UNL     1     113.582 125.238 137.536  0.00  0.00    +0.000 C 
ATOM     31  C   UNL     1     111.959 125.075 137.785  0.00  0.00    +0.000 C 
ATOM     32  C   UNL     1     113.176 125.797 137.986  0.00  0.00    +0.000 C 
BRANCH  31  34
ATOM     33  O   UNL     1     110.829 125.136 138.657  0.00  0.00    +0.000 OA
ATOM     34  C   UNL     1     111.147 124.993 137.910  0.00  0.00    +0.000 C 
ENDBRANCH  31  34
ENDBRANCH  23  32
ENDBRANCH   3  23
TORSDOF 6
ENDMDL
MODEL 8
REMARK VINA RESULT:      -8.9      7.021      8.413
REMARK  Name = 42608082
REMARK  6 active torsions:
REMARK  status: ('A' for Active; 'I' for Inactive)
REMARK    1  A    between atoms: O_2  and  C_16
REMARK    2  A    between atoms: O_2  and  C_18
REMARK    3  A    between atoms: O_9  and  C_27
REMARK    4  A    between atoms: O_10  and  C_32
REMARK    5  A    between atoms: C_15  and  C_17
REMARK    6  A    between atoms: C_20  and  C_25
REMARK                            x       y       z     vdW  Elec       q    Type
REMARK                         _______ _______ _______ _____ _____    ______ ____
ROOT
ATOM      1  O   UNL     1     110.708 129.449 135.837  0.00  0.00    +0.000 OA
ATOM      2  O   UNL     1     109.680 127.217 135.544  0.00  0.00    +0.000 OA
ATOM      3  C   UNL     1     111.296 127.310 135.892  0.00  0.00    +0.000 A 
ATOM      4  C   UNL     1     110.826 128.026 135.815  0.00  0.00    +0.000 A 
ATOM      5  C   UNL     1     109.904 129.385 135.663  0.00  0.00    +0.000 C 
ATOM      6  C   UNL     1     109.561 128.641 135.565  0.00  0.00    +0.000 C 
ATOM      7  C   UNL     1     111.169 128.770 135.913  0.00  0.00    +0.000 A 
ATOM      8  C   UNL     1     110.023 127.961 135.641  0.00  0.00    +0.000 C 
ATOM      9  C   UNL     1     112.134 127.371 136.073  0.00  0.00    +0.000 A 
ATOM     10  C   UNL     1     112.005 128.849 136.094  0.00  0.00    +0.000 A 
ATOM     11  C   UNL     1     112.491 128.145 136.175  0.00  0.00    +0.000 A 
ENDROOT
BRANCH   5  13
ATOM     12  O   UNL     1     108.069 131.268 136.783  0.00  0.00    +0.000 OA
ATOM     13  C   UNL     1     109.443 130.065 135.587  0.00  0.00    +0.000 A 
ATOM     14  C   UNL     1     108.987 130.327 136.222  0.00  0.00    +0.000 A 
ATOM     15  C   UNL     1     109.439 130.485 134.876  0.00  0.00    +0.000 A 
ATOM     16  C   UNL     1     108.526 131.007 136.147  0.00  0.00    +0.000 A 
ATOM     17  C   UNL     1     108.979 131.164 134.801  0.00  0.00    +0.000 A 
ATOM     18  C   UNL     1     108.522 131.426 135.436  0.00  0.00    +0.000 A 
BRANCH  18  19
ATOM     19  O   UNL     1     108.061 132.106 135.361  0.00  0.00    +0.000 OA
ATOM     20  C   UNL     1     107.891 132.408 134.612  0.00  0.00    +0.000 C 
ENDBRANCH  18  19
ENDBRANCH   5  13
BRANCH  11  21
ATOM     21  O   UNL     1     113.294 128.213 136.349  0.00  0.00    +0.000 OA
ATOM     22  C   UNL     1     113.837 128.359 135.745  0.00  0.00    +0.000 C 
ENDBRANCH  11  21
BRANCH   3  23
ATOM     23  O   UNL     1     110.945 126.571 135.793  0.00  0.00    +0.000 OA
BRANCH  23  32
ATOM     24  O   UNL     1     110.949 126.100 137.142  0.00  0.00    +0.000 OA
ATOM     25  O   UNL     1     111.793 123.903 136.374  0.00  0.00    +0.000 OA
ATOM     26  O   UNL     1     111.516 124.166 137.980  0.00  0.00    +0.000 OA
ATOM     27  O   UNL     1     111.508 125.107 135.281  0.00  0.00    +0.000 OA
ATOM     28  C   UNL     1     111.512 124.636 136.630  0.00  0.00    +0.000 C 
ATOM     29  C   UNL     1     111.373 124.767 137.432  0.00  0.00    +0.000 C 
ATOM     30  C   UNL     1     111.369 125.237 136.083  0.00  0.00    +0.000 C 
ATOM     31  C   UNL     1     111.092 125.499 137.688  0.00  0.00    +0.000 C 
ATOM     32  C   UNL     1     111.088 125.969 136.339  0.00  0.00    +0.000 C 
BRANCH  31  34
ATOM     33  O   UNL     1     110.251 125.988 138.735  0.00  0.00    +0.000 OA
ATOM     34  C   UNL     1     110.953 125.630 138.492  0.00  0.00    +0.000 C 
ENDBRANCH  31  34
ENDBRANCH  23  32
ENDBRANCH   3  23
TORSDOF 6
ENDMDL
MODEL 9
REMARK VINA RESULT:      -8.8      6.885      8.288
REMARK  Name = 42608082
REMARK  6 active torsions:
REMARK  status: ('A' for Active; 'I' for Inactive)
REMARK    1  A    between atoms: O_2  and  C_16
REMARK    2  A    between atoms: O_2  and  C_18
REMARK    3  A    between atoms: O_9  and  C_27
REMARK    4  A    between atoms: O_10  and  C_32
REMARK    5  A    between atoms: C_15  and  C_17
REMARK    6  A    between atoms: C_20  and  C_25
REMARK                            x       y       z     vdW  Elec       q    Type
REMARK                         _______ _______ _______ _____ _____    ______ ____
ROOT
ATOM      1  O   UNL     1     111.558 127.498 136.463  0.00  0.00    +0.000 OA
ATOM      2  O   UNL     1     109.233 128.075 135.839  0.00  0.00    +0.000 OA
ATOM      3  C   UNL     1     110.382 129.267 135.819  0.00  0.00    +0.000 A 
ATOM      4  C   UNL     1     110.593 128.464 136.042  0.00  0.00    +0.000 A 
ATOM      5  C   UNL     1     110.972 126.916 136.467  0.00  0.00    +0.000 C 
ATOM      6  C   UNL     1     110.197 127.108 136.259  0.00  0.00    +0.000 C 
ATOM      7  C   UNL     1     111.368 128.272 136.250  0.00  0.00    +0.000 A 
ATOM      8  C   UNL     1     110.008 127.883 136.047  0.00  0.00    +0.000 C 
ATOM      9  C   UNL     1     110.987 129.877 135.812  0.00  0.00    +0.000 A 
ATOM     10  C   UNL     1     111.985 128.869 136.249  0.00  0.00    +0.000 A 
ATOM     11  C   UNL     1     111.794 129.677 136.029  0.00  0.00    +0.000 A 
ENDROOT
BRANCH   5  13
ATOM     12  O   UNL     1     111.216 124.889 138.467  0.00  0.00    +0.000 OA
ATOM     13  C   UNL     1     111.163 126.142 136.680  0.00  0.00    +0.000 A 
ATOM     14  C   UNL     1     111.095 125.902 137.467  0.00  0.00    +0.000 A 
ATOM     15  C   UNL     1     111.422 125.608 136.107  0.00  0.00    +0.000 A 
ATOM     16  C   UNL     1     111.285 125.129 137.680  0.00  0.00    +0.000 A 
ATOM     17  C   UNL     1     111.612 124.834 136.321  0.00  0.00    +0.000 A 
ATOM     18  C   UNL     1     111.544 124.594 137.108  0.00  0.00    +0.000 A 
BRANCH  18  19
ATOM     19  O   UNL     1     111.734 123.821 137.321  0.00  0.00    +0.000 OA
ATOM     20  C   UNL     1     112.273 123.390 136.870  0.00  0.00    +0.000 C 
ENDBRANCH  18  19
ENDBRANCH   5  13
BRANCH  11  21
ATOM     21  O   UNL     1     112.382 130.256 136.025  0.00  0.00    +0.000 OA
ATOM     22  C   UNL     1     112.701 130.526 136.736  0.00  0.00    +0.000 C 
ENDBRANCH  11  21
BRANCH   3  23
ATOM     23  O   UNL     1     109.606 129.451 135.612  0.00  0.00    +0.000 OA
BRANCH  23  32
ATOM     24  O   UNL     1     109.220 130.227 136.748  0.00  0.00    +0.000 OA
ATOM     25  O   UNL     1     108.188 131.906 135.249  0.00  0.00    +0.000 OA
ATOM     26  O   UNL     1     108.146 132.123 136.884  0.00  0.00    +0.000 OA
ATOM     27  O   UNL     1     108.918 130.569 134.613  0.00  0.00    +0.000 OA
ATOM     28  C   UNL     1     108.532 131.346 135.749  0.00  0.00    +0.000 C 
ATOM     29  C   UNL     1     108.511 131.455 136.566  0.00  0.00    +0.000 C 
ATOM     30  C   UNL     1     108.897 130.678 135.430  0.00  0.00    +0.000 C 
ATOM     31  C   UNL     1     108.855 130.896 137.065  0.00  0.00    +0.000 C 
ATOM     32  C   UNL     1     109.241 130.119 135.930  0.00  0.00    +0.000 C 
BRANCH  31  34
ATOM     33  O   UNL     1     108.680 130.364 138.380  0.00  0.00    +0.000 OA
ATOM     34  C   UNL     1     108.833 131.004 137.883  0.00  0.00    +0.000 C 
ENDBRANCH  31  34
ENDBRANCH  23  32
ENDBRANCH   3  23
TORSDOF 6
ENDMDL
MODEL 10
REMARK VINA RESULT:      -8.8      7.421      8.992
REMARK  Name = 42608082
REMARK  6 active torsions:
REMARK  status: ('A' for Active; 'I' for Inactive)
REMARK    1  A    between atoms: O_2  and  C_16
REMARK    2  A    between atoms: O_2  and  C_18
REMARK    3  A    between atoms: O_9  and  C_27
REMARK    4  A    between atoms: O_10  and  C_32
REMARK    5  A    between atoms: C_15  and  C_17
REMARK    6  A    between atoms: C_20  and  C_25
REMARK                            x       y       z     vdW  Elec       q    Type
REMARK                         _______ _______ _______ _____ _____    ______ ____
ROOT
ATOM      1  O   UNL     1     112.033 127.930 136.235  0.00  0.00    +0.000 OA
ATOM      2  O   UNL     1     112.306 129.568 138.070  0.00  0.00    +0.000 OA
ATOM      3  C   UNL     1     111.449 130.014 136.724  0.00  0.00    +0.000 A 
ATOM      4  C   UNL     1     111.791 129.227 136.781  0.00  0.00    +0.000 A 
ATOM      5  C   UNL     1     112.457 127.724 136.912  0.00  0.00    +0.000 C 
ATOM      6  C   UNL     1     112.548 128.270 137.524  0.00  0.00    +0.000 C 
ATOM      7  C   UNL     1     111.700 128.681 136.169  0.00  0.00    +0.000 A 
ATOM      8  C   UNL     1     112.215 129.022 137.458  0.00  0.00    +0.000 C 
ATOM      9  C   UNL     1     111.006 130.234 136.021  0.00  0.00    +0.000 A 
ATOM     10  C   UNL     1     111.261 128.884 135.459  0.00  0.00    +0.000 A 
ATOM     11  C   UNL     1     110.912 129.665 135.385  0.00  0.00    +0.000 A 
ENDROOT
BRANCH   5  13
ATOM     12  O   UNL     1     112.211 124.961 137.599  0.00  0.00    +0.000 OA
ATOM     13  C   UNL     1     112.790 126.972 136.977  0.00  0.00    +0.000 A 
ATOM     14  C   UNL     1     112.335 126.342 137.256  0.00  0.00    +0.000 A 
ATOM     15  C   UNL     1     113.578 126.848 136.765  0.00  0.00    +0.000 A 
ATOM     16  C   UNL     1     112.667 125.590 137.321  0.00  0.00    +0.000 A 
ATOM     17  C   UNL     1     113.910 126.096 136.830  0.00  0.00    +0.000 A 
ATOM     18  C   UNL     1     113.454 125.467 137.108  0.00  0.00    +0.000 A 
BRANCH  18  19
ATOM     19  O   UNL     1     113.786 124.715 137.174  0.00  0.00    +0.000 OA
ATOM     20  C   UNL     1     114.606 124.628 137.215  0.00  0.00    +0.000 C 
ENDBRANCH  18  19
ENDBRANCH   5  13
BRANCH  11  21
ATOM     21  O   UNL     1     110.489 129.867 134.706  0.00  0.00    +0.000 OA
ATOM     22  C   UNL     1     109.710 129.611 134.612  0.00  0.00    +0.000 C 
ENDBRANCH  11  21
BRANCH   3  23
ATOM     23  O   UNL     1     111.544 130.553 137.340  0.00  0.00    +0.000 OA
BRANCH  23  32
ATOM     24  O   UNL     1     110.208 130.642 137.837  0.00  0.00    +0.000 OA
ATOM     25  O   UNL     1     110.380 133.112 137.861  0.00  0.00    +0.000 OA
ATOM     26  O   UNL     1     108.986 132.377 138.350  0.00  0.00    +0.000 OA
ATOM     27  O   UNL     1     111.660 132.199 137.356  0.00  0.00    +0.000 OA
ATOM     28  C   UNL     1     110.323 132.288 137.853  0.00  0.00    +0.000 C 
ATOM     29  C   UNL     1     109.626 131.921 138.097  0.00  0.00    +0.000 C 
ATOM     30  C   UNL     1     110.963 131.833 137.600  0.00  0.00    +0.000 C 
ATOM     31  C   UNL     1     109.569 131.098 138.090  0.00  0.00    +0.000 C 
ATOM     32  C   UNL     1     110.905 131.010 137.592  0.00  0.00    +0.000 C 
BRANCH  31  34
ATOM     33  O   UNL     1     108.904 130.015 138.743  0.00  0.00    +0.000 OA
ATOM     34  C   UNL     1     108.871 130.731 138.335  0.00  0.00    +0.000 C 
ENDBRANCH  31  34
ENDBRANCH  23  32
ENDBRANCH   3  23
TORSDOF 6
ENDMDL
