MODEL 1
REMARK VINA RESULT:      -9.2      0.000      0.000
REMARK  Name = 44259753
REMARK  5 active torsions:
REMARK  status: ('A' for Active; 'I' for Inactive)
REMARK    1  A    between atoms: O_2  and  C_16
REMARK    2  A    between atoms: O_2  and  C_18
REMARK    3  A    between atoms: O_7  and  C_20
REMARK    4  A    between atoms: O_8  and  C_22
REMARK    5  A    between atoms: C_26  and  C_27
REMARK                            x       y       z     vdW  Elec       q    Type
REMARK                         _______ _______ _______ _____ _____    ______ ____
ROOT
ATOM      1  O   UNL     1     113.962 127.738 136.206  0.00  0.00    +0.000 OA
ATOM      2  O   UNL     1     111.513 127.824 135.855  0.00  0.00    +0.000 OA
ATOM      3  O   UNL     1     112.443 129.139 135.501  0.00  0.00    +0.000 OA
ATOM      4  C   UNL     1     112.185 126.430 136.447  0.00  0.00    +0.000 A 
ATOM      5  C   UNL     1     112.680 127.108 136.267  0.00  0.00    +0.000 A 
ATOM      6  C   UNL     1     112.545 125.712 136.754  0.00  0.00    +0.000 A 
ATOM      7  C   UNL     1     113.497 127.081 136.383  0.00  0.00    +0.000 A 
ATOM      8  C   UNL     1     113.395 125.683 136.876  0.00  0.00    +0.000 A 
ATOM      9  C   UNL     1     112.329 127.795 135.972  0.00  0.00    +0.000 A 
ATOM     10  C   UNL     1     113.873 126.372 136.689  0.00  0.00    +0.000 A 
ATOM     11  C   UNL     1     112.794 128.453 135.795  0.00  0.00    +0.000 A 
ATOM     12  C   UNL     1     113.610 128.425 135.912  0.00  0.00    +0.000 A 
ENDROOT
BRANCH  12  14
ATOM     13  O   UNL     1     115.471 131.057 135.203  0.00  0.00    +0.000 OA
ATOM     14  C   UNL     1     114.075 129.083 135.735  0.00  0.00    +0.000 A 
ATOM     15  C   UNL     1     114.176 129.680 136.295  0.00  0.00    +0.000 A 
ATOM     16  C   UNL     1     114.441 129.144 134.998  0.00  0.00    +0.000 A 
ATOM     17  C   UNL     1     114.640 130.338 136.118  0.00  0.00    +0.000 A 
ATOM     18  C   UNL     1     114.906 129.802 134.821  0.00  0.00    +0.000 A 
ATOM     19  C   UNL     1     115.005 130.399 135.381  0.00  0.00    +0.000 A 
ENDBRANCH  12  14
BRANCH   6  20
ATOM     20  O   UNL     1     112.077 125.057 136.930  0.00  0.00    +0.000 OA
ATOM     21  C   UNL     1     112.215 124.337 136.550  0.00  0.00    +0.000 C 
ENDBRANCH   6  20
BRANCH   8  22
ATOM     22  O   UNL     1     113.749 124.998 137.170  0.00  0.00    +0.000 OA
ATOM     23  C   UNL     1     114.524 125.022 137.450  0.00  0.00    +0.000 C 
ENDBRANCH   8  22
BRANCH   4  24
ATOM     24  O   UNL     1     111.369 126.468 136.327  0.00  0.00    +0.000 OA
BRANCH  24  33
ATOM     25  O   UNL     1     111.172 126.850 137.690  0.00  0.00    +0.000 OA
ATOM     26  O   UNL     1     108.733 126.528 137.428  0.00  0.00    +0.000 OA
ATOM     27  O   UNL     1     109.349 127.018 138.878  0.00  0.00    +0.000 OA
ATOM     28  O   UNL     1     109.743 126.252 136.152  0.00  0.00    +0.000 OA
ATOM     29  C   UNL     1     109.546 126.635 137.515  0.00  0.00    +0.000 C 
ATOM     30  C   UNL     1     109.855 126.880 138.240  0.00  0.00    +0.000 C 
ATOM     31  C   UNL     1     110.051 126.498 136.878  0.00  0.00    +0.000 C 
ATOM     32  C   UNL     1     110.668 126.988 138.327  0.00  0.00    +0.000 C 
ATOM     33  C   UNL     1     110.865 126.605 136.965  0.00  0.00    +0.000 C 
ATOM     34  C   UNL     1     110.976 127.233 139.052  0.00  0.00    +0.000 C 
ENDBRANCH  24  33
ENDBRANCH   4  24
TORSDOF 5
ENDMDL
MODEL 2
REMARK VINA RESULT:      -9.1      2.121      4.023
REMARK  Name = 44259753
REMARK  5 active torsions:
REMARK  status: ('A' for Active; 'I' for Inactive)
REMARK    1  A    between atoms: O_2  and  C_16
REMARK    2  A    between atoms: O_2  and  C_18
REMARK    3  A    between atoms: O_7  and  C_20
REMARK    4  A    between atoms: O_8  and  C_22
REMARK    5  A    between atoms: C_26  and  C_27
REMARK                            x       y       z     vdW  Elec       q    Type
REMARK                         _______ _______ _______ _____ _____    ______ ____
ROOT
ATOM      1  O   UNL     1     113.298 127.846 137.520  0.00  0.00    +0.000 OA
ATOM      2  O   UNL     1     110.853 127.499 137.356  0.00  0.00    +0.000 OA
ATOM      3  O   UNL     1     111.876 126.209 137.267  0.00  0.00    +0.000 OA
ATOM      4  C   UNL     1     111.427 129.040 137.555  0.00  0.00    +0.000 A 
ATOM      5  C   UNL     1     111.971 128.376 137.510  0.00  0.00    +0.000 A 
ATOM      6  C   UNL     1     111.737 129.835 137.659  0.00  0.00    +0.000 A 
ATOM      7  C   UNL     1     112.786 128.492 137.565  0.00  0.00    +0.000 A 
ATOM      8  C   UNL     1     112.585 129.956 137.715  0.00  0.00    +0.000 A 
ATOM      9  C   UNL     1     111.668 127.615 137.411  0.00  0.00    +0.000 A 
ATOM     10  C   UNL     1     113.113 129.279 137.668  0.00  0.00    +0.000 A 
ATOM     11  C   UNL     1     112.179 126.970 137.366  0.00  0.00    +0.000 A 
ATOM     12  C   UNL     1     112.995 127.085 137.421  0.00  0.00    +0.000 A 
ENDROOT
BRANCH  12  14
ATOM     13  O   UNL     1     115.043 124.503 137.242  0.00  0.00    +0.000 OA
ATOM     14  C   UNL     1     113.506 126.440 137.376  0.00  0.00    +0.000 A 
ATOM     15  C   UNL     1     113.805 126.200 136.645  0.00  0.00    +0.000 A 
ATOM     16  C   UNL     1     113.721 126.034 138.061  0.00  0.00    +0.000 A 
ATOM     17  C   UNL     1     114.317 125.554 136.601  0.00  0.00    +0.000 A 
ATOM     18  C   UNL     1     114.232 125.389 138.017  0.00  0.00    +0.000 A 
ATOM     19  C   UNL     1     114.530 125.149 137.286  0.00  0.00    +0.000 A 
ENDBRANCH  12  14
BRANCH   6  20
ATOM     20  O   UNL     1     111.222 130.478 137.703  0.00  0.00    +0.000 OA
ATOM     21  C   UNL     1     111.225 130.964 138.370  0.00  0.00    +0.000 C 
ENDBRANCH   6  20
BRANCH   8  22
ATOM     22  O   UNL     1     112.892 130.715 137.815  0.00  0.00    +0.000 OA
ATOM     23  C   UNL     1     113.682 130.867 137.638  0.00  0.00    +0.000 C 
ENDBRANCH   8  22
BRANCH   4  24
ATOM     24  O   UNL     1     110.613 128.915 137.499  0.00  0.00    +0.000 OA
BRANCH  24  33
ATOM     25  O   UNL     1     110.653 129.181 136.096  0.00  0.00    +0.000 OA
ATOM     26  O   UNL     1     108.180 129.257 136.039  0.00  0.00    +0.000 OA
ATOM     27  O   UNL     1     109.045 129.498 134.655  0.00  0.00    +0.000 OA
ATOM     28  O   UNL     1     108.964 128.966 137.462  0.00  0.00    +0.000 OA
ATOM     29  C   UNL     1     109.005 129.232 136.058  0.00  0.00    +0.000 C 
ATOM     30  C   UNL     1     109.438 129.352 135.366  0.00  0.00    +0.000 C 
ATOM     31  C   UNL     1     109.397 129.086 136.769  0.00  0.00    +0.000 C 
ATOM     32  C   UNL     1     110.262 129.327 135.385  0.00  0.00    +0.000 C 
ATOM     33  C   UNL     1     110.222 129.061 136.788  0.00  0.00    +0.000 C 
ATOM     34  C   UNL     1     110.694 129.447 134.693  0.00  0.00    +0.000 C 
ENDBRANCH  24  33
ENDBRANCH   4  24
TORSDOF 5
ENDMDL
MODEL 3
REMARK VINA RESULT:      -9.0      2.000      4.469
REMARK  Name = 44259753
REMARK  5 active torsions:
REMARK  status: ('A' for Active; 'I' for Inactive)
REMARK    1  A    between atoms: O_2  and  C_16
REMARK    2  A    between atoms: O_2  and  C_18
REMARK    3  A    between atoms: O_7  and  C_20
REMARK    4  A    between atoms: O_8  and  C_22
REMARK    5  A    between atoms: C_26  and  C_27
REMARK                            x       y       z     vdW  Elec       q    Type
REMARK                         _______ _______ _______ _____ _____    ______ ____
ROOT
ATOM      1  O   UNL     1     113.128 127.090 136.227  0.00  0.00    +0.000 OA
ATOM      2  O   UNL     1     112.099 128.365 138.082  0.00  0.00    +0.000 OA
ATOM      3  O   UNL     1     111.769 126.758 137.903  0.00  0.00    +0.000 OA
ATOM      4  C   UNL     1     113.113 129.155 137.038  0.00  0.00    +0.000 A 
ATOM      5  C   UNL     1     112.950 128.319 136.934  0.00  0.00    +0.000 A 
ATOM      6  C   UNL     1     113.641 129.555 136.490  0.00  0.00    +0.000 A 
ATOM      7  C   UNL     1     113.292 127.893 136.316  0.00  0.00    +0.000 A 
ATOM      8  C   UNL     1     113.998 129.113 135.846  0.00  0.00    +0.000 A 
ATOM      9  C   UNL     1     112.442 127.940 137.463  0.00  0.00    +0.000 A 
ATOM     10  C   UNL     1     113.822 128.276 135.759  0.00  0.00    +0.000 A 
ATOM     11  C   UNL     1     112.277 127.137 137.374  0.00  0.00    +0.000 A 
ATOM     12  C   UNL     1     112.620 126.711 136.756  0.00  0.00    +0.000 A 
ENDROOT
BRANCH  12  14
ATOM     13  O   UNL     1     111.960 123.498 136.398  0.00  0.00    +0.000 OA
ATOM     14  C   UNL     1     112.455 125.908 136.666  0.00  0.00    +0.000 A 
ATOM     15  C   UNL     1     111.785 125.668 136.248  0.00  0.00    +0.000 A 
ATOM     16  C   UNL     1     112.959 125.344 136.995  0.00  0.00    +0.000 A 
ATOM     17  C   UNL     1     111.620 124.865 136.159  0.00  0.00    +0.000 A 
ATOM     18  C   UNL     1     112.794 124.541 136.905  0.00  0.00    +0.000 A 
ATOM     19  C   UNL     1     112.125 124.302 136.487  0.00  0.00    +0.000 A 
ENDBRANCH  12  14
BRANCH   6  20
ATOM     20  O   UNL     1     113.804 130.358 136.583  0.00  0.00    +0.000 OA
ATOM     21  C   UNL     1     114.585 130.616 136.649  0.00  0.00    +0.000 C 
ENDBRANCH   6  20
BRANCH   8  22
ATOM     22  O   UNL     1     114.506 129.488 135.316  0.00  0.00    +0.000 OA
ATOM     23  C   UNL     1     114.718 129.114 134.613  0.00  0.00    +0.000 C 
ENDBRANCH   8  22
BRANCH   4  24
ATOM     24  O   UNL     1     112.765 129.573 137.660  0.00  0.00    +0.000 OA
BRANCH  24  33
ATOM     25  O   UNL     1     111.679 129.978 136.825  0.00  0.00    +0.000 OA
ATOM     26  O   UNL     1     111.079 131.737 138.460  0.00  0.00    +0.000 OA
ATOM     27  O   UNL     1     110.192 131.556 137.080  0.00  0.00    +0.000 OA
ATOM     28  O   UNL     1     112.366 130.745 138.750  0.00  0.00    +0.000 OA
ATOM     29  C   UNL     1     111.279 131.150 137.915  0.00  0.00    +0.000 C 
ATOM     30  C   UNL     1     110.836 131.060 137.225  0.00  0.00    +0.000 C 
ATOM     31  C   UNL     1     111.922 130.654 138.059  0.00  0.00    +0.000 C 
ATOM     32  C   UNL     1     111.036 130.473 136.680  0.00  0.00    +0.000 C 
ATOM     33  C   UNL     1     112.122 130.068 137.514  0.00  0.00    +0.000 C 
ATOM     34  C   UNL     1     110.592 130.383 135.990  0.00  0.00    +0.000 C 
ENDBRANCH  24  33
ENDBRANCH   4  24
TORSDOF 5
ENDMDL
MODEL 4
REMARK VINA RESULT:      -8.9      1.183      2.445
REMARK  Name = 44259753
REMARK  5 active torsions:
REMARK  status: ('A' for Active; 'I' for Inactive)
REMARK    1  A    between atoms: O_2  and  C_16
REMARK    2  A    between atoms: O_2  and  C_18
REMARK    3  A    between atoms: O_7  and  C_20
REMARK    4  A    between atoms: O_8  and  C_22
REMARK    5  A    between atoms: C_26  and  C_27
REMARK                            x       y       z     vdW  Elec       q    Type
REMARK                         _______ _______ _______ _____ _____    ______ ____
ROOT
ATOM      1  O   UNL     1     112.539 128.932 135.429  0.00  0.00    +0.000 OA
ATOM      2  O   UNL     1     113.042 126.674 136.309  0.00  0.00    +0.000 OA
ATOM      3  O   UNL     1     114.241 127.802 136.201  0.00  0.00    +0.000 OA
ATOM      4  C   UNL     1     111.492 127.019 135.838  0.00  0.00    +0.000 A 
ATOM      5  C   UNL     1     112.107 127.615 135.777  0.00  0.00    +0.000 A 
ATOM      6  C   UNL     1     110.691 127.209 135.591  0.00  0.00    +0.000 A 
ATOM      7  C   UNL     1     111.940 128.368 135.483  0.00  0.00    +0.000 A 
ATOM      8  C   UNL     1     110.517 127.993 135.285  0.00  0.00    +0.000 A 
ATOM      9  C   UNL     1     112.874 127.427 136.016  0.00  0.00    +0.000 A 
ATOM     10  C   UNL     1     111.146 128.576 135.231  0.00  0.00    +0.000 A 
ATOM     11  C   UNL     1     113.473 127.991 135.962  0.00  0.00    +0.000 A 
ATOM     12  C   UNL     1     113.306 128.744 135.668  0.00  0.00    +0.000 A 
ENDROOT
BRANCH  12  14
ATOM     13  O   UNL     1     115.705 131.000 135.451  0.00  0.00    +0.000 OA
ATOM     14  C   UNL     1     113.906 129.308 135.614  0.00  0.00    +0.000 A 
ATOM     15  C   UNL     1     114.374 129.348 134.936  0.00  0.00    +0.000 A 
ATOM     16  C   UNL     1     114.038 129.832 136.237  0.00  0.00    +0.000 A 
ATOM     17  C   UNL     1     114.974 129.912 134.882  0.00  0.00    +0.000 A 
ATOM     18  C   UNL     1     114.637 130.396 136.183  0.00  0.00    +0.000 A 
ATOM     19  C   UNL     1     115.105 130.436 135.505  0.00  0.00    +0.000 A 
ENDBRANCH  12  14
BRANCH   6  20
ATOM     20  O   UNL     1     110.094 126.643 135.646  0.00  0.00    +0.000 OA
ATOM     21  C   UNL     1     109.700 126.390 134.966  0.00  0.00    +0.000 C 
ENDBRANCH   6  20
BRANCH   8  22
ATOM     22  O   UNL     1     109.751 128.185 135.045  0.00  0.00    +0.000 OA
ATOM     23  C   UNL     1     109.515 128.974 135.010  0.00  0.00    +0.000 C 
ENDBRANCH   8  22
BRANCH   4  24
ATOM     24  O   UNL     1     111.668 126.268 136.133  0.00  0.00    +0.000 OA
BRANCH  24  33
ATOM     25  O   UNL     1     111.279 126.671 137.448  0.00  0.00    +0.000 OA
ATOM     26  O   UNL     1     111.291 124.305 138.175  0.00  0.00    +0.000 OA
ATOM     27  O   UNL     1     110.898 125.496 139.247  0.00  0.00    +0.000 OA
ATOM     28  O   UNL     1     111.676 124.691 136.618  0.00  0.00    +0.000 OA
ATOM     29  C   UNL     1     111.287 125.094 137.933  0.00  0.00    +0.000 C 
ATOM     30  C   UNL     1     111.091 125.689 138.468  0.00  0.00    +0.000 C 
ATOM     31  C   UNL     1     111.480 125.287 137.154  0.00  0.00    +0.000 C 
ATOM     32  C   UNL     1     111.087 126.478 138.226  0.00  0.00    +0.000 C 
ATOM     33  C   UNL     1     111.476 126.076 136.912  0.00  0.00    +0.000 C 
ATOM     34  C   UNL     1     110.890 127.073 138.763  0.00  0.00    +0.000 C 
ENDBRANCH  24  33
ENDBRANCH   4  24
TORSDOF 5
ENDMDL
MODEL 5
REMARK VINA RESULT:      -8.7     10.284     13.521
REMARK  Name = 44259753
REMARK  5 active torsions:
REMARK  status: ('A' for Active; 'I' for Inactive)
REMARK    1  A    between atoms: O_2  and  C_16
REMARK    2  A    between atoms: O_2  and  C_18
REMARK    3  A    between atoms: O_7  and  C_20
REMARK    4  A    between atoms: O_8  and  C_22
REMARK    5  A    between atoms: C_26  and  C_27
REMARK                            x       y       z     vdW  Elec       q    Type
REMARK                         _______ _______ _______ _____ _____    ______ ____
ROOT
ATOM      1  O   UNL     1     104.220 124.255 147.670  0.00  0.00    +0.000 OA
ATOM      2  O   UNL     1     104.968 125.033 145.443  0.00  0.00    +0.000 OA
ATOM      3  O   UNL     1     103.465 124.379 145.625  0.00  0.00    +0.000 OA
ATOM      4  C   UNL     1     106.002 125.185 146.728  0.00  0.00    +0.000 A 
ATOM      5  C   UNL     1     105.221 124.842 146.837  0.00  0.00    +0.000 A 
ATOM      6  C   UNL     1     106.530 125.258 147.403  0.00  0.00    +0.000 A 
ATOM      7  C   UNL     1     104.972 124.583 147.579  0.00  0.00    +0.000 A 
ATOM      8  C   UNL     1     106.270 124.988 148.176  0.00  0.00    +0.000 A 
ATOM      9  C   UNL     1     104.719 124.774 146.185  0.00  0.00    +0.000 A 
ATOM     10  C   UNL     1     105.485 124.648 148.264  0.00  0.00    +0.000 A 
ATOM     11  C   UNL     1     103.967 124.447 146.277  0.00  0.00    +0.000 A 
ATOM     12  C   UNL     1     103.718 124.187 147.019  0.00  0.00    +0.000 A 
ENDROOT
BRANCH  12  14
ATOM     13  O   UNL     1     100.710 122.878 147.385  0.00  0.00    +0.000 OA
ATOM     14  C   UNL     1     102.966 123.860 147.110  0.00  0.00    +0.000 A 
ATOM     15  C   UNL     1     102.349 124.320 147.408  0.00  0.00    +0.000 A 
ATOM     16  C   UNL     1     102.830 123.073 146.904  0.00  0.00    +0.000 A 
ATOM     17  C   UNL     1     101.598 123.992 147.500  0.00  0.00    +0.000 A 
ATOM     18  C   UNL     1     102.079 122.746 146.995  0.00  0.00    +0.000 A 
ATOM     19  C   UNL     1     101.462 123.206 147.293  0.00  0.00    +0.000 A 
ENDBRANCH  12  14
BRANCH   6  20
ATOM     20  O   UNL     1     107.280 125.586 147.308  0.00  0.00    +0.000 OA
ATOM     21  C   UNL     1     107.943 125.191 147.601  0.00  0.00    +0.000 C 
ENDBRANCH   6  20
BRANCH   8  22
ATOM     22  O   UNL     1     106.770 125.055 148.829  0.00  0.00    +0.000 OA
ATOM     23  C   UNL     1     106.494 124.861 149.581  0.00  0.00    +0.000 C 
ENDBRANCH   8  22
BRANCH   4  24
ATOM     24  O   UNL     1     106.243 125.442 145.982  0.00  0.00    +0.000 OA
BRANCH  24  33
ATOM     25  O   UNL     1     105.809 126.770 146.280  0.00  0.00    +0.000 OA
ATOM     26  O   UNL     1     106.981 127.605 144.266  0.00  0.00    +0.000 OA
ATOM     27  O   UNL     1     106.156 128.655 145.236  0.00  0.00    +0.000 OA
ATOM     28  O   UNL     1     107.024 125.998 144.640  0.00  0.00    +0.000 OA
ATOM     29  C   UNL     1     106.590 127.327 144.938  0.00  0.00    +0.000 C 
ATOM     30  C   UNL     1     106.178 127.851 145.422  0.00  0.00    +0.000 C 
ATOM     31  C   UNL     1     106.612 126.524 145.125  0.00  0.00    +0.000 C 
ATOM     32  C   UNL     1     105.787 127.573 146.094  0.00  0.00    +0.000 C 
ATOM     33  C   UNL     1     106.221 126.245 145.796  0.00  0.00    +0.000 C 
ATOM     34  C   UNL     1     105.375 128.099 146.578  0.00  0.00    +0.000 C 
ENDBRANCH  24  33
ENDBRANCH   4  24
TORSDOF 5
ENDMDL
MODEL 6
REMARK VINA RESULT:      -8.6      1.762      4.772
REMARK  Name = 44259753
REMARK  5 active torsions:
REMARK  status: ('A' for Active; 'I' for Inactive)
REMARK    1  A    between atoms: O_2  and  C_16
REMARK    2  A    between atoms: O_2  and  C_18
REMARK    3  A    between atoms: O_7  and  C_20
REMARK    4  A    between atoms: O_8  and  C_22
REMARK    5  A    between atoms: C_26  and  C_27
REMARK                            x       y       z     vdW  Elec       q    Type
REMARK                         _______ _______ _______ _____ _____    ______ ____
ROOT
ATOM      1  O   UNL     1     110.956 126.447 136.271  0.00  0.00    +0.000 OA
ATOM      2  O   UNL     1     112.966 127.891 136.291  0.00  0.00    +0.000 OA
ATOM      3  O   UNL     1     113.097 126.291 136.668  0.00  0.00    +0.000 OA
ATOM      4  C   UNL     1     111.505 128.564 135.895  0.00  0.00    +0.000 A 
ATOM      5  C   UNL     1     111.560 127.729 136.089  0.00  0.00    +0.000 A 
ATOM      6  C   UNL     1     110.741 128.902 135.691  0.00  0.00    +0.000 A 
ATOM      7  C   UNL     1     110.890 127.247 136.083  0.00  0.00    +0.000 A 
ATOM      8  C   UNL     1     110.044 128.401 135.684  0.00  0.00    +0.000 A 
ATOM      9  C   UNL     1     112.295 127.410 136.285  0.00  0.00    +0.000 A 
ATOM     10  C   UNL     1     110.119 127.567 135.882  0.00  0.00    +0.000 A 
ATOM     11  C   UNL     1     112.361 126.610 136.473  0.00  0.00    +0.000 A 
ATOM     12  C   UNL     1     111.692 126.128 136.466  0.00  0.00    +0.000 A 
ENDROOT
BRANCH  12  14
ATOM     13  O   UNL     1     111.955 122.926 137.220  0.00  0.00    +0.000 OA
ATOM     14  C   UNL     1     111.757 125.328 136.655  0.00  0.00    +0.000 A 
ATOM     15  C   UNL     1     111.650 125.076 137.433  0.00  0.00    +0.000 A 
ATOM     16  C   UNL     1     111.931 124.777 136.065  0.00  0.00    +0.000 A 
ATOM     17  C   UNL     1     111.715 124.276 137.621  0.00  0.00    +0.000 A 
ATOM     18  C   UNL     1     111.997 123.977 136.253  0.00  0.00    +0.000 A 
ATOM     19  C   UNL     1     111.889 123.727 137.032  0.00  0.00    +0.000 A 
ENDBRANCH  12  14
BRANCH   6  20
ATOM     20  O   UNL     1     110.679 129.703 135.504  0.00  0.00    +0.000 OA
ATOM     21  C   UNL     1     110.353 129.933 134.781  0.00  0.00    +0.000 C 
ENDBRANCH   6  20
BRANCH   8  22
ATOM     22  O   UNL     1     109.306 128.716 135.490  0.00  0.00    +0.000 OA
ATOM     23  C   UNL     1     108.618 128.358 135.767  0.00  0.00    +0.000 C 
ENDBRANCH   8  22
BRANCH   4  24
ATOM     24  O   UNL     1     112.180 129.038 135.905  0.00  0.00    +0.000 OA
BRANCH  24  33
ATOM     25  O   UNL     1     111.902 129.438 137.248  0.00  0.00    +0.000 OA
ATOM     26  O   UNL     1     113.623 131.208 137.078  0.00  0.00    +0.000 OA
ATOM     27  O   UNL     1     112.771 131.018 138.478  0.00  0.00    +0.000 OA
ATOM     28  O   UNL     1     113.327 130.219 135.791  0.00  0.00    +0.000 OA
ATOM     29  C   UNL     1     113.049 130.618 137.135  0.00  0.00    +0.000 C 
ATOM     30  C   UNL     1     112.623 130.522 137.834  0.00  0.00    +0.000 C 
ATOM     31  C   UNL     1     112.901 130.123 136.492  0.00  0.00    +0.000 C 
ATOM     32  C   UNL     1     112.049 129.932 137.891  0.00  0.00    +0.000 C 
ATOM     33  C   UNL     1     112.327 129.533 136.548  0.00  0.00    +0.000 C 
ATOM     34  C   UNL     1     111.624 129.837 138.592  0.00  0.00    +0.000 C 
ENDBRANCH  24  33
ENDBRANCH   4  24
TORSDOF 5
ENDMDL
MODEL 7
REMARK VINA RESULT:      -8.6      1.295      2.549
REMARK  Name = 44259753
REMARK  5 active torsions:
REMARK  status: ('A' for Active; 'I' for Inactive)
REMARK    1  A    between atoms: O_2  and  C_16
REMARK    2  A    between atoms: O_2  and  C_18
REMARK    3  A    between atoms: O_7  and  C_20
REMARK    4  A    between atoms: O_8  and  C_22
REMARK    5  A    between atoms: C_26  and  C_27
REMARK                            x       y       z     vdW  Elec       q    Type
REMARK                         _______ _______ _______ _____ _____    ______ ____
ROOT
ATOM      1  O   UNL     1     113.488 128.882 137.540  0.00  0.00    +0.000 OA
ATOM      2  O   UNL     1     112.216 127.310 136.111  0.00  0.00    +0.000 OA
ATOM      3  O   UNL     1     113.022 128.577 135.429  0.00  0.00    +0.000 OA
ATOM      4  C   UNL     1     112.237 127.060 137.749  0.00  0.00    +0.000 A 
ATOM      5  C   UNL     1     112.661 127.724 137.406  0.00  0.00    +0.000 A 
ATOM      6  C   UNL     1     112.255 126.941 138.600  0.00  0.00    +0.000 A 
ATOM      7  C   UNL     1     113.085 128.248 137.881  0.00  0.00    +0.000 A 
ATOM      8  C   UNL     1     112.696 127.486 139.095  0.00  0.00    +0.000 A 
ATOM      9  C   UNL     1     112.640 127.834 136.588  0.00  0.00    +0.000 A 
ATOM     10  C   UNL     1     113.114 128.145 138.733  0.00  0.00    +0.000 A 
ATOM     11  C   UNL     1     113.043 128.468 136.246  0.00  0.00    +0.000 A 
ATOM     12  C   UNL     1     113.467 128.992 136.722  0.00  0.00    +0.000 A 
ENDROOT
BRANCH  12  14
ATOM     13  O   UNL     1     115.079 131.526 135.356  0.00  0.00    +0.000 OA
ATOM     14  C   UNL     1     113.870 129.625 136.381  0.00  0.00    +0.000 A 
ATOM     15  C   UNL     1     114.566 129.492 135.957  0.00  0.00    +0.000 A 
ATOM     16  C   UNL     1     113.578 130.392 136.461  0.00  0.00    +0.000 A 
ATOM     17  C   UNL     1     114.968 130.126 135.616  0.00  0.00    +0.000 A 
ATOM     18  C   UNL     1     113.981 131.026 136.120  0.00  0.00    +0.000 A 
ATOM     19  C   UNL     1     114.676 130.892 135.697  0.00  0.00    +0.000 A 
ENDBRANCH  12  14
BRANCH   6  20
ATOM     20  O   UNL     1     111.851 126.306 138.938  0.00  0.00    +0.000 OA
ATOM     21  C   UNL     1     111.267 126.444 139.505  0.00  0.00    +0.000 C 
ENDBRANCH   6  20
BRANCH   8  22
ATOM     22  O   UNL     1     112.719 127.379 139.913  0.00  0.00    +0.000 OA
ATOM     23  C   UNL     1     113.324 127.721 140.357  0.00  0.00    +0.000 C 
ENDBRANCH   8  22
BRANCH   4  24
ATOM     24  O   UNL     1     111.816 126.541 137.265  0.00  0.00    +0.000 OA
BRANCH  24  33
ATOM     25  O   UNL     1     112.942 125.665 137.194  0.00  0.00    +0.000 OA
ATOM     26  O   UNL     1     111.512 123.909 136.194  0.00  0.00    +0.000 OA
ATOM     27  O   UNL     1     113.115 123.618 136.456  0.00  0.00    +0.000 OA
ATOM     28  O   UNL     1     110.862 125.371 136.598  0.00  0.00    +0.000 OA
ATOM     29  C   UNL     1     111.988 124.494 136.527  0.00  0.00    +0.000 C 
ATOM     30  C   UNL     1     112.790 124.349 136.658  0.00  0.00    +0.000 C 
ATOM     31  C   UNL     1     111.664 125.225 136.730  0.00  0.00    +0.000 C 
ATOM     32  C   UNL     1     113.266 124.934 136.992  0.00  0.00    +0.000 C 
ATOM     33  C   UNL     1     112.141 125.811 137.063  0.00  0.00    +0.000 C 
ATOM     34  C   UNL     1     114.068 124.788 137.123  0.00  0.00    +0.000 C 
ENDBRANCH  24  33
ENDBRANCH   4  24
TORSDOF 5
ENDMDL
MODEL 8
REMARK VINA RESULT:      -8.4      2.382      4.614
REMARK  Name = 44259753
REMARK  5 active torsions:
REMARK  status: ('A' for Active; 'I' for Inactive)
REMARK    1  A    between atoms: O_2  and  C_16
REMARK    2  A    between atoms: O_2  and  C_18
REMARK    3  A    between atoms: O_7  and  C_20
REMARK    4  A    between atoms: O_8  and  C_22
REMARK    5  A    between atoms: C_26  and  C_27
REMARK                            x       y       z     vdW  Elec       q    Type
REMARK                         _______ _______ _______ _____ _____    ______ ____
ROOT
ATOM      1  O   UNL     1     112.793 126.145 138.618  0.00  0.00    +0.000 OA
ATOM      2  O   UNL     1     113.215 128.092 137.149  0.00  0.00    +0.000 OA
ATOM      3  O   UNL     1     112.866 126.622 136.489  0.00  0.00    +0.000 OA
ATOM      4  C   UNL     1     113.291 128.301 138.791  0.00  0.00    +0.000 A 
ATOM      5  C   UNL     1     113.108 127.529 138.459  0.00  0.00    +0.000 A 
ATOM      6  C   UNL     1     113.328 128.397 139.645  0.00  0.00    +0.000 A 
ATOM      7  C   UNL     1     112.968 126.880 138.948  0.00  0.00    +0.000 A 
ATOM      8  C   UNL     1     113.181 127.721 140.154  0.00  0.00    +0.000 A 
ATOM      9  C   UNL     1     113.074 127.443 137.639  0.00  0.00    +0.000 A 
ATOM     10  C   UNL     1     113.000 126.957 139.803  0.00  0.00    +0.000 A 
ATOM     11  C   UNL     1     112.900 126.708 137.309  0.00  0.00    +0.000 A 
ATOM     12  C   UNL     1     112.759 126.058 137.798  0.00  0.00    +0.000 A 
ENDROOT
BRANCH  12  14
ATOM     13  O   UNL     1     112.061 123.117 136.475  0.00  0.00    +0.000 OA
ATOM     14  C   UNL     1     112.585 125.323 137.467  0.00  0.00    +0.000 A 
ATOM     15  C   UNL     1     111.799 125.093 137.363  0.00  0.00    +0.000 A 
ATOM     16  C   UNL     1     113.195 124.817 137.240  0.00  0.00    +0.000 A 
ATOM     17  C   UNL     1     111.625 124.358 137.033  0.00  0.00    +0.000 A 
ATOM     18  C   UNL     1     113.021 124.082 136.910  0.00  0.00    +0.000 A 
ATOM     19  C   UNL     1     112.235 123.853 136.806  0.00  0.00    +0.000 A 
ENDBRANCH  12  14
BRANCH   6  20
ATOM     20  O   UNL     1     113.503 129.133 139.972  0.00  0.00    +0.000 OA
ATOM     21  C   UNL     1     114.146 129.216 140.482  0.00  0.00    +0.000 C 
ENDBRANCH   6  20
BRANCH   8  22
ATOM     22  O   UNL     1     113.215 127.804 140.974  0.00  0.00    +0.000 OA
ATOM     23  C   UNL     1     112.849 127.247 141.460  0.00  0.00    +0.000 C 
ENDBRANCH   8  22
BRANCH   4  24
ATOM     24  O   UNL     1     113.430 128.944 138.294  0.00  0.00    +0.000 OA
BRANCH  24  33
ATOM     25  O   UNL     1     112.061 129.340 138.397  0.00  0.00    +0.000 OA
ATOM     26  O   UNL     1     112.604 131.500 137.317  0.00  0.00    +0.000 OA
ATOM     27  O   UNL     1     111.054 131.176 137.780  0.00  0.00    +0.000 OA
ATOM     28  O   UNL     1     113.793 130.384 137.574  0.00  0.00    +0.000 OA
ATOM     29  C   UNL     1     112.423 130.780 137.677  0.00  0.00    +0.000 C 
ATOM     30  C   UNL     1     111.649 130.618 137.908  0.00  0.00    +0.000 C 
ATOM     31  C   UNL     1     113.017 130.222 137.806  0.00  0.00    +0.000 C 
ATOM     32  C   UNL     1     111.467 129.898 138.268  0.00  0.00    +0.000 C 
ATOM     33  C   UNL     1     112.836 129.502 138.166  0.00  0.00    +0.000 C 
ATOM     34  C   UNL     1     110.692 129.736 138.500  0.00  0.00    +0.000 C 
ENDBRANCH  24  33
ENDBRANCH   4  24
TORSDOF 5
ENDMDL
