MODEL 1
REMARK VINA RESULT:      -8.0      0.000      0.000
REMARK  Name = null
REMARK  3 active torsions:
REMARK  status: ('A' for Active; 'I' for Inactive)
REMARK    1  A    between atoms: O_2  and  C_3
REMARK    2  A    between atoms: C_5  and  O_20
REMARK    3  A    between atoms: C_10  and  C_14
REMARK                            x       y       z     vdW  Elec       q    Type
REMARK                         _______ _______ _______ _____ _____    ______ ____
ROOT
ATOM      1  C   UNL     1     103.671 123.916 146.234  0.00  0.00    +0.000 A 
ATOM      2  C   UNL     1     103.096 124.267 146.713  0.00  0.00    +0.000 A 
ATOM      3  C   UNL     1     103.313 124.621 147.424  0.00  0.00    +0.000 A 
ATOM      4  C   UNL     1     104.104 124.626 147.659  0.00  0.00    +0.000 A 
ATOM      5  C   UNL     1     104.322 124.980 148.371  0.00  0.00    +0.000 C 
ATOM      6  O   UNL     1     103.748 125.331 148.849  0.00  0.00    +0.000 OA
ATOM      7  C   UNL     1     105.112 124.985 148.606  0.00  0.00    +0.000 C 
ATOM      8  C   UNL     1     105.686 124.633 148.128  0.00  0.00    +0.000 C 
ATOM      9  O   UNL     1     105.469 124.279 147.416  0.00  0.00    +0.000 OA
ATOM     10  C   UNL     1     104.678 124.274 147.181  0.00  0.00    +0.000 A 
ATOM     11  C   UNL     1     104.461 123.920 146.469  0.00  0.00    +0.000 A 
ENDROOT
BRANCH   8  12
ATOM     12  C   UNL     1     106.477 124.638 148.363  0.00  0.00    +0.000 A 
ATOM     13  C   UNL     1     107.044 125.014 147.897  0.00  0.00    +0.000 A 
ATOM     14  C   UNL     1     107.835 125.018 148.133  0.00  0.00    +0.000 A 
ATOM     15  C   UNL     1     108.059 124.646 148.834  0.00  0.00    +0.000 A 
ATOM     16  C   UNL     1     107.491 124.269 149.300  0.00  0.00    +0.000 A 
ATOM     17  C   UNL     1     106.700 124.265 149.064  0.00  0.00    +0.000 A 
ENDBRANCH   8  12
BRANCH   1  19
ATOM     18  C   UNL     1     103.469 122.739 145.447  0.00  0.00    +0.000 C 
ATOM     19  O   UNL     1     103.453 123.561 145.522  0.00  0.00    +0.000 OA
ENDBRANCH   1  19
BRANCH   3  20
ATOM     20  O   UNL     1     102.740 124.972 147.902  0.00  0.00    +0.000 OA
ATOM     21  C   UNL     1     101.950 124.974 147.665  0.00  0.00    +0.000 C 
ENDBRANCH   3  20
TORSDOF 3
ENDMDL
MODEL 2
REMARK VINA RESULT:      -7.8     13.311     13.852
REMARK  Name = null
REMARK  3 active torsions:
REMARK  status: ('A' for Active; 'I' for Inactive)
REMARK    1  A    between atoms: O_2  and  C_3
REMARK    2  A    between atoms: C_5  and  O_20
REMARK    3  A    between atoms: C_10  and  C_14
REMARK                            x       y       z     vdW  Elec       q    Type
REMARK                         _______ _______ _______ _____ _____    ______ ____
ROOT
ATOM      1  C   UNL     1     110.986 127.661 135.375  0.00  0.00    +0.000 A 
ATOM      2  C   UNL     1     110.428 127.083 135.187  0.00  0.00    +0.000 A 
ATOM      3  C   UNL     1     110.576 126.292 135.369  0.00  0.00    +0.000 A 
ATOM      4  C   UNL     1     111.281 126.080 135.740  0.00  0.00    +0.000 A 
ATOM      5  C   UNL     1     111.429 125.289 135.922  0.00  0.00    +0.000 C 
ATOM      6  O   UNL     1     110.872 124.711 135.734  0.00  0.00    +0.000 OA
ATOM      7  C   UNL     1     112.134 125.076 136.293  0.00  0.00    +0.000 C 
ATOM      8  C   UNL     1     112.692 125.655 136.482  0.00  0.00    +0.000 C 
ATOM      9  O   UNL     1     112.544 126.445 136.300  0.00  0.00    +0.000 OA
ATOM     10  C   UNL     1     111.839 126.658 135.929  0.00  0.00    +0.000 A 
ATOM     11  C   UNL     1     111.691 127.449 135.746  0.00  0.00    +0.000 A 
ENDROOT
BRANCH   8  12
ATOM     12  C   UNL     1     113.398 125.441 136.853  0.00  0.00    +0.000 A 
ATOM     13  C   UNL     1     114.005 125.093 136.417  0.00  0.00    +0.000 A 
ATOM     14  C   UNL     1     114.710 124.880 136.789  0.00  0.00    +0.000 A 
ATOM     15  C   UNL     1     114.808 125.015 137.597  0.00  0.00    +0.000 A 
ATOM     16  C   UNL     1     114.200 125.363 138.034  0.00  0.00    +0.000 A 
ATOM     17  C   UNL     1     113.495 125.576 137.661  0.00  0.00    +0.000 A 
ENDBRANCH   8  12
BRANCH   1  19
ATOM     18  C   UNL     1     111.380 128.882 134.743  0.00  0.00    +0.000 C 
ATOM     19  O   UNL     1     110.838 128.452 135.193  0.00  0.00    +0.000 OA
ENDBRANCH   1  19
BRANCH   3  20
ATOM     20  O   UNL     1     110.018 125.714 135.180  0.00  0.00    +0.000 OA
ATOM     21  C   UNL     1     109.313 125.926 134.809  0.00  0.00    +0.000 C 
ENDBRANCH   3  20
TORSDOF 3
ENDMDL
MODEL 3
REMARK VINA RESULT:      -7.6     13.698     14.852
REMARK  Name = null
REMARK  3 active torsions:
REMARK  status: ('A' for Active; 'I' for Inactive)
REMARK    1  A    between atoms: O_2  and  C_3
REMARK    2  A    between atoms: C_5  and  O_20
REMARK    3  A    between atoms: C_10  and  C_14
REMARK                            x       y       z     vdW  Elec       q    Type
REMARK                         _______ _______ _______ _____ _____    ______ ____
ROOT
ATOM      1  C   UNL     1     113.721 129.423 135.442  0.00  0.00    +0.000 A 
ATOM      2  C   UNL     1     112.899 129.443 135.365  0.00  0.00    +0.000 A 
ATOM      3  C   UNL     1     112.447 128.794 135.597  0.00  0.00    +0.000 A 
ATOM      4  C   UNL     1     112.815 128.124 135.907  0.00  0.00    +0.000 A 
ATOM      5  C   UNL     1     112.364 127.474 136.139  0.00  0.00    +0.000 C 
ATOM      6  O   UNL     1     111.542 127.494 136.062  0.00  0.00    +0.000 OA
ATOM      7  C   UNL     1     112.732 126.805 136.449  0.00  0.00    +0.000 C 
ATOM      8  C   UNL     1     113.554 126.785 136.526  0.00  0.00    +0.000 C 
ATOM      9  O   UNL     1     114.006 127.434 136.294  0.00  0.00    +0.000 OA
ATOM     10  C   UNL     1     113.637 128.104 135.984  0.00  0.00    +0.000 A 
ATOM     11  C   UNL     1     114.089 128.753 135.752  0.00  0.00    +0.000 A 
ENDROOT
BRANCH   8  12
ATOM     12  C   UNL     1     113.923 126.114 136.836  0.00  0.00    +0.000 A 
ATOM     13  C   UNL     1     113.921 125.981 137.649  0.00  0.00    +0.000 A 
ATOM     14  C   UNL     1     114.289 125.310 137.959  0.00  0.00    +0.000 A 
ATOM     15  C   UNL     1     114.660 124.774 137.454  0.00  0.00    +0.000 A 
ATOM     16  C   UNL     1     114.662 124.907 136.639  0.00  0.00    +0.000 A 
ATOM     17  C   UNL     1     114.293 125.577 136.330  0.00  0.00    +0.000 A 
ENDBRANCH   8  12
BRANCH   1  19
ATOM     18  C   UNL     1     114.650 130.463 135.758  0.00  0.00    +0.000 C 
ATOM     19  O   UNL     1     114.172 130.073 135.210  0.00  0.00    +0.000 OA
ENDBRANCH   1  19
BRANCH   3  20
ATOM     20  O   UNL     1     111.626 128.814 135.520  0.00  0.00    +0.000 OA
ATOM     21  C   UNL     1     111.262 129.452 135.145  0.00  0.00    +0.000 C 
ENDBRANCH   3  20
TORSDOF 3
ENDMDL
MODEL 4
REMARK VINA RESULT:      -7.6      2.324      3.063
REMARK  Name = null
REMARK  3 active torsions:
REMARK  status: ('A' for Active; 'I' for Inactive)
REMARK    1  A    between atoms: O_2  and  C_3
REMARK    2  A    between atoms: C_5  and  O_20
REMARK    3  A    between atoms: C_10  and  C_14
REMARK                            x       y       z     vdW  Elec       q    Type
REMARK                         _______ _______ _______ _____ _____    ______ ____
ROOT
ATOM      1  C   UNL     1     105.734 125.312 144.885  0.00  0.00    +0.000 A 
ATOM      2  C   UNL     1     106.030 126.070 144.744  0.00  0.00    +0.000 A 
ATOM      3  C   UNL     1     106.485 126.448 145.318  0.00  0.00    +0.000 A 
ATOM      4  C   UNL     1     106.644 126.070 146.033  0.00  0.00    +0.000 A 
ATOM      5  C   UNL     1     107.100 126.449 146.608  0.00  0.00    +0.000 C 
ATOM      6  O   UNL     1     107.395 127.206 146.467  0.00  0.00    +0.000 OA
ATOM      7  C   UNL     1     107.259 126.071 147.323  0.00  0.00    +0.000 C 
ATOM      8  C   UNL     1     106.963 125.313 147.464  0.00  0.00    +0.000 C 
ATOM      9  O   UNL     1     106.509 124.934 146.890  0.00  0.00    +0.000 OA
ATOM     10  C   UNL     1     106.349 125.312 146.174  0.00  0.00    +0.000 A 
ATOM     11  C   UNL     1     105.894 124.934 145.600  0.00  0.00    +0.000 A 
ENDROOT
BRANCH   8  12
ATOM     12  C   UNL     1     107.123 124.935 148.180  0.00  0.00    +0.000 A 
ATOM     13  C   UNL     1     107.903 124.805 148.413  0.00  0.00    +0.000 A 
ATOM     14  C   UNL     1     108.063 124.427 149.129  0.00  0.00    +0.000 A 
ATOM     15  C   UNL     1     107.442 124.179 149.612  0.00  0.00    +0.000 A 
ATOM     16  C   UNL     1     106.661 124.309 149.379  0.00  0.00    +0.000 A 
ATOM     17  C   UNL     1     106.502 124.687 148.663  0.00  0.00    +0.000 A 
ENDBRANCH   8  12
BRANCH   1  19
ATOM     18  C   UNL     1     105.549 124.236 143.962  0.00  0.00    +0.000 C 
ATOM     19  O   UNL     1     105.279 124.933 144.310  0.00  0.00    +0.000 OA
ENDBRANCH   1  19
BRANCH   3  20
ATOM     20  O   UNL     1     106.780 127.206 145.177  0.00  0.00    +0.000 OA
ATOM     21  C   UNL     1     106.616 127.587 144.464  0.00  0.00    +0.000 C 
ENDBRANCH   3  20
TORSDOF 3
ENDMDL
MODEL 5
REMARK VINA RESULT:      -7.6      2.668      3.801
REMARK  Name = null
REMARK  3 active torsions:
REMARK  status: ('A' for Active; 'I' for Inactive)
REMARK    1  A    between atoms: O_2  and  C_3
REMARK    2  A    between atoms: C_5  and  O_20
REMARK    3  A    between atoms: C_10  and  C_14
REMARK                            x       y       z     vdW  Elec       q    Type
REMARK                         _______ _______ _______ _____ _____    ______ ____
ROOT
ATOM      1  C   UNL     1     106.741 127.777 145.924  0.00  0.00    +0.000 A 
ATOM      2  C   UNL     1     106.521 127.331 145.265  0.00  0.00    +0.000 A 
ATOM      3  C   UNL     1     106.467 126.510 145.322  0.00  0.00    +0.000 A 
ATOM      4  C   UNL     1     106.634 126.134 146.036  0.00  0.00    +0.000 A 
ATOM      5  C   UNL     1     106.581 125.313 146.093  0.00  0.00    +0.000 C 
ATOM      6  O   UNL     1     106.361 124.867 145.435  0.00  0.00    +0.000 OA
ATOM      7  C   UNL     1     106.748 124.937 146.808  0.00  0.00    +0.000 C 
ATOM      8  C   UNL     1     106.969 125.383 147.467  0.00  0.00    +0.000 C 
ATOM      9  O   UNL     1     107.022 126.204 147.410  0.00  0.00    +0.000 OA
ATOM     10  C   UNL     1     106.855 126.580 146.696  0.00  0.00    +0.000 A 
ATOM     11  C   UNL     1     106.908 127.401 146.639  0.00  0.00    +0.000 A 
ENDROOT
BRANCH   8  12
ATOM     12  C   UNL     1     107.136 125.006 148.182  0.00  0.00    +0.000 A 
ATOM     13  C   UNL     1     107.917 124.849 148.394  0.00  0.00    +0.000 A 
ATOM     14  C   UNL     1     108.084 124.473 149.108  0.00  0.00    +0.000 A 
ATOM     15  C   UNL     1     107.469 124.253 149.612  0.00  0.00    +0.000 A 
ATOM     16  C   UNL     1     106.686 124.410 149.400  0.00  0.00    +0.000 A 
ATOM     17  C   UNL     1     106.521 124.786 148.686  0.00  0.00    +0.000 A 
ENDBRANCH   8  12
BRANCH   1  19
ATOM     18  C   UNL     1     107.533 128.967 145.881  0.00  0.00    +0.000 C 
ATOM     19  O   UNL     1     106.795 128.598 145.867  0.00  0.00    +0.000 OA
ENDBRANCH   1  19
BRANCH   3  20
ATOM     20  O   UNL     1     106.247 126.065 144.663  0.00  0.00    +0.000 OA
ATOM     21  C   UNL     1     106.070 126.441 143.951  0.00  0.00    +0.000 C 
ENDBRANCH   3  20
TORSDOF 3
ENDMDL
MODEL 6
REMARK VINA RESULT:      -7.6     13.253     14.087
REMARK  Name = null
REMARK  3 active torsions:
REMARK  status: ('A' for Active; 'I' for Inactive)
REMARK    1  A    between atoms: O_2  and  C_3
REMARK    2  A    between atoms: C_5  and  O_20
REMARK    3  A    between atoms: C_10  and  C_14
REMARK                            x       y       z     vdW  Elec       q    Type
REMARK                         _______ _______ _______ _____ _____    ______ ____
ROOT
ATOM      1  C   UNL     1     110.845 125.592 135.698  0.00  0.00    +0.000 A 
ATOM      2  C   UNL     1     111.256 124.967 136.049  0.00  0.00    +0.000 A 
ATOM      3  C   UNL     1     111.998 125.098 136.382  0.00  0.00    +0.000 A 
ATOM      4  C   UNL     1     112.331 125.852 136.365  0.00  0.00    +0.000 A 
ATOM      5  C   UNL     1     113.075 125.983 136.698  0.00  0.00    +0.000 C 
ATOM      6  O   UNL     1     113.485 125.359 137.048  0.00  0.00    +0.000 OA
ATOM      7  C   UNL     1     113.408 126.737 136.681  0.00  0.00    +0.000 C 
ATOM      8  C   UNL     1     112.997 127.362 136.330  0.00  0.00    +0.000 C 
ATOM      9  O   UNL     1     112.254 127.231 135.997  0.00  0.00    +0.000 OA
ATOM     10  C   UNL     1     111.920 126.476 136.014  0.00  0.00    +0.000 A 
ATOM     11  C   UNL     1     111.178 126.346 135.681  0.00  0.00    +0.000 A 
ENDROOT
BRANCH   8  12
ATOM     12  C   UNL     1     113.330 128.116 136.313  0.00  0.00    +0.000 A 
ATOM     13  C   UNL     1     113.166 128.654 136.916  0.00  0.00    +0.000 A 
ATOM     14  C   UNL     1     113.499 129.409 136.899  0.00  0.00    +0.000 A 
ATOM     15  C   UNL     1     113.998 129.625 136.279  0.00  0.00    +0.000 A 
ATOM     16  C   UNL     1     114.163 129.087 135.675  0.00  0.00    +0.000 A 
ATOM     17  C   UNL     1     113.829 128.333 135.693  0.00  0.00    +0.000 A 
ENDBRANCH   8  12
BRANCH   1  19
ATOM     18  C   UNL     1     109.910 125.795 134.635  0.00  0.00    +0.000 C 
ATOM     19  O   UNL     1     110.102 125.461 135.365  0.00  0.00    +0.000 OA
ENDBRANCH   1  19
BRANCH   3  20
ATOM     20  O   UNL     1     112.409 124.474 136.732  0.00  0.00    +0.000 OA
ATOM     21  C   UNL     1     112.064 123.726 136.776  0.00  0.00    +0.000 C 
ENDBRANCH   3  20
TORSDOF 3
ENDMDL
MODEL 7
REMARK VINA RESULT:      -7.5     11.023     12.500
REMARK  Name = null
REMARK  3 active torsions:
REMARK  status: ('A' for Active; 'I' for Inactive)
REMARK    1  A    between atoms: O_2  and  C_3
REMARK    2  A    between atoms: C_5  and  O_20
REMARK    3  A    between atoms: C_10  and  C_14
REMARK                            x       y       z     vdW  Elec       q    Type
REMARK                         _______ _______ _______ _____ _____    ______ ____
ROOT
ATOM      1  C   UNL     1     113.248 127.505 140.685  0.00  0.00    +0.000 A 
ATOM      2  C   UNL     1     112.477 127.229 140.790  0.00  0.00    +0.000 A 
ATOM      3  C   UNL     1     112.146 126.711 140.240  0.00  0.00    +0.000 A 
ATOM      4  C   UNL     1     112.585 126.470 139.585  0.00  0.00    +0.000 A 
ATOM      5  C   UNL     1     112.255 125.951 139.034  0.00  0.00    +0.000 C 
ATOM      6  O   UNL     1     111.485 125.675 139.139  0.00  0.00    +0.000 OA
ATOM      7  C   UNL     1     112.693 125.710 138.380  0.00  0.00    +0.000 C 
ATOM      8  C   UNL     1     113.465 125.987 138.274  0.00  0.00    +0.000 C 
ATOM      9  O   UNL     1     113.795 126.504 138.824  0.00  0.00    +0.000 OA
ATOM     10  C   UNL     1     113.356 126.746 139.480  0.00  0.00    +0.000 A 
ATOM     11  C   UNL     1     113.687 127.264 140.030  0.00  0.00    +0.000 A 
ENDROOT
BRANCH   8  12
ATOM     12  C   UNL     1     113.903 125.745 137.619  0.00  0.00    +0.000 A 
ATOM     13  C   UNL     1     113.880 126.183 136.921  0.00  0.00    +0.000 A 
ATOM     14  C   UNL     1     114.319 125.941 136.266  0.00  0.00    +0.000 A 
ATOM     15  C   UNL     1     114.781 125.260 136.309  0.00  0.00    +0.000 A 
ATOM     16  C   UNL     1     114.805 124.820 137.007  0.00  0.00    +0.000 A 
ATOM     17  C   UNL     1     114.366 125.063 137.662  0.00  0.00    +0.000 A 
ENDBRANCH   8  12
BRANCH   1  19
ATOM     18  C   UNL     1     113.760 128.798 141.018  0.00  0.00    +0.000 C 
ATOM     19  O   UNL     1     113.579 128.024 141.235  0.00  0.00    +0.000 OA
ENDBRANCH   1  19
BRANCH   3  20
ATOM     20  O   UNL     1     111.376 126.435 140.345  0.00  0.00    +0.000 OA
ATOM     21  C   UNL     1     110.949 126.648 141.018  0.00  0.00    +0.000 C 
ENDBRANCH   3  20
TORSDOF 3
ENDMDL
MODEL 8
REMARK VINA RESULT:      -7.5     13.448     14.024
REMARK  Name = null
REMARK  3 active torsions:
REMARK  status: ('A' for Active; 'I' for Inactive)
REMARK    1  A    between atoms: O_2  and  C_3
REMARK    2  A    between atoms: C_5  and  O_20
REMARK    3  A    between atoms: C_10  and  C_14
REMARK                            x       y       z     vdW  Elec       q    Type
REMARK                         _______ _______ _______ _____ _____    ______ ____
ROOT
ATOM      1  C   UNL     1     110.495 126.817 135.386  0.00  0.00    +0.000 A 
ATOM      2  C   UNL     1     110.663 127.618 135.272  0.00  0.00    +0.000 A 
ATOM      3  C   UNL     1     111.394 127.922 135.500  0.00  0.00    +0.000 A 
ATOM      4  C   UNL     1     111.958 127.427 135.841  0.00  0.00    +0.000 A 
ATOM      5  C   UNL     1     112.691 127.731 136.070  0.00  0.00    +0.000 C 
ATOM      6  O   UNL     1     112.859 128.530 135.956  0.00  0.00    +0.000 OA
ATOM      7  C   UNL     1     113.255 127.236 136.411  0.00  0.00    +0.000 C 
ATOM      8  C   UNL     1     113.086 126.435 136.525  0.00  0.00    +0.000 C 
ATOM      9  O   UNL     1     112.355 126.131 136.297  0.00  0.00    +0.000 OA
ATOM     10  C   UNL     1     111.790 126.626 135.955  0.00  0.00    +0.000 A 
ATOM     11  C   UNL     1     111.058 126.323 135.727  0.00  0.00    +0.000 A 
ENDROOT
BRANCH   8  12
ATOM     12  C   UNL     1     113.651 125.940 136.867  0.00  0.00    +0.000 A 
ATOM     13  C   UNL     1     113.723 125.900 137.687  0.00  0.00    +0.000 A 
ATOM     14  C   UNL     1     114.288 125.405 138.029  0.00  0.00    +0.000 A 
ATOM     15  C   UNL     1     114.781 124.950 137.549  0.00  0.00    +0.000 A 
ATOM     16  C   UNL     1     114.710 124.990 136.728  0.00  0.00    +0.000 A 
ATOM     17  C   UNL     1     114.145 125.485 136.387  0.00  0.00    +0.000 A 
ENDBRANCH   8  12
BRANCH   1  19
ATOM     18  C   UNL     1     109.723 125.844 134.677  0.00  0.00    +0.000 C 
ATOM     19  O   UNL     1     109.762 126.514 135.158  0.00  0.00    +0.000 OA
ENDBRANCH   1  19
BRANCH   3  20
ATOM     20  O   UNL     1     111.562 128.722 135.386  0.00  0.00    +0.000 OA
ATOM     21  C   UNL     1     110.996 129.219 135.051  0.00  0.00    +0.000 C 
ENDBRANCH   3  20
TORSDOF 3
ENDMDL
MODEL 9
REMARK VINA RESULT:      -7.4      1.613      3.987
REMARK  Name = null
REMARK  3 active torsions:
REMARK  status: ('A' for Active; 'I' for Inactive)
REMARK    1  A    between atoms: O_2  and  C_3
REMARK    2  A    between atoms: C_5  and  O_20
REMARK    3  A    between atoms: C_10  and  C_14
REMARK                            x       y       z     vdW  Elec       q    Type
REMARK                         _______ _______ _______ _____ _____    ______ ____
ROOT
ATOM      1  C   UNL     1     106.177 125.366 145.441  0.00  0.00    +0.000 A 
ATOM      2  C   UNL     1     106.543 125.336 146.181  0.00  0.00    +0.000 A 
ATOM      3  C   UNL     1     106.133 125.043 146.832  0.00  0.00    +0.000 A 
ATOM      4  C   UNL     1     105.356 124.779 146.747  0.00  0.00    +0.000 A 
ATOM      5  C   UNL     1     104.945 124.485 147.399  0.00  0.00    +0.000 C 
ATOM      6  O   UNL     1     105.312 124.455 148.137  0.00  0.00    +0.000 OA
ATOM      7  C   UNL     1     104.169 124.222 147.313  0.00  0.00    +0.000 C 
ATOM      8  C   UNL     1     103.802 124.253 146.574  0.00  0.00    +0.000 C 
ATOM      9  O   UNL     1     104.212 124.546 145.922  0.00  0.00    +0.000 OA
ATOM     10  C   UNL     1     104.990 124.810 146.007  0.00  0.00    +0.000 A 
ATOM     11  C   UNL     1     105.400 125.103 145.355  0.00  0.00    +0.000 A 
ENDROOT
BRANCH   8  12
ATOM     12  C   UNL     1     103.024 123.989 146.488  0.00  0.00    +0.000 A 
ATOM     13  C   UNL     1     102.872 123.264 146.127  0.00  0.00    +0.000 A 
ATOM     14  C   UNL     1     102.094 123.000 146.042  0.00  0.00    +0.000 A 
ATOM     15  C   UNL     1     101.470 123.463 146.318  0.00  0.00    +0.000 A 
ATOM     16  C   UNL     1     101.622 124.190 146.679  0.00  0.00    +0.000 A 
ATOM     17  C   UNL     1     102.400 124.452 146.764  0.00  0.00    +0.000 A 
ENDBRANCH   8  12
BRANCH   1  19
ATOM     18  C   UNL     1     106.321 126.339 144.403  0.00  0.00    +0.000 C 
ATOM     19  O   UNL     1     106.588 125.660 144.789  0.00  0.00    +0.000 OA
ENDBRANCH   1  19
BRANCH   3  20
ATOM     20  O   UNL     1     106.499 125.012 147.571  0.00  0.00    +0.000 OA
ATOM     21  C   UNL     1     107.292 125.227 147.648  0.00  0.00    +0.000 C 
ENDBRANCH   3  20
TORSDOF 3
ENDMDL
MODEL 10
REMARK VINA RESULT:      -7.3     12.420     13.792
REMARK  Name = null
REMARK  3 active torsions:
REMARK  status: ('A' for Active; 'I' for Inactive)
REMARK    1  A    between atoms: O_2  and  C_3
REMARK    2  A    between atoms: C_5  and  O_20
REMARK    3  A    between atoms: C_10  and  C_14
REMARK                            x       y       z     vdW  Elec       q    Type
REMARK                         _______ _______ _______ _____ _____    ______ ____
ROOT
ATOM      1  C   UNL     1     114.173 125.249 137.319  0.00  0.00    +0.000 A 
ATOM      2  C   UNL     1     114.053 125.654 138.029  0.00  0.00    +0.000 A 
ATOM      3  C   UNL     1     113.356 126.078 138.148  0.00  0.00    +0.000 A 
ATOM      4  C   UNL     1     112.779 126.098 137.560  0.00  0.00    +0.000 A 
ATOM      5  C   UNL     1     112.082 126.522 137.679  0.00  0.00    +0.000 C 
ATOM      6  O   UNL     1     111.961 126.926 138.388  0.00  0.00    +0.000 OA
ATOM      7  C   UNL     1     111.505 126.542 137.090  0.00  0.00    +0.000 C 
ATOM      8  C   UNL     1     111.626 126.138 136.380  0.00  0.00    +0.000 C 
ATOM      9  O   UNL     1     112.323 125.714 136.260  0.00  0.00    +0.000 OA
ATOM     10  C   UNL     1     112.900 125.694 136.850  0.00  0.00    +0.000 A 
ATOM     11  C   UNL     1     113.597 125.270 136.730  0.00  0.00    +0.000 A 
ENDROOT
BRANCH   8  12
ATOM     12  C   UNL     1     111.048 126.159 135.791  0.00  0.00    +0.000 A 
ATOM     13  C   UNL     1     110.531 125.524 135.697  0.00  0.00    +0.000 A 
ATOM     14  C   UNL     1     109.954 125.544 135.108  0.00  0.00    +0.000 A 
ATOM     15  C   UNL     1     109.894 126.201 134.612  0.00  0.00    +0.000 A 
ATOM     16  C   UNL     1     110.412 126.837 134.706  0.00  0.00    +0.000 A 
ATOM     17  C   UNL     1     110.989 126.816 135.295  0.00  0.00    +0.000 A 
ENDBRANCH   8  12
BRANCH   1  19
ATOM     18  C   UNL     1     115.329 124.962 136.527  0.00  0.00    +0.000 C 
ATOM     19  O   UNL     1     114.871 124.825 137.200  0.00  0.00    +0.000 OA
ENDBRANCH   1  19
BRANCH   3  20
ATOM     20  O   UNL     1     113.235 126.481 138.858  0.00  0.00    +0.000 OA
ATOM     21  C   UNL     1     113.824 126.486 139.435  0.00  0.00    +0.000 C 
ENDBRANCH   3  20
TORSDOF 3
ENDMDL
