MODEL 1
REMARK VINA RESULT:      -7.7      0.000      0.000
REMARK  Name = 10833336
REMARK  5 active torsions:
REMARK  status: ('A' for Active; 'I' for Inactive)
REMARK    1  A    between atoms: O_4  and  C_19
REMARK    2  A    between atoms: O_5  and  C_20
REMARK    3  A    between atoms: O_6  and  C_21
REMARK    4  A    between atoms: O_7  and  C_23
REMARK    5  A    between atoms: C_9  and  C_11
REMARK                            x       y       z     vdW  Elec       q    Type
REMARK                         _______ _______ _______ _____ _____    ______ ____
ROOT
ATOM      1  O   UNL     1     103.984 124.688 147.599  0.00  0.00    +0.000 OA
ATOM      2  O   UNL     1     103.665 123.591 145.340  0.00  0.00    +0.000 OA
ATOM      3  O   UNL     1     102.249 123.504 145.609  0.00  0.00    +0.000 OA
ATOM      4  C   UNL     1     104.667 124.556 147.095  0.00  0.00    +0.000 C 
ATOM      5  C   UNL     1     104.562 124.184 146.328  0.00  0.00    +0.000 C 
ATOM      6  C   UNL     1     103.104 124.089 146.593  0.00  0.00    +0.000 A 
ATOM      7  C   UNL     1     103.774 123.949 146.075  0.00  0.00    +0.000 C 
ATOM      8  C   UNL     1     103.205 124.446 147.330  0.00  0.00    +0.000 A 
ATOM      9  C   UNL     1     102.350 123.861 146.345  0.00  0.00    +0.000 A 
ATOM     10  C   UNL     1     102.552 124.576 147.819  0.00  0.00    +0.000 A 
ATOM     11  C   UNL     1     101.699 123.991 146.833  0.00  0.00    +0.000 A 
ATOM     12  C   UNL     1     101.800 124.348 147.570  0.00  0.00    +0.000 A 
ENDROOT
BRANCH   4  14
ATOM     13  O   UNL     1     106.930 124.178 148.799  0.00  0.00    +0.000 OA
ATOM     14  C   UNL     1     105.419 124.785 147.346  0.00  0.00    +0.000 A 
ATOM     15  C   UNL     1     105.791 125.434 146.996  0.00  0.00    +0.000 A 
ATOM     16  C   UNL     1     105.799 124.367 147.947  0.00  0.00    +0.000 A 
ATOM     17  C   UNL     1     106.542 125.663 147.247  0.00  0.00    +0.000 A 
ATOM     18  C   UNL     1     106.550 124.596 148.198  0.00  0.00    +0.000 A 
ATOM     19  C   UNL     1     106.922 125.245 147.848  0.00  0.00    +0.000 A 
BRANCH  17  20
ATOM     20  O   UNL     1     106.914 126.311 146.896  0.00  0.00    +0.000 OA
ATOM     21  C   UNL     1     106.466 126.956 146.642  0.00  0.00    +0.000 C 
ENDBRANCH  17  20
BRANCH  19  22
ATOM     22  O   UNL     1     107.673 125.474 148.098  0.00  0.00    +0.000 OA
ATOM     23  C   UNL     1     108.310 124.955 148.024  0.00  0.00    +0.000 C 
ENDBRANCH  19  22
ENDBRANCH   4  14
BRANCH  11  24
ATOM     24  O   UNL     1     100.945 123.763 146.586  0.00  0.00    +0.000 OA
ATOM     25  C   UNL     1     100.710 122.975 146.649  0.00  0.00    +0.000 C 
ENDBRANCH  11  24
BRANCH  12  26
ATOM     26  O   UNL     1     101.147 124.478 148.059  0.00  0.00    +0.000 OA
ATOM     27  C   UNL     1     101.195 125.025 148.675  0.00  0.00    +0.000 C 
ENDBRANCH  12  26
TORSDOF 5
ENDMDL
MODEL 2
REMARK VINA RESULT:      -7.7     12.956     14.412
REMARK  Name = 10833336
REMARK  5 active torsions:
REMARK  status: ('A' for Active; 'I' for Inactive)
REMARK    1  A    between atoms: O_4  and  C_19
REMARK    2  A    between atoms: O_5  and  C_20
REMARK    3  A    between atoms: O_6  and  C_21
REMARK    4  A    between atoms: O_7  and  C_23
REMARK    5  A    between atoms: C_9  and  C_11
REMARK                            x       y       z     vdW  Elec       q    Type
REMARK                         _______ _______ _______ _____ _____    ______ ____
ROOT
ATOM      1  O   UNL     1     112.594 127.277 136.011  0.00  0.00    +0.000 OA
ATOM      2  O   UNL     1     113.661 126.079 137.970  0.00  0.00    +0.000 OA
ATOM      3  O   UNL     1     112.714 125.003 137.796  0.00  0.00    +0.000 OA
ATOM      4  C   UNL     1     113.258 127.642 136.417  0.00  0.00    +0.000 C 
ATOM      5  C   UNL     1     113.622 127.238 137.082  0.00  0.00    +0.000 C 
ATOM      6  C   UNL     1     112.653 126.125 136.914  0.00  0.00    +0.000 A 
ATOM      7  C   UNL     1     113.317 126.474 137.332  0.00  0.00    +0.000 C 
ATOM      8  C   UNL     1     112.304 126.513 136.275  0.00  0.00    +0.000 A 
ATOM      9  C   UNL     1     112.365 125.391 137.158  0.00  0.00    +0.000 A 
ATOM     10  C   UNL     1     111.666 126.168 135.880  0.00  0.00    +0.000 A 
ATOM     11  C   UNL     1     111.728 125.046 136.764  0.00  0.00    +0.000 A 
ATOM     12  C   UNL     1     111.379 125.434 136.125  0.00  0.00    +0.000 A 
ENDROOT
BRANCH   4  14
ATOM     13  O   UNL     1     114.992 129.193 134.757  0.00  0.00    +0.000 OA
ATOM     14  C   UNL     1     113.543 128.377 136.170  0.00  0.00    +0.000 A 
ATOM     15  C   UNL     1     113.246 129.069 136.506  0.00  0.00    +0.000 A 
ATOM     16  C   UNL     1     114.125 128.418 135.587  0.00  0.00    +0.000 A 
ATOM     17  C   UNL     1     113.530 129.803 136.260  0.00  0.00    +0.000 A 
ATOM     18  C   UNL     1     114.410 129.151 135.340  0.00  0.00    +0.000 A 
ATOM     19  C   UNL     1     114.112 129.844 135.676  0.00  0.00    +0.000 A 
BRANCH  17  20
ATOM     20  O   UNL     1     113.233 130.495 136.596  0.00  0.00    +0.000 OA
ATOM     21  C   UNL     1     112.472 130.505 136.914  0.00  0.00    +0.000 C 
ENDBRANCH  17  20
BRANCH  19  22
ATOM     22  O   UNL     1     114.397 130.577 135.430  0.00  0.00    +0.000 OA
ATOM     23  C   UNL     1     115.181 130.786 135.577  0.00  0.00    +0.000 C 
ENDBRANCH  19  22
ENDBRANCH   4  14
BRANCH  11  24
ATOM     24  O   UNL     1     111.440 124.312 137.008  0.00  0.00    +0.000 OA
ATOM     25  C   UNL     1     111.845 123.623 136.809  0.00  0.00    +0.000 C 
ENDBRANCH  11  24
BRANCH  12  26
ATOM     26  O   UNL     1     110.741 125.089 135.731  0.00  0.00    +0.000 OA
ATOM     27  C   UNL     1     110.296 125.533 135.197  0.00  0.00    +0.000 C 
ENDBRANCH  12  26
TORSDOF 5
ENDMDL
MODEL 3
REMARK VINA RESULT:      -7.6     11.196     12.988
REMARK  Name = 10833336
REMARK  5 active torsions:
REMARK  status: ('A' for Active; 'I' for Inactive)
REMARK    1  A    between atoms: O_4  and  C_19
REMARK    2  A    between atoms: O_5  and  C_20
REMARK    3  A    between atoms: O_6  and  C_21
REMARK    4  A    between atoms: O_7  and  C_23
REMARK    5  A    between atoms: C_9  and  C_11
REMARK                            x       y       z     vdW  Elec       q    Type
REMARK                         _______ _______ _______ _____ _____    ______ ____
ROOT
ATOM      1  O   UNL     1     110.475 127.456 136.326  0.00  0.00    +0.000 OA
ATOM      2  O   UNL     1     107.972 127.286 135.988  0.00  0.00    +0.000 OA
ATOM      3  O   UNL     1     107.942 128.694 135.673  0.00  0.00    +0.000 OA
ATOM      4  C   UNL     1     110.086 126.697 136.435  0.00  0.00    +0.000 C 
ATOM      5  C   UNL     1     109.237 126.636 136.321  0.00  0.00    +0.000 C 
ATOM      6  C   UNL     1     109.194 128.085 135.995  0.00  0.00    +0.000 A 
ATOM      7  C   UNL     1     108.788 127.335 136.100  0.00  0.00    +0.000 C 
ATOM      8  C   UNL     1     110.010 128.143 136.105  0.00  0.00    +0.000 A 
ATOM      9  C   UNL     1     108.758 128.752 135.783  0.00  0.00    +0.000 A 
ATOM     10  C   UNL     1     110.389 128.869 136.002  0.00  0.00    +0.000 A 
ATOM     11  C   UNL     1     109.137 129.477 135.680  0.00  0.00    +0.000 A 
ATOM     12  C   UNL     1     109.952 129.536 135.789  0.00  0.00    +0.000 A 
ENDROOT
BRANCH   4  14
ATOM     13  O   UNL     1     111.504 124.327 135.699  0.00  0.00    +0.000 OA
ATOM     14  C   UNL     1     110.526 126.032 136.648  0.00  0.00    +0.000 A 
ATOM     15  C   UNL     1     110.696 125.887 137.442  0.00  0.00    +0.000 A 
ATOM     16  C   UNL     1     110.795 125.512 136.067  0.00  0.00    +0.000 A 
ATOM     17  C   UNL     1     111.135 125.222 137.656  0.00  0.00    +0.000 A 
ATOM     18  C   UNL     1     111.234 124.847 136.280  0.00  0.00    +0.000 A 
ATOM     19  C   UNL     1     111.405 124.702 137.075  0.00  0.00    +0.000 A 
BRANCH  17  20
ATOM     20  O   UNL     1     111.305 125.078 138.450  0.00  0.00    +0.000 OA
ATOM     21  C   UNL     1     111.092 125.630 139.025  0.00  0.00    +0.000 C 
ENDBRANCH  17  20
BRANCH  19  22
ATOM     22  O   UNL     1     111.844 124.038 137.288  0.00  0.00    +0.000 OA
ATOM     23  C   UNL     1     112.612 123.943 137.003  0.00  0.00    +0.000 C 
ENDBRANCH  19  22
ENDBRANCH   4  14
BRANCH  11  24
ATOM     24  O   UNL     1     108.701 130.145 135.467  0.00  0.00    +0.000 OA
ATOM     25  C   UNL     1     108.309 130.584 136.045  0.00  0.00    +0.000 C 
ENDBRANCH  11  24
BRANCH  12  26
ATOM     26  O   UNL     1     110.332 130.262 135.686  0.00  0.00    +0.000 OA
ATOM     27  C   UNL     1     111.152 130.313 135.762  0.00  0.00    +0.000 C 
ENDBRANCH  12  26
TORSDOF 5
ENDMDL
MODEL 4
REMARK VINA RESULT:      -7.6     11.733     13.414
REMARK  Name = 10833336
REMARK  5 active torsions:
REMARK  status: ('A' for Active; 'I' for Inactive)
REMARK    1  A    between atoms: O_4  and  C_19
REMARK    2  A    between atoms: O_5  and  C_20
REMARK    3  A    between atoms: O_6  and  C_21
REMARK    4  A    between atoms: O_7  and  C_23
REMARK    5  A    between atoms: C_9  and  C_11
REMARK                            x       y       z     vdW  Elec       q    Type
REMARK                         _______ _______ _______ _____ _____    ______ ____
ROOT
ATOM      1  O   UNL     1     110.530 127.059 136.636  0.00  0.00    +0.000 OA
ATOM      2  O   UNL     1     110.429 125.190 134.931  0.00  0.00    +0.000 OA
ATOM      3  O   UNL     1     111.142 124.341 135.855  0.00  0.00    +0.000 OA
ATOM      4  C   UNL     1     110.144 127.199 135.881  0.00  0.00    +0.000 C 
ATOM      5  C   UNL     1     110.108 126.566 135.301  0.00  0.00    +0.000 C 
ATOM      6  C   UNL     1     110.841 125.683 136.243  0.00  0.00    +0.000 A 
ATOM      7  C   UNL     1     110.459 125.803 135.483  0.00  0.00    +0.000 C 
ATOM      8  C   UNL     1     110.876 126.290 136.800  0.00  0.00    +0.000 A 
ATOM      9  C   UNL     1     111.176 124.948 136.413  0.00  0.00    +0.000 A 
ATOM     10  C   UNL     1     111.245 126.163 137.527  0.00  0.00    +0.000 A 
ATOM     11  C   UNL     1     111.546 124.821 137.139  0.00  0.00    +0.000 A 
ATOM     12  C   UNL     1     111.580 125.428 137.696  0.00  0.00    +0.000 A 
ENDROOT
BRANCH   4  14
ATOM     13  O   UNL     1     107.878 128.941 135.859  0.00  0.00    +0.000 OA
ATOM     14  C   UNL     1     109.810 127.935 135.715  0.00  0.00    +0.000 A 
ATOM     15  C   UNL     1     110.275 128.536 135.394  0.00  0.00    +0.000 A 
ATOM     16  C   UNL     1     109.011 128.070 135.870  0.00  0.00    +0.000 A 
ATOM     17  C   UNL     1     109.942 129.272 135.228  0.00  0.00    +0.000 A 
ATOM     18  C   UNL     1     108.677 128.806 135.704  0.00  0.00    +0.000 A 
ATOM     19  C   UNL     1     109.143 129.407 135.383  0.00  0.00    +0.000 A 
BRANCH  17  20
ATOM     20  O   UNL     1     110.408 129.872 134.907  0.00  0.00    +0.000 OA
ATOM     21  C   UNL     1     111.215 129.751 134.789  0.00  0.00    +0.000 C 
ENDBRANCH  17  20
BRANCH  19  22
ATOM     22  O   UNL     1     108.810 130.142 135.217  0.00  0.00    +0.000 OA
ATOM     23  C   UNL     1     108.530 130.616 135.831  0.00  0.00    +0.000 C 
ENDBRANCH  19  22
ENDBRANCH   4  14
BRANCH  11  24
ATOM     24  O   UNL     1     111.881 124.086 137.308  0.00  0.00    +0.000 OA
ATOM     25  C   UNL     1     112.603 123.874 136.971  0.00  0.00    +0.000 C 
ENDBRANCH  11  24
BRANCH  12  26
ATOM     26  O   UNL     1     111.950 125.301 138.423  0.00  0.00    +0.000 OA
ATOM     27  C   UNL     1     111.965 125.901 138.989  0.00  0.00    +0.000 C 
ENDBRANCH  12  26
TORSDOF 5
ENDMDL
MODEL 5
REMARK VINA RESULT:      -7.6     12.800     14.894
REMARK  Name = 10833336
REMARK  5 active torsions:
REMARK  status: ('A' for Active; 'I' for Inactive)
REMARK    1  A    between atoms: O_4  and  C_19
REMARK    2  A    between atoms: O_5  and  C_20
REMARK    3  A    between atoms: O_6  and  C_21
REMARK    4  A    between atoms: O_7  and  C_23
REMARK    5  A    between atoms: C_9  and  C_11
REMARK                            x       y       z     vdW  Elec       q    Type
REMARK                         _______ _______ _______ _____ _____    ______ ____
ROOT
ATOM      1  O   UNL     1     113.834 127.479 136.409  0.00  0.00    +0.000 OA
ATOM      2  O   UNL     1     111.398 127.383 135.723  0.00  0.00    +0.000 OA
ATOM      3  O   UNL     1     111.361 126.001 136.138  0.00  0.00    +0.000 OA
ATOM      4  C   UNL     1     113.460 128.182 136.083  0.00  0.00    +0.000 C 
ATOM      5  C   UNL     1     112.634 128.152 135.849  0.00  0.00    +0.000 C 
ATOM      6  C   UNL     1     112.583 126.729 136.273  0.00  0.00    +0.000 A 
ATOM      7  C   UNL     1     112.192 127.420 135.945  0.00  0.00    +0.000 C 
ATOM      8  C   UNL     1     113.376 126.758 136.497  0.00  0.00    +0.000 A 
ATOM      9  C   UNL     1     112.154 126.030 136.362  0.00  0.00    +0.000 A 
ATOM     10  C   UNL     1     113.741 126.087 136.810  0.00  0.00    +0.000 A 
ATOM     11  C   UNL     1     112.518 125.360 136.675  0.00  0.00    +0.000 A 
ATOM     12  C   UNL     1     113.312 125.388 136.899  0.00  0.00    +0.000 A 
ENDROOT
BRANCH   4  14
ATOM     13  O   UNL     1     115.327 129.769 134.612  0.00  0.00    +0.000 OA
ATOM     14  C   UNL     1     113.892 128.879 135.995  0.00  0.00    +0.000 A 
ATOM     15  C   UNL     1     113.822 129.481 136.556  0.00  0.00    +0.000 A 
ATOM     16  C   UNL     1     114.394 128.976 135.347  0.00  0.00    +0.000 A 
ATOM     17  C   UNL     1     114.253 130.178 136.469  0.00  0.00    +0.000 A 
ATOM     18  C   UNL     1     114.825 129.672 135.260  0.00  0.00    +0.000 A 
ATOM     19  C   UNL     1     114.755 130.275 135.821  0.00  0.00    +0.000 A 
BRANCH  17  20
ATOM     20  O   UNL     1     114.183 130.779 137.029  0.00  0.00    +0.000 OA
ATOM     21  C   UNL     1     113.896 130.609 137.783  0.00  0.00    +0.000 C 
ENDBRANCH  17  20
BRANCH  19  22
ATOM     22  O   UNL     1     115.187 130.971 135.733  0.00  0.00    +0.000 OA
ATOM     23  C   UNL     1     115.214 131.351 135.002  0.00  0.00    +0.000 C 
ENDBRANCH  19  22
ENDBRANCH   4  14
BRANCH  11  24
ATOM     24  O   UNL     1     112.090 124.660 136.765  0.00  0.00    +0.000 OA
ATOM     25  C   UNL     1     111.582 124.566 137.407  0.00  0.00    +0.000 C 
ENDBRANCH  11  24
BRANCH  12  26
ATOM     26  O   UNL     1     113.677 124.717 137.213  0.00  0.00    +0.000 OA
ATOM     27  C   UNL     1     114.500 124.674 137.249  0.00  0.00    +0.000 C 
ENDBRANCH  12  26
TORSDOF 5
ENDMDL
MODEL 6
REMARK VINA RESULT:      -7.6     12.630     14.252
REMARK  Name = 10833336
REMARK  5 active torsions:
REMARK  status: ('A' for Active; 'I' for Inactive)
REMARK    1  A    between atoms: O_4  and  C_19
REMARK    2  A    between atoms: O_5  and  C_20
REMARK    3  A    between atoms: O_6  and  C_21
REMARK    4  A    between atoms: O_7  and  C_23
REMARK    5  A    between atoms: C_9  and  C_11
REMARK                            x       y       z     vdW  Elec       q    Type
REMARK                         _______ _______ _______ _____ _____    ______ ____
ROOT
ATOM      1  O   UNL     1     112.652 127.397 137.294  0.00  0.00    +0.000 OA
ATOM      2  O   UNL     1     114.175 128.455 135.570  0.00  0.00    +0.000 OA
ATOM      3  O   UNL     1     114.077 129.705 136.285  0.00  0.00    +0.000 OA
ATOM      4  C   UNL     1     112.949 126.919 136.644  0.00  0.00    +0.000 C 
ATOM      5  C   UNL     1     113.466 127.275 136.057  0.00  0.00    +0.000 C 
ATOM      6  C   UNL     1     113.372 128.566 136.785  0.00  0.00    +0.000 A 
ATOM      7  C   UNL     1     113.679 128.105 136.129  0.00  0.00    +0.000 C 
ATOM      8  C   UNL     1     112.876 128.224 137.348  0.00  0.00    +0.000 A 
ATOM      9  C   UNL     1     113.580 129.362 136.848  0.00  0.00    +0.000 A 
ATOM     10  C   UNL     1     112.587 128.678 137.974  0.00  0.00    +0.000 A 
ATOM     11  C   UNL     1     113.292 129.816 137.474  0.00  0.00    +0.000 A 
ATOM     12  C   UNL     1     112.796 129.474 138.037  0.00  0.00    +0.000 A 
ENDROOT
BRANCH   4  14
ATOM     13  O   UNL     1     113.586 124.156 137.002  0.00  0.00    +0.000 OA
ATOM     14  C   UNL     1     112.738 126.123 136.584  0.00  0.00    +0.000 A 
ATOM     15  C   UNL     1     111.998 125.914 136.285  0.00  0.00    +0.000 A 
ATOM     16  C   UNL     1     113.267 125.537 136.823  0.00  0.00    +0.000 A 
ATOM     17  C   UNL     1     111.787 125.119 136.225  0.00  0.00    +0.000 A 
ATOM     18  C   UNL     1     113.057 124.742 136.763  0.00  0.00    +0.000 A 
ATOM     19  C   UNL     1     112.316 124.532 136.464  0.00  0.00    +0.000 A 
BRANCH  17  20
ATOM     20  O   UNL     1     111.047 124.910 135.925  0.00  0.00    +0.000 OA
ATOM     21  C   UNL     1     110.632 125.438 135.447  0.00  0.00    +0.000 C 
ENDBRANCH  17  20
BRANCH  19  22
ATOM     22  O   UNL     1     112.106 123.738 136.404  0.00  0.00    +0.000 OA
ATOM     23  C   UNL     1     111.996 123.288 137.086  0.00  0.00    +0.000 C 
ENDBRANCH  19  22
ENDBRANCH   4  14
BRANCH  11  24
ATOM     24  O   UNL     1     113.500 130.612 137.537  0.00  0.00    +0.000 OA
ATOM     25  C   UNL     1     113.108 131.179 137.085  0.00  0.00    +0.000 C 
ENDBRANCH  11  24
BRANCH  12  26
ATOM     26  O   UNL     1     112.507 129.928 138.663  0.00  0.00    +0.000 OA
ATOM     27  C   UNL     1     112.167 129.558 139.318  0.00  0.00    +0.000 C 
ENDBRANCH  12  26
TORSDOF 5
ENDMDL
MODEL 7
REMARK VINA RESULT:      -7.5      7.065      8.641
REMARK  Name = 10833336
REMARK  5 active torsions:
REMARK  status: ('A' for Active; 'I' for Inactive)
REMARK    1  A    between atoms: O_4  and  C_19
REMARK    2  A    between atoms: O_5  and  C_20
REMARK    3  A    between atoms: O_6  and  C_21
REMARK    4  A    between atoms: O_7  and  C_23
REMARK    5  A    between atoms: C_9  and  C_11
REMARK                            x       y       z     vdW  Elec       q    Type
REMARK                         _______ _______ _______ _____ _____    ______ ____
ROOT
ATOM      1  O   UNL     1     103.592 130.094 142.351  0.00  0.00    +0.000 OA
ATOM      2  O   UNL     1     103.540 128.521 140.367  0.00  0.00    +0.000 OA
ATOM      3  O   UNL     1     104.416 127.626 141.084  0.00  0.00    +0.000 OA
ATOM      4  C   UNL     1     103.128 130.305 141.658  0.00  0.00    +0.000 C 
ATOM      5  C   UNL     1     103.109 129.773 140.983  0.00  0.00    +0.000 C 
ATOM      6  C   UNL     1     104.010 128.844 141.711  0.00  0.00    +0.000 A 
ATOM      7  C   UNL     1     103.553 129.038 141.010  0.00  0.00    +0.000 C 
ATOM      8  C   UNL     1     104.029 129.355 142.359  0.00  0.00    +0.000 A 
ATOM      9  C   UNL     1     104.435 128.137 141.731  0.00  0.00    +0.000 A 
ATOM     10  C   UNL     1     104.473 129.158 143.027  0.00  0.00    +0.000 A 
ATOM     11  C   UNL     1     104.878 127.940 142.398  0.00  0.00    +0.000 A 
ATOM     12  C   UNL     1     104.896 128.450 143.046  0.00  0.00    +0.000 A 
ENDROOT
BRANCH   4  14
ATOM     13  O   UNL     1     100.710 131.756 142.123  0.00  0.00    +0.000 OA
ATOM     14  C   UNL     1     102.705 131.013 141.642  0.00  0.00    +0.000 A 
ATOM     15  C   UNL     1     103.069 131.704 141.376  0.00  0.00    +0.000 A 
ATOM     16  C   UNL     1     101.919 131.031 141.891  0.00  0.00    +0.000 A 
ATOM     17  C   UNL     1     102.647 132.413 141.360  0.00  0.00    +0.000 A 
ATOM     18  C   UNL     1     101.497 131.738 141.874  0.00  0.00    +0.000 A 
ATOM     19  C   UNL     1     101.861 132.430 141.608  0.00  0.00    +0.000 A 
BRANCH  17  20
ATOM     20  O   UNL     1     103.011 133.104 141.094  0.00  0.00    +0.000 OA
ATOM     21  C   UNL     1     103.666 133.060 140.595  0.00  0.00    +0.000 C 
ENDBRANCH  17  20
BRANCH  19  22
ATOM     22  O   UNL     1     101.438 133.138 141.592  0.00  0.00    +0.000 OA
ATOM     23  C   UNL     1     101.140 133.456 142.292  0.00  0.00    +0.000 C 
ENDBRANCH  19  22
ENDBRANCH   4  14
BRANCH  11  24
ATOM     24  O   UNL     1     105.302 127.233 142.419  0.00  0.00    +0.000 OA
ATOM     25  C   UNL     1     106.051 127.191 142.077  0.00  0.00    +0.000 C 
ENDBRANCH  11  24
BRANCH  12  26
ATOM     26  O   UNL     1     105.340 128.254 143.714  0.00  0.00    +0.000 OA
ATOM     27  C   UNL     1     105.207 128.646 144.428  0.00  0.00    +0.000 C 
ENDBRANCH  12  26
TORSDOF 5
ENDMDL
MODEL 8
REMARK VINA RESULT:      -7.5      8.673     10.103
REMARK  Name = 10833336
REMARK  5 active torsions:
REMARK  status: ('A' for Active; 'I' for Inactive)
REMARK    1  A    between atoms: O_4  and  C_19
REMARK    2  A    between atoms: O_5  and  C_20
REMARK    3  A    between atoms: O_6  and  C_21
REMARK    4  A    between atoms: O_7  and  C_23
REMARK    5  A    between atoms: C_9  and  C_11
REMARK                            x       y       z     vdW  Elec       q    Type
REMARK                         _______ _______ _______ _____ _____    ______ ____
ROOT
ATOM      1  O   UNL     1     102.986 132.067 141.262  0.00  0.00    +0.000 OA
ATOM      2  O   UNL     1     100.711 132.461 142.300  0.00  0.00    +0.000 OA
ATOM      3  O   UNL     1     100.858 133.871 142.029  0.00  0.00    +0.000 OA
ATOM      4  C   UNL     1     102.542 131.398 141.570  0.00  0.00    +0.000 C 
ATOM      5  C   UNL     1     101.770 131.529 141.923  0.00  0.00    +0.000 C 
ATOM      6  C   UNL     1     101.910 132.982 141.649  0.00  0.00    +0.000 A 
ATOM      7  C   UNL     1     101.452 132.327 141.963  0.00  0.00    +0.000 C 
ATOM      8  C   UNL     1     102.652 132.856 141.310  0.00  0.00    +0.000 A 
ATOM      9  C   UNL     1     101.600 133.745 141.690  0.00  0.00    +0.000 A 
ATOM     10  C   UNL     1     103.083 133.494 141.012  0.00  0.00    +0.000 A 
ATOM     11  C   UNL     1     102.030 134.382 141.393  0.00  0.00    +0.000 A 
ATOM     12  C   UNL     1     102.772 134.257 141.054  0.00  0.00    +0.000 A 
ENDROOT
BRANCH   4  14
ATOM     13  O   UNL     1     104.048 129.271 142.744  0.00  0.00    +0.000 OA
ATOM     14  C   UNL     1     102.856 130.636 141.527  0.00  0.00    +0.000 A 
ATOM     15  C   UNL     1     102.731 130.176 140.854  0.00  0.00    +0.000 A 
ATOM     16  C   UNL     1     103.295 130.334 142.157  0.00  0.00    +0.000 A 
ATOM     17  C   UNL     1     103.044 129.414 140.810  0.00  0.00    +0.000 A 
ATOM     18  C   UNL     1     103.609 129.573 142.114  0.00  0.00    +0.000 A 
ATOM     19  C   UNL     1     103.483 129.112 141.440  0.00  0.00    +0.000 A 
BRANCH  17  20
ATOM     20  O   UNL     1     102.919 128.954 140.137  0.00  0.00    +0.000 OA
ATOM     21  C   UNL     1     102.361 129.188 139.576  0.00  0.00    +0.000 C 
ENDBRANCH  17  20
BRANCH  19  22
ATOM     22  O   UNL     1     103.797 128.351 141.397  0.00  0.00    +0.000 OA
ATOM     23  C   UNL     1     104.604 128.230 141.514  0.00  0.00    +0.000 C 
ENDBRANCH  19  22
ENDBRANCH   4  14
BRANCH  11  24
ATOM     24  O   UNL     1     101.720 135.146 141.434  0.00  0.00    +0.000 OA
ATOM     25  C   UNL     1     101.806 135.591 142.122  0.00  0.00    +0.000 C 
ENDBRANCH  11  24
BRANCH  12  26
ATOM     26  O   UNL     1     103.203 134.895 140.756  0.00  0.00    +0.000 OA
ATOM     27  C   UNL     1     103.851 134.761 140.264  0.00  0.00    +0.000 C 
ENDBRANCH  12  26
TORSDOF 5
ENDMDL
MODEL 9
REMARK VINA RESULT:      -7.5     13.040     14.698
REMARK  Name = 10833336
REMARK  5 active torsions:
REMARK  status: ('A' for Active; 'I' for Inactive)
REMARK    1  A    between atoms: O_4  and  C_19
REMARK    2  A    between atoms: O_5  and  C_20
REMARK    3  A    between atoms: O_6  and  C_21
REMARK    4  A    between atoms: O_7  and  C_23
REMARK    5  A    between atoms: C_9  and  C_11
REMARK                            x       y       z     vdW  Elec       q    Type
REMARK                         _______ _______ _______ _____ _____    ______ ____
ROOT
ATOM      1  O   UNL     1     113.215 127.398 136.191  0.00  0.00    +0.000 OA
ATOM      2  O   UNL     1     112.745 128.491 138.426  0.00  0.00    +0.000 OA
ATOM      3  O   UNL     1     113.326 129.713 137.923  0.00  0.00    +0.000 OA
ATOM      4  C   UNL     1     112.837 126.940 136.813  0.00  0.00    +0.000 C 
ATOM      5  C   UNL     1     112.677 127.308 137.572  0.00  0.00    +0.000 C 
ATOM      6  C   UNL     1     113.272 128.571 137.066  0.00  0.00    +0.000 A 
ATOM      7  C   UNL     1     112.896 128.130 137.700  0.00  0.00    +0.000 C 
ATOM      8  C   UNL     1     113.426 128.217 136.337  0.00  0.00    +0.000 A 
ATOM      9  C   UNL     1     113.480 129.359 137.194  0.00  0.00    +0.000 A 
ATOM     10  C   UNL     1     113.788 128.652 135.735  0.00  0.00    +0.000 A 
ATOM     11  C   UNL     1     113.842 129.793 136.593  0.00  0.00    +0.000 A 
ATOM     12  C   UNL     1     113.996 129.439 135.864  0.00  0.00    +0.000 A 
ENDROOT
BRANCH   4  14
ATOM     13  O   UNL     1     113.490 124.159 136.915  0.00  0.00    +0.000 OA
ATOM     14  C   UNL     1     112.631 126.151 136.681  0.00  0.00    +0.000 A 
ATOM     15  C   UNL     1     111.891 125.967 136.366  0.00  0.00    +0.000 A 
ATOM     16  C   UNL     1     113.164 125.548 136.864  0.00  0.00    +0.000 A 
ATOM     17  C   UNL     1     111.684 125.179 136.234  0.00  0.00    +0.000 A 
ATOM     18  C   UNL     1     112.957 124.762 136.732  0.00  0.00    +0.000 A 
ATOM     19  C   UNL     1     112.217 124.576 136.417  0.00  0.00    +0.000 A 
BRANCH  17  20
ATOM     20  O   UNL     1     110.944 124.994 135.919  0.00  0.00    +0.000 OA
ATOM     21  C   UNL     1     110.573 125.519 135.402  0.00  0.00    +0.000 C 
ENDBRANCH  17  20
BRANCH  19  22
ATOM     22  O   UNL     1     112.010 123.789 136.285  0.00  0.00    +0.000 OA
ATOM     23  C   UNL     1     111.940 123.269 136.921  0.00  0.00    +0.000 C 
ENDBRANCH  19  22
ENDBRANCH   4  14
BRANCH  11  24
ATOM     24  O   UNL     1     114.050 130.582 136.721  0.00  0.00    +0.000 OA
ATOM     25  C   UNL     1     113.473 131.170 136.699  0.00  0.00    +0.000 C 
ENDBRANCH  11  24
BRANCH  12  26
ATOM     26  O   UNL     1     114.358 129.874 135.263  0.00  0.00    +0.000 OA
ATOM     27  C   UNL     1     114.684 129.486 134.612  0.00  0.00    +0.000 C 
ENDBRANCH  12  26
TORSDOF 5
ENDMDL
MODEL 10
REMARK VINA RESULT:      -7.4      1.715      2.419
REMARK  Name = 10833336
REMARK  5 active torsions:
REMARK  status: ('A' for Active; 'I' for Inactive)
REMARK    1  A    between atoms: O_4  and  C_19
REMARK    2  A    between atoms: O_5  and  C_20
REMARK    3  A    between atoms: O_6  and  C_21
REMARK    4  A    between atoms: O_7  and  C_23
REMARK    5  A    between atoms: C_9  and  C_11
REMARK                            x       y       z     vdW  Elec       q    Type
REMARK                         _______ _______ _______ _____ _____    ______ ____
ROOT
ATOM      1  O   UNL     1     103.499 124.507 146.304  0.00  0.00    +0.000 OA
ATOM      2  O   UNL     1     103.927 124.458 148.799  0.00  0.00    +0.000 OA
ATOM      3  O   UNL     1     102.617 123.882 148.988  0.00  0.00    +0.000 OA
ATOM      4  C   UNL     1     104.249 124.798 146.609  0.00  0.00    +0.000 C 
ATOM      5  C   UNL     1     104.397 124.783 147.455  0.00  0.00    +0.000 C 
ATOM      6  C   UNL     1     103.051 124.190 147.662  0.00  0.00    +0.000 A 
ATOM      7  C   UNL     1     103.793 124.476 147.985  0.00  0.00    +0.000 C 
ATOM      8  C   UNL     1     102.909 124.205 146.849  0.00  0.00    +0.000 A 
ATOM      9  C   UNL     1     102.475 123.897 148.175  0.00  0.00    +0.000 A 
ATOM     10  C   UNL     1     102.191 123.927 146.550  0.00  0.00    +0.000 A 
ATOM     11  C   UNL     1     101.759 123.619 147.877  0.00  0.00    +0.000 A 
ATOM     12  C   UNL     1     101.616 123.634 147.065  0.00  0.00    +0.000 A 
ENDROOT
BRANCH   4  14
ATOM     13  O   UNL     1     106.362 124.340 144.739  0.00  0.00    +0.000 OA
ATOM     14  C   UNL     1     104.822 125.091 146.091  0.00  0.00    +0.000 A 
ATOM     15  C   UNL     1     104.910 125.905 145.993  0.00  0.00    +0.000 A 
ATOM     16  C   UNL     1     105.306 124.569 145.673  0.00  0.00    +0.000 A 
ATOM     17  C   UNL     1     105.483 126.198 145.476  0.00  0.00    +0.000 A 
ATOM     18  C   UNL     1     105.878 124.862 145.157  0.00  0.00    +0.000 A 
ATOM     19  C   UNL     1     105.967 125.677 145.058  0.00  0.00    +0.000 A 
BRANCH  17  20
ATOM     20  O   UNL     1     105.571 127.012 145.377  0.00  0.00    +0.000 OA
ATOM     21  C   UNL     1     105.333 127.529 145.975  0.00  0.00    +0.000 C 
ENDBRANCH  17  20
BRANCH  19  22
ATOM     22  O   UNL     1     106.539 125.969 144.542  0.00  0.00    +0.000 OA
ATOM     23  C   UNL     1     106.412 125.943 143.727  0.00  0.00    +0.000 C 
ENDBRANCH  19  22
ENDBRANCH   4  14
BRANCH  11  24
ATOM     24  O   UNL     1     101.183 123.326 148.391  0.00  0.00    +0.000 OA
ATOM     25  C   UNL     1     100.711 123.846 148.822  0.00  0.00    +0.000 C 
ENDBRANCH  11  24
BRANCH  12  26
ATOM     26  O   UNL     1     100.899 123.356 146.766  0.00  0.00    +0.000 OA
ATOM     27  C   UNL     1     100.845 123.116 145.978  0.00  0.00    +0.000 C 
ENDBRANCH  12  26
TORSDOF 5
ENDMDL
