MODEL 1
REMARK VINA RESULT:     -11.0      0.000      0.000
REMARK  Name = 74977489
REMARK  7 active torsions:
REMARK  status: ('A' for Active; 'I' for Inactive)
REMARK    1  A    between atoms: O_14  and  C_41
REMARK    2  A    between atoms: O_14  and  C_47
REMARK    3  A    between atoms: C_20  and  C_26
REMARK    4  A    between atoms: C_24  and  C_34
REMARK    5  A    between atoms: C_25  and  C_28
REMARK    6  A    between atoms: C_40  and  C_43
REMARK    7  A    between atoms: C_44  and  C_46
REMARK                            x       y       z     vdW  Elec       q    Type
REMARK                         _______ _______ _______ _____ _____    ______ ____
ROOT
ATOM      1  O   UNL     1     112.150 128.253 140.834  0.00  0.00    +0.000 OA
ATOM      2  O   UNL     1     113.592 127.857 138.372  0.00  0.00    +0.000 OA
ATOM      3  O   UNL     1     111.946 125.754 139.390  0.00  0.00    +0.000 OA
ATOM      4  O   UNL     1     111.208 125.913 140.620  0.00  0.00    +0.000 OA
ATOM      5  C   UNL     1     112.769 126.805 138.881  0.00  0.00    +0.000 A 
ATOM      6  C   UNL     1     112.871 128.041 139.593  0.00  0.00    +0.000 A 
ATOM      7  C   UNL     1     113.077 127.568 138.949  0.00  0.00    +0.000 A 
ATOM      8  C   UNL     1     112.254 126.516 139.458  0.00  0.00    +0.000 A 
ATOM      9  C   UNL     1     112.357 127.751 140.169  0.00  0.00    +0.000 A 
ATOM     10  C   UNL     1     112.048 126.989 140.101  0.00  0.00    +0.000 A 
ATOM     11  C   UNL     1     111.512 126.676 140.695  0.00  0.00    +0.000 A 
ATOM     12  C   UNL     1     111.614 127.957 141.438  0.00  0.00    +0.000 A 
ATOM     13  C   UNL     1     111.293 127.164 141.368  0.00  0.00    +0.000 A 
ENDROOT
BRANCH   5  18
ATOM     14  O   UNL     1     112.488 126.306 137.572  0.00  0.00    +0.000 OA
ATOM     15  O   UNL     1     114.154 125.911 138.925  0.00  0.00    +0.000 OA
ATOM     16  O   UNL     1     114.567 124.964 137.638  0.00  0.00    +0.000 OA
ATOM     17  O   UNL     1     113.593 124.912 136.306  0.00  0.00    +0.000 OA
ATOM     18  C   UNL     1     112.975 126.332 138.237  0.00  0.00    +0.000 C 
ATOM     19  C   UNL     1     113.667 125.885 138.260  0.00  0.00    +0.000 C 
ATOM     20  C   UNL     1     113.874 125.412 137.616  0.00  0.00    +0.000 C 
ATOM     21  C   UNL     1     113.387 125.386 136.950  0.00  0.00    +0.000 C 
ATOM     22  C   UNL     1     112.694 125.833 136.929  0.00  0.00    +0.000 C 
BRANCH  22  24
ATOM     23  O   UNL     1     111.768 126.471 136.048  0.00  0.00    +0.000 OA
ATOM     24  C   UNL     1     112.207 125.807 136.263  0.00  0.00    +0.000 C 
ENDBRANCH  22  24
ENDBRANCH   5  18
BRANCH   6  29
ATOM     25  O   UNL     1     113.850 128.937 140.121  0.00  0.00    +0.000 OA
ATOM     26  O   UNL     1     112.147 129.296 138.805  0.00  0.00    +0.000 OA
ATOM     27  O   UNL     1     112.763 130.820 138.939  0.00  0.00    +0.000 OA
ATOM     28  O   UNL     1     114.105 131.089 139.862  0.00  0.00    +0.000 OA
ATOM     29  C   UNL     1     113.180 128.803 139.660  0.00  0.00    +0.000 C 
ATOM     30  C   UNL     1     112.817 129.431 139.266  0.00  0.00    +0.000 C 
ATOM     31  C   UNL     1     113.126 130.193 139.333  0.00  0.00    +0.000 C 
ATOM     32  C   UNL     1     113.797 130.327 139.794  0.00  0.00    +0.000 C 
ATOM     33  C   UNL     1     114.159 129.699 140.188  0.00  0.00    +0.000 C 
ENDBRANCH   6  29
BRANCH  12  34
ATOM     34  C   UNL     1     111.410 128.433 142.081  0.00  0.00    +0.000 A 
ATOM     35  C   UNL     1     111.002 129.383 143.367  0.00  0.00    +0.000 A 
ATOM     36  C   UNL     1     111.868 128.418 142.766  0.00  0.00    +0.000 A 
ATOM     37  C   UNL     1     110.747 128.922 142.037  0.00  0.00    +0.000 A 
ATOM     38  C   UNL     1     111.664 128.894 143.410  0.00  0.00    +0.000 A 
ATOM     39  C   UNL     1     110.542 129.398 142.681  0.00  0.00    +0.000 A 
BRANCH  35  40
ATOM     40  O   UNL     1     110.797 129.858 144.009  0.00  0.00    +0.000 OA
BRANCH  40  49
ATOM     41  O   UNL     1     111.477 131.039 143.576  0.00  0.00    +0.000 OA
ATOM     42  O   UNL     1     112.108 131.535 145.917  0.00  0.00    +0.000 OA
ATOM     43  O   UNL     1     112.576 132.549 144.704  0.00  0.00    +0.000 OA
ATOM     44  O   UNL     1     111.218 130.189 145.570  0.00  0.00    +0.000 OA
ATOM     45  C   UNL     1     111.897 131.369 145.137  0.00  0.00    +0.000 C 
ATOM     46  C   UNL     1     112.132 131.876 144.530  0.00  0.00    +0.000 C 
ATOM     47  C   UNL     1     111.452 130.696 144.963  0.00  0.00    +0.000 C 
ATOM     48  C   UNL     1     111.922 131.711 143.750  0.00  0.00    +0.000 C 
ATOM     49  C   UNL     1     111.242 130.531 144.184  0.00  0.00    +0.000 C 
BRANCH  48  51
ATOM     50  O   UNL     1     111.592 132.535 142.631  0.00  0.00    +0.000 OA
ATOM     51  C   UNL     1     112.156 132.218 143.143  0.00  0.00    +0.000 C 
ENDBRANCH  48  51
ENDBRANCH  40  49
ENDBRANCH  35  40
ENDBRANCH  12  34
TORSDOF 7
ENDMDL
MODEL 2
REMARK VINA RESULT:     -10.9      6.552      9.203
REMARK  Name = 74977489
REMARK  7 active torsions:
REMARK  status: ('A' for Active; 'I' for Inactive)
REMARK    1  A    between atoms: O_14  and  C_41
REMARK    2  A    between atoms: O_14  and  C_47
REMARK    3  A    between atoms: C_20  and  C_26
REMARK    4  A    between atoms: C_24  and  C_34
REMARK    5  A    between atoms: C_25  and  C_28
REMARK    6  A    between atoms: C_40  and  C_43
REMARK    7  A    between atoms: C_44  and  C_46
REMARK                            x       y       z     vdW  Elec       q    Type
REMARK                         _______ _______ _______ _____ _____    ______ ____
ROOT
ATOM      1  O   UNL     1     105.435 127.928 143.500  0.00  0.00    +0.000 OA
ATOM      2  O   UNL     1     106.393 125.391 144.470  0.00  0.00    +0.000 OA
ATOM      3  O   UNL     1     105.282 127.271 146.313  0.00  0.00    +0.000 OA
ATOM      4  O   UNL     1     104.792 128.552 145.867  0.00  0.00    +0.000 OA
ATOM      5  C   UNL     1     105.838 126.331 145.392  0.00  0.00    +0.000 A 
ATOM      6  C   UNL     1     105.914 126.654 144.001  0.00  0.00    +0.000 A 
ATOM      7  C   UNL     1     106.048 126.126 144.621  0.00  0.00    +0.000 A 
ATOM      8  C   UNL     1     105.493 127.065 145.543  0.00  0.00    +0.000 A 
ATOM      9  C   UNL     1     105.570 127.387 144.153  0.00  0.00    +0.000 A 
ATOM     10  C   UNL     1     105.359 127.593 144.923  0.00  0.00    +0.000 A 
ATOM     11  C   UNL     1     104.999 128.354 145.094  0.00  0.00    +0.000 A 
ATOM     12  C   UNL     1     105.076 128.695 143.651  0.00  0.00    +0.000 A 
ATOM     13  C   UNL     1     104.857 128.909 144.453  0.00  0.00    +0.000 A 
ENDROOT
BRANCH   5  18
ATOM     14  O   UNL     1     106.665 125.854 146.455  0.00  0.00    +0.000 OA
ATOM     15  O   UNL     1     104.718 125.172 145.743  0.00  0.00    +0.000 OA
ATOM     16  O   UNL     1     104.985 124.115 146.982  0.00  0.00    +0.000 OA
ATOM     17  O   UNL     1     106.373 124.218 147.870  0.00  0.00    +0.000 OA
ATOM     18  C   UNL     1     105.972 125.803 146.011  0.00  0.00    +0.000 C 
ATOM     19  C   UNL     1     105.412 125.223 146.187  0.00  0.00    +0.000 C 
ATOM     20  C   UNL     1     105.545 124.695 146.806  0.00  0.00    +0.000 C 
ATOM     21  C   UNL     1     106.239 124.746 147.250  0.00  0.00    +0.000 C 
ATOM     22  C   UNL     1     106.799 125.326 147.074  0.00  0.00    +0.000 C 
BRANCH  22  24
ATOM     23  O   UNL     1     108.178 125.684 147.176  0.00  0.00    +0.000 OA
ATOM     24  C   UNL     1     107.492 125.378 147.517  0.00  0.00    +0.000 C 
ENDBRANCH  22  24
ENDBRANCH   5  18
BRANCH   6  29
ATOM     25  O   UNL     1     105.560 126.132 142.719  0.00  0.00    +0.000 OA
ATOM     26  O   UNL     1     107.465 126.873 143.484  0.00  0.00    +0.000 OA
ATOM     27  O   UNL     1     107.888 126.461 141.944  0.00  0.00    +0.000 OA
ATOM     28  O   UNL     1     106.758 125.829 140.919  0.00  0.00    +0.000 OA
ATOM     29  C   UNL     1     106.125 126.448 143.231  0.00  0.00    +0.000 C 
ATOM     30  C   UNL     1     106.901 126.557 142.972  0.00  0.00    +0.000 C 
ATOM     31  C   UNL     1     107.112 126.351 142.201  0.00  0.00    +0.000 C 
ATOM     32  C   UNL     1     106.547 126.035 141.690  0.00  0.00    +0.000 C 
ATOM     33  C   UNL     1     105.771 125.926 141.948  0.00  0.00    +0.000 C 
ENDBRANCH   6  29
BRANCH  12  34
ATOM     34  C   UNL     1     104.943 129.221 143.029  0.00  0.00    +0.000 A 
ATOM     35  C   UNL     1     104.678 130.274 141.786  0.00  0.00    +0.000 A 
ATOM     36  C   UNL     1     105.488 129.819 142.872  0.00  0.00    +0.000 A 
ATOM     37  C   UNL     1     104.265 129.148 142.565  0.00  0.00    +0.000 A 
ATOM     38  C   UNL     1     105.355 130.346 142.250  0.00  0.00    +0.000 A 
ATOM     39  C   UNL     1     104.132 129.675 141.943  0.00  0.00    +0.000 A 
BRANCH  35  40
ATOM     40  O   UNL     1     104.545 130.800 141.165  0.00  0.00    +0.000 OA
BRANCH  40  49
ATOM     41  O   UNL     1     103.518 131.607 141.744  0.00  0.00    +0.000 OA
ATOM     42  O   UNL     1     104.649 133.644 140.911  0.00  0.00    +0.000 OA
ATOM     43  O   UNL     1     103.246 133.772 141.768  0.00  0.00    +0.000 OA
ATOM     44  O   UNL     1     105.299 132.158 140.609  0.00  0.00    +0.000 OA
ATOM     45  C   UNL     1     104.272 132.965 141.189  0.00  0.00    +0.000 C 
ATOM     46  C   UNL     1     103.570 133.029 141.617  0.00  0.00    +0.000 C 
ATOM     47  C   UNL     1     104.597 132.221 141.038  0.00  0.00    +0.000 C 
ATOM     48  C   UNL     1     103.194 132.350 141.895  0.00  0.00    +0.000 C 
ATOM     49  C   UNL     1     104.220 131.543 141.315  0.00  0.00    +0.000 C 
BRANCH  48  51
ATOM     50  O   UNL     1     101.816 132.014 142.068  0.00  0.00    +0.000 OA
ATOM     51  C   UNL     1     102.492 132.414 142.323  0.00  0.00    +0.000 C 
ENDBRANCH  48  51
ENDBRANCH  40  49
ENDBRANCH  35  40
ENDBRANCH  12  34
TORSDOF 7
ENDMDL
MODEL 3
REMARK VINA RESULT:     -10.8      1.476      3.186
REMARK  Name = 74977489
REMARK  7 active torsions:
REMARK  status: ('A' for Active; 'I' for Inactive)
REMARK    1  A    between atoms: O_14  and  C_41
REMARK    2  A    between atoms: O_14  and  C_47
REMARK    3  A    between atoms: C_20  and  C_26
REMARK    4  A    between atoms: C_24  and  C_34
REMARK    5  A    between atoms: C_25  and  C_28
REMARK    6  A    between atoms: C_40  and  C_43
REMARK    7  A    between atoms: C_44  and  C_46
REMARK                            x       y       z     vdW  Elec       q    Type
REMARK                         _______ _______ _______ _____ _____    ______ ____
ROOT
ATOM      1  O   UNL     1     111.795 128.112 139.757  0.00  0.00    +0.000 OA
ATOM      2  O   UNL     1     110.548 125.747 138.686  0.00  0.00    +0.000 OA
ATOM      3  O   UNL     1     112.692 126.976 137.251  0.00  0.00    +0.000 OA
ATOM      4  O   UNL     1     113.342 128.161 137.754  0.00  0.00    +0.000 OA
ATOM      5  C   UNL     1     111.620 126.361 137.968  0.00  0.00    +0.000 A 
ATOM      6  C   UNL     1     111.175 126.921 139.207  0.00  0.00    +0.000 A 
ATOM      7  C   UNL     1     111.114 126.343 138.621  0.00  0.00    +0.000 A 
ATOM      8  C   UNL     1     112.186 126.957 137.903  0.00  0.00    +0.000 A 
ATOM      9  C   UNL     1     111.741 127.516 139.140  0.00  0.00    +0.000 A 
ATOM     10  C   UNL     1     112.247 127.535 138.489  0.00  0.00    +0.000 A 
ATOM     11  C   UNL     1     112.841 128.150 138.409  0.00  0.00    +0.000 A 
ATOM     12  C   UNL     1     112.383 128.736 139.694  0.00  0.00    +0.000 A 
ATOM     13  C   UNL     1     112.909 128.755 139.015  0.00  0.00    +0.000 A 
ENDROOT
BRANCH   5  18
ATOM     14  O   UNL     1     112.009 125.095 137.434  0.00  0.00    +0.000 OA
ATOM     15  O   UNL     1     110.598 126.585 136.693  0.00  0.00    +0.000 OA
ATOM     16  O   UNL     1     110.476 125.430 135.521  0.00  0.00    +0.000 OA
ATOM     17  O   UNL     1     111.376 124.051 135.624  0.00  0.00    +0.000 OA
ATOM     18  C   UNL     1     111.559 125.783 137.382  0.00  0.00    +0.000 C 
ATOM     19  C   UNL     1     111.048 125.896 136.745  0.00  0.00    +0.000 C 
ATOM     20  C   UNL     1     110.987 125.319 136.159  0.00  0.00    +0.000 C 
ATOM     21  C   UNL     1     111.437 124.629 136.210  0.00  0.00    +0.000 C 
ATOM     22  C   UNL     1     111.948 124.517 136.848  0.00  0.00    +0.000 C 
BRANCH  22  24
ATOM     23  O   UNL     1     113.167 123.859 137.198  0.00  0.00    +0.000 OA
ATOM     24  C   UNL     1     112.398 123.828 136.900  0.00  0.00    +0.000 C 
ENDBRANCH  22  24
ENDBRANCH   5  18
BRANCH   6  29
ATOM     25  O   UNL     1     109.972 127.343 139.852  0.00  0.00    +0.000 OA
ATOM     26  O   UNL     1     111.558 126.001 140.521  0.00  0.00    +0.000 OA
ATOM     27  O   UNL     1     110.547 125.963 141.824  0.00  0.00    +0.000 OA
ATOM     28  O   UNL     1     109.152 126.846 141.813  0.00  0.00    +0.000 OA
ATOM     29  C   UNL     1     110.669 126.902 139.858  0.00  0.00    +0.000 C 
ATOM     30  C   UNL     1     110.861 126.442 140.516  0.00  0.00    +0.000 C 
ATOM     31  C   UNL     1     110.355 126.423 141.167  0.00  0.00    +0.000 C 
ATOM     32  C   UNL     1     109.658 126.864 141.161  0.00  0.00    +0.000 C 
ATOM     33  C   UNL     1     109.466 127.324 140.504  0.00  0.00    +0.000 C 
ENDBRANCH   6  29
BRANCH  12  34
ATOM     34  C   UNL     1     112.442 129.312 140.282  0.00  0.00    +0.000 A 
ATOM     35  C   UNL     1     112.559 130.465 141.457  0.00  0.00    +0.000 A 
ATOM     36  C   UNL     1     111.895 129.929 140.310  0.00  0.00    +0.000 A 
ATOM     37  C   UNL     1     113.047 129.271 140.840  0.00  0.00    +0.000 A 
ATOM     38  C   UNL     1     111.954 130.506 140.898  0.00  0.00    +0.000 A 
ATOM     39  C   UNL     1     113.106 129.848 141.429  0.00  0.00    +0.000 A 
BRANCH  35  40
ATOM     40  O   UNL     1     112.617 131.041 142.044  0.00  0.00    +0.000 OA
BRANCH  40  49
ATOM     41  O   UNL     1     112.083 130.275 143.126  0.00  0.00    +0.000 OA
ATOM     42  O   UNL     1     110.863 132.270 143.936  0.00  0.00    +0.000 OA
ATOM     43  O   UNL     1     110.736 130.840 144.747  0.00  0.00    +0.000 OA
ATOM     44  O   UNL     1     111.804 132.371 142.584  0.00  0.00    +0.000 OA
ATOM     45  C   UNL     1     111.270 131.605 143.666  0.00  0.00    +0.000 C 
ATOM     46  C   UNL     1     111.207 130.889 144.071  0.00  0.00    +0.000 C 
ATOM     47  C   UNL     1     111.740 131.655 142.990  0.00  0.00    +0.000 C 
ATOM     48  C   UNL     1     111.613 130.225 143.801  0.00  0.00    +0.000 C 
ATOM     49  C   UNL     1     112.147 130.991 142.720  0.00  0.00    +0.000 C 
BRANCH  48  51
ATOM     50  O   UNL     1     111.180 128.864 143.848  0.00  0.00    +0.000 OA
ATOM     51  C   UNL     1     111.550 129.510 144.207  0.00  0.00    +0.000 C 
ENDBRANCH  48  51
ENDBRANCH  40  49
ENDBRANCH  35  40
ENDBRANCH  12  34
TORSDOF 7
ENDMDL
MODEL 4
REMARK VINA RESULT:     -10.7      1.260      1.847
REMARK  Name = 74977489
REMARK  7 active torsions:
REMARK  status: ('A' for Active; 'I' for Inactive)
REMARK    1  A    between atoms: O_14  and  C_41
REMARK    2  A    between atoms: O_14  and  C_47
REMARK    3  A    between atoms: C_20  and  C_26
REMARK    4  A    between atoms: C_24  and  C_34
REMARK    5  A    between atoms: C_25  and  C_28
REMARK    6  A    between atoms: C_40  and  C_43
REMARK    7  A    between atoms: C_44  and  C_46
REMARK                            x       y       z     vdW  Elec       q    Type
REMARK                         _______ _______ _______ _____ _____    ______ ____
ROOT
ATOM      1  O   UNL     1     112.631 128.626 139.607  0.00  0.00    +0.000 OA
ATOM      2  O   UNL     1     113.033 127.371 137.046  0.00  0.00    +0.000 OA
ATOM      3  O   UNL     1     112.516 125.747 139.340  0.00  0.00    +0.000 OA
ATOM      4  O   UNL     1     112.309 126.337 140.640  0.00  0.00    +0.000 OA
ATOM      5  C   UNL     1     112.775 126.559 138.193  0.00  0.00    +0.000 A 
ATOM      6  C   UNL     1     112.832 127.982 138.323  0.00  0.00    +0.000 A 
ATOM      7  C   UNL     1     112.880 127.304 137.854  0.00  0.00    +0.000 A 
ATOM      8  C   UNL     1     112.621 126.492 139.001  0.00  0.00    +0.000 A 
ATOM      9  C   UNL     1     112.679 127.914 139.130  0.00  0.00    +0.000 A 
ATOM     10  C   UNL     1     112.573 127.169 139.470  0.00  0.00    +0.000 A 
ATOM     11  C   UNL     1     112.413 127.086 140.309  0.00  0.00    +0.000 A 
ATOM     12  C   UNL     1     112.471 128.563 140.450  0.00  0.00    +0.000 A 
ATOM     13  C   UNL     1     112.362 127.787 140.803  0.00  0.00    +0.000 A 
ENDROOT
BRANCH   5  18
ATOM     14  O   UNL     1     112.149 125.591 137.350  0.00  0.00    +0.000 OA
ATOM     15  O   UNL     1     114.221 125.787 138.007  0.00  0.00    +0.000 OA
ATOM     16  O   UNL     1     114.318 124.432 137.070  0.00  0.00    +0.000 OA
ATOM     17  O   UNL     1     112.968 123.849 136.319  0.00  0.00    +0.000 OA
ATOM     18  C   UNL     1     112.823 125.882 137.724  0.00  0.00    +0.000 C 
ATOM     19  C   UNL     1     113.546 125.496 137.632  0.00  0.00    +0.000 C 
ATOM     20  C   UNL     1     113.595 124.818 137.163  0.00  0.00    +0.000 C 
ATOM     21  C   UNL     1     112.920 124.527 136.788  0.00  0.00    +0.000 C 
ATOM     22  C   UNL     1     112.197 124.913 136.881  0.00  0.00    +0.000 C 
BRANCH  22  24
ATOM     23  O   UNL     1     110.821 125.057 136.523  0.00  0.00    +0.000 OA
ATOM     24  C   UNL     1     111.522 124.622 136.506  0.00  0.00    +0.000 C 
ENDBRANCH  22  24
ENDBRANCH   5  18
BRANCH   6  29
ATOM     25  O   UNL     1     113.676 129.093 138.014  0.00  0.00    +0.000 OA
ATOM     26  O   UNL     1     111.566 128.737 137.584  0.00  0.00    +0.000 OA
ATOM     27  O   UNL     1     111.775 130.226 136.905  0.00  0.00    +0.000 OA
ATOM     28  O   UNL     1     113.253 130.960 136.965  0.00  0.00    +0.000 OA
ATOM     29  C   UNL     1     112.937 128.726 137.983  0.00  0.00    +0.000 C 
ATOM     30  C   UNL     1     112.304 129.104 137.614  0.00  0.00    +0.000 C 
ATOM     31  C   UNL     1     112.409 129.849 137.274  0.00  0.00    +0.000 C 
ATOM     32  C   UNL     1     113.148 130.215 137.305  0.00  0.00    +0.000 C 
ATOM     33  C   UNL     1     113.781 129.837 137.674  0.00  0.00    +0.000 C 
ENDBRANCH   6  29
BRANCH  12  34
ATOM     34  C   UNL     1     112.424 129.242 140.916  0.00  0.00    +0.000 A 
ATOM     35  C   UNL     1     112.329 130.600 141.848  0.00  0.00    +0.000 A 
ATOM     36  C   UNL     1     111.716 129.662 140.961  0.00  0.00    +0.000 A 
ATOM     37  C   UNL     1     113.085 129.500 141.337  0.00  0.00    +0.000 A 
ATOM     38  C   UNL     1     111.668 130.342 141.428  0.00  0.00    +0.000 A 
ATOM     39  C   UNL     1     113.037 130.179 141.804  0.00  0.00    +0.000 A 
BRANCH  35  40
ATOM     40  O   UNL     1     112.281 131.279 142.315  0.00  0.00    +0.000 OA
BRANCH  40  49
ATOM     41  O   UNL     1     111.969 130.569 143.515  0.00  0.00    +0.000 OA
ATOM     42  O   UNL     1     110.682 132.517 144.334  0.00  0.00    +0.000 OA
ATOM     43  O   UNL     1     110.800 131.158 145.260  0.00  0.00    +0.000 OA
ATOM     44  O   UNL     1     111.423 132.578 142.861  0.00  0.00    +0.000 OA
ATOM     45  C   UNL     1     111.111 131.868 144.061  0.00  0.00    +0.000 C 
ATOM     46  C   UNL     1     111.170 131.188 144.524  0.00  0.00    +0.000 C 
ATOM     47  C   UNL     1     111.482 131.898 143.324  0.00  0.00    +0.000 C 
ATOM     48  C   UNL     1     111.599 130.539 144.251  0.00  0.00    +0.000 C 
ATOM     49  C   UNL     1     111.910 131.249 143.051  0.00  0.00    +0.000 C 
BRANCH  48  51
ATOM     50  O   UNL     1     111.277 129.165 144.478  0.00  0.00    +0.000 OA
ATOM     51  C   UNL     1     111.658 129.859 144.714  0.00  0.00    +0.000 C 
ENDBRANCH  48  51
ENDBRANCH  40  49
ENDBRANCH  35  40
ENDBRANCH  12  34
TORSDOF 7
ENDMDL
MODEL 5
REMARK VINA RESULT:     -10.7      1.327      7.183
REMARK  Name = 74977489
REMARK  7 active torsions:
REMARK  status: ('A' for Active; 'I' for Inactive)
REMARK    1  A    between atoms: O_14  and  C_41
REMARK    2  A    between atoms: O_14  and  C_47
REMARK    3  A    between atoms: C_20  and  C_26
REMARK    4  A    between atoms: C_24  and  C_34
REMARK    5  A    between atoms: C_25  and  C_28
REMARK    6  A    between atoms: C_40  and  C_43
REMARK    7  A    between atoms: C_44  and  C_46
REMARK                            x       y       z     vdW  Elec       q    Type
REMARK                         _______ _______ _______ _____ _____    ______ ____
ROOT
ATOM      1  O   UNL     1     112.064 127.893 140.327  0.00  0.00    +0.000 OA
ATOM      2  O   UNL     1     110.277 128.477 142.509  0.00  0.00    +0.000 OA
ATOM      3  O   UNL     1     112.781 129.844 142.341  0.00  0.00    +0.000 OA
ATOM      4  O   UNL     1     113.704 129.579 141.263  0.00  0.00    +0.000 OA
ATOM      5  C   UNL     1     111.529 129.160 142.425  0.00  0.00    +0.000 A 
ATOM      6  C   UNL     1     111.173 128.196 141.431  0.00  0.00    +0.000 A 
ATOM      7  C   UNL     1     110.993 128.611 142.122  0.00  0.00    +0.000 A 
ATOM      8  C   UNL     1     112.245 129.295 142.038  0.00  0.00    +0.000 A 
ATOM      9  C   UNL     1     111.888 128.331 141.045  0.00  0.00    +0.000 A 
ATOM     10  C   UNL     1     112.425 128.880 141.347  0.00  0.00    +0.000 A 
ATOM     11  C   UNL     1     113.173 129.029 140.954  0.00  0.00    +0.000 A 
ATOM     12  C   UNL     1     112.808 128.029 139.918  0.00  0.00    +0.000 A 
ATOM     13  C   UNL     1     113.366 128.600 140.235  0.00  0.00    +0.000 A 
ENDROOT
BRANCH   5  18
ATOM     14  O   UNL     1     111.587 129.280 143.847  0.00  0.00    +0.000 OA
ATOM     15  O   UNL     1     110.693 130.580 142.340  0.00  0.00    +0.000 OA
ATOM     16  O   UNL     1     110.333 131.410 143.720  0.00  0.00    +0.000 OA
ATOM     17  O   UNL     1     110.810 130.820 145.186  0.00  0.00    +0.000 OA
ATOM     18  C   UNL     1     111.349 129.575 143.115  0.00  0.00    +0.000 C 
ATOM     19  C   UNL     1     110.932 130.285 143.072  0.00  0.00    +0.000 C 
ATOM     20  C   UNL     1     110.751 130.700 143.762  0.00  0.00    +0.000 C 
ATOM     21  C   UNL     1     110.990 130.405 144.495  0.00  0.00    +0.000 C 
ATOM     22  C   UNL     1     111.408 129.695 144.538  0.00  0.00    +0.000 C 
BRANCH  22  24
ATOM     23  O   UNL     1     111.761 128.589 145.370  0.00  0.00    +0.000 OA
ATOM     24  C   UNL     1     111.646 129.400 145.270  0.00  0.00    +0.000 C 
ENDBRANCH  22  24
ENDBRANCH   5  18
BRANCH   6  29
ATOM     25  O   UNL     1     110.098 127.875 140.546  0.00  0.00    +0.000 OA
ATOM     26  O   UNL     1     111.176 126.645 141.991  0.00  0.00    +0.000 OA
ATOM     27  O   UNL     1     110.104 125.547 141.386  0.00  0.00    +0.000 OA
ATOM     28  O   UNL     1     109.027 126.001 140.220  0.00  0.00    +0.000 OA
ATOM     29  C   UNL     1     110.636 127.648 141.129  0.00  0.00    +0.000 C 
ATOM     30  C   UNL     1     110.638 126.871 141.408  0.00  0.00    +0.000 C 
ATOM     31  C   UNL     1     110.102 126.323 141.106  0.00  0.00    +0.000 C 
ATOM     32  C   UNL     1     109.564 126.550 140.523  0.00  0.00    +0.000 C 
ATOM     33  C   UNL     1     109.562 127.326 140.243  0.00  0.00    +0.000 C 
ENDBRANCH   6  29
BRANCH  12  34
ATOM     34  C   UNL     1     112.985 127.613 139.228  0.00  0.00    +0.000 A 
ATOM     35  C   UNL     1     113.340 126.780 137.848  0.00  0.00    +0.000 A 
ATOM     36  C   UNL     1     113.342 126.871 139.275  0.00  0.00    +0.000 A 
ATOM     37  C   UNL     1     112.805 127.939 138.492  0.00  0.00    +0.000 A 
ATOM     38  C   UNL     1     113.519 126.454 138.584  0.00  0.00    +0.000 A 
ATOM     39  C   UNL     1     112.982 127.523 137.802  0.00  0.00    +0.000 A 
BRANCH  35  40
ATOM     40  O   UNL     1     113.517 126.364 137.158  0.00  0.00    +0.000 OA
BRANCH  40  49
ATOM     41  O   UNL     1     112.228 125.820 136.864  0.00  0.00    +0.000 OA
ATOM     42  O   UNL     1     113.268 123.630 136.367  0.00  0.00    +0.000 OA
ATOM     43  O   UNL     1     111.634 123.816 136.239  0.00  0.00    +0.000 OA
ATOM     44  O   UNL     1     114.209 124.904 136.827  0.00  0.00    +0.000 OA
ATOM     45  C   UNL     1     112.921 124.360 136.532  0.00  0.00    +0.000 C 
ATOM     46  C   UNL     1     112.104 124.453 136.468  0.00  0.00    +0.000 C 
ATOM     47  C   UNL     1     113.392 124.998 136.763  0.00  0.00    +0.000 C 
ATOM     48  C   UNL     1     111.758 125.182 136.634  0.00  0.00    +0.000 C 
ATOM     49  C   UNL     1     113.046 125.727 136.928  0.00  0.00    +0.000 C 
BRANCH  48  51
ATOM     50  O   UNL     1     110.631 125.867 136.084  0.00  0.00    +0.000 OA
ATOM     51  C   UNL     1     110.941 125.276 136.570  0.00  0.00    +0.000 C 
ENDBRANCH  48  51
ENDBRANCH  40  49
ENDBRANCH  35  40
ENDBRANCH  12  34
TORSDOF 7
ENDMDL
MODEL 6
REMARK VINA RESULT:     -10.6      1.335      7.190
REMARK  Name = 74977489
REMARK  7 active torsions:
REMARK  status: ('A' for Active; 'I' for Inactive)
REMARK    1  A    between atoms: O_14  and  C_41
REMARK    2  A    between atoms: O_14  and  C_47
REMARK    3  A    between atoms: C_20  and  C_26
REMARK    4  A    between atoms: C_24  and  C_34
REMARK    5  A    between atoms: C_25  and  C_28
REMARK    6  A    between atoms: C_40  and  C_43
REMARK    7  A    between atoms: C_44  and  C_46
REMARK                            x       y       z     vdW  Elec       q    Type
REMARK                         _______ _______ _______ _____ _____    ______ ____
ROOT
ATOM      1  O   UNL     1     112.361 129.583 141.133  0.00  0.00    +0.000 OA
ATOM      2  O   UNL     1     110.886 130.945 143.198  0.00  0.00    +0.000 OA
ATOM      3  O   UNL     1     113.547 131.788 142.583  0.00  0.00    +0.000 OA
ATOM      4  O   UNL     1     114.318 131.133 141.556  0.00  0.00    +0.000 OA
ATOM      5  C   UNL     1     112.217 131.367 142.891  0.00  0.00    +0.000 A 
ATOM      6  C   UNL     1     111.629 130.278 142.176  0.00  0.00    +0.000 A 
ATOM      7  C   UNL     1     111.577 130.863 142.755  0.00  0.00    +0.000 A 
ATOM      8  C   UNL     1     112.907 131.285 142.448  0.00  0.00    +0.000 A 
ATOM      9  C   UNL     1     112.320 130.196 141.733  0.00  0.00    +0.000 A 
ATOM     10  C   UNL     1     112.959 130.700 141.868  0.00  0.00    +0.000 A 
ATOM     11  C   UNL     1     113.684 130.625 141.413  0.00  0.00    +0.000 A 
ATOM     12  C   UNL     1     113.078 129.493 140.667  0.00  0.00    +0.000 A 
ATOM     13  C   UNL     1     113.744 130.018 140.809  0.00  0.00    +0.000 A 
ENDROOT
BRANCH   5  18
ATOM     14  O   UNL     1     112.392 131.787 144.245  0.00  0.00    +0.000 OA
ATOM     15  O   UNL     1     111.659 132.869 142.498  0.00  0.00    +0.000 OA
ATOM     16  O   UNL     1     111.556 134.040 143.656  0.00  0.00    +0.000 OA
ATOM     17  O   UNL     1     112.010 133.709 145.207  0.00  0.00    +0.000 OA
ATOM     18  C   UNL     1     112.165 131.952 143.470  0.00  0.00    +0.000 C 
ATOM     19  C   UNL     1     111.886 132.703 143.273  0.00  0.00    +0.000 C 
ATOM     20  C   UNL     1     111.835 133.289 143.852  0.00  0.00    +0.000 C 
ATOM     21  C   UNL     1     112.062 133.123 144.628  0.00  0.00    +0.000 C 
ATOM     22  C   UNL     1     112.340 132.372 144.824  0.00  0.00    +0.000 C 
BRANCH  22  24
ATOM     23  O   UNL     1     112.335 131.499 145.955  0.00  0.00    +0.000 OA
ATOM     24  C   UNL     1     112.568 132.206 145.600  0.00  0.00    +0.000 C 
ENDBRANCH  22  24
ENDBRANCH   5  18
BRANCH   6  29
ATOM     25  O   UNL     1     110.446 129.948 141.444  0.00  0.00    +0.000 OA
ATOM     26  O   UNL     1     111.436 128.923 143.096  0.00  0.00    +0.000 OA
ATOM     27  O   UNL     1     110.158 127.916 142.826  0.00  0.00    +0.000 OA
ATOM     28  O   UNL     1     109.071 128.264 141.633  0.00  0.00    +0.000 OA
ATOM     29  C   UNL     1     110.989 129.774 142.040  0.00  0.00    +0.000 C 
ATOM     30  C   UNL     1     110.893 129.096 142.501  0.00  0.00    +0.000 C 
ATOM     31  C   UNL     1     110.254 128.593 142.365  0.00  0.00    +0.000 C 
ATOM     32  C   UNL     1     109.711 128.767 141.769  0.00  0.00    +0.000 C 
ATOM     33  C   UNL     1     109.807 129.445 141.308  0.00  0.00    +0.000 C 
ENDBRANCH   6  29
BRANCH  12  34
ATOM     34  C   UNL     1     113.127 128.907 140.089  0.00  0.00    +0.000 A 
ATOM     35  C   UNL     1     113.225 127.734 138.931  0.00  0.00    +0.000 A 
ATOM     36  C   UNL     1     113.389 128.151 140.288  0.00  0.00    +0.000 A 
ATOM     37  C   UNL     1     112.913 129.077 139.310  0.00  0.00    +0.000 A 
ATOM     38  C   UNL     1     113.438 127.564 139.709  0.00  0.00    +0.000 A 
ATOM     39  C   UNL     1     112.962 128.491 138.731  0.00  0.00    +0.000 A 
BRANCH  35  40
ATOM     40  O   UNL     1     113.273 127.148 138.353  0.00  0.00    +0.000 OA
BRANCH  40  49
ATOM     41  O   UNL     1     111.994 126.560 138.598  0.00  0.00    +0.000 OA
ATOM     42  O   UNL     1     111.710 126.169 136.170  0.00  0.00    +0.000 OA
ATOM     43  O   UNL     1     110.527 125.711 137.224  0.00  0.00    +0.000 OA
ATOM     44  O   UNL     1     113.083 126.888 136.735  0.00  0.00    +0.000 OA
ATOM     45  C   UNL     1     111.805 126.299 136.980  0.00  0.00    +0.000 C 
ATOM     46  C   UNL     1     111.213 126.070 137.507  0.00  0.00    +0.000 C 
ATOM     47  C   UNL     1     112.492 126.659 137.262  0.00  0.00    +0.000 C 
ATOM     48  C   UNL     1     111.308 126.200 138.315  0.00  0.00    +0.000 C 
ATOM     49  C   UNL     1     112.587 126.789 138.070  0.00  0.00    +0.000 C 
BRANCH  48  51
ATOM     50  O   UNL     1     110.907 125.514 139.503  0.00  0.00    +0.000 OA
ATOM     51  C   UNL     1     110.716 125.971 138.842  0.00  0.00    +0.000 C 
ENDBRANCH  48  51
ENDBRANCH  40  49
ENDBRANCH  35  40
ENDBRANCH  12  34
TORSDOF 7
ENDMDL
MODEL 7
REMARK VINA RESULT:     -10.4      3.055      7.287
REMARK  Name = 74977489
REMARK  7 active torsions:
REMARK  status: ('A' for Active; 'I' for Inactive)
REMARK    1  A    between atoms: O_14  and  C_41
REMARK    2  A    between atoms: O_14  and  C_47
REMARK    3  A    between atoms: C_20  and  C_26
REMARK    4  A    between atoms: C_24  and  C_34
REMARK    5  A    between atoms: C_25  and  C_28
REMARK    6  A    between atoms: C_40  and  C_43
REMARK    7  A    between atoms: C_44  and  C_46
REMARK                            x       y       z     vdW  Elec       q    Type
REMARK                         _______ _______ _______ _____ _____    ______ ____
ROOT
ATOM      1  O   UNL     1     109.659 127.221 140.706  0.00  0.00    +0.000 OA
ATOM      2  O   UNL     1     107.908 128.554 142.563  0.00  0.00    +0.000 OA
ATOM      3  O   UNL     1     107.466 125.798 141.946  0.00  0.00    +0.000 OA
ATOM      4  O   UNL     1     108.321 125.095 141.021  0.00  0.00    +0.000 OA
ATOM      5  C   UNL     1     107.687 127.176 142.255  0.00  0.00    +0.000 A 
ATOM      6  C   UNL     1     108.769 127.881 141.643  0.00  0.00    +0.000 A 
ATOM      7  C   UNL     1     108.121 127.870 142.154  0.00  0.00    +0.000 A 
ATOM      8  C   UNL     1     107.900 126.492 141.846  0.00  0.00    +0.000 A 
ATOM      9  C   UNL     1     108.983 127.197 141.234  0.00  0.00    +0.000 A 
ATOM     10  C   UNL     1     108.548 126.503 141.335  0.00  0.00    +0.000 A 
ATOM     11  C   UNL     1     108.761 125.785 140.915  0.00  0.00    +0.000 A 
ATOM     12  C   UNL     1     109.887 126.512 140.276  0.00  0.00    +0.000 A 
ATOM     13  C   UNL     1     109.434 125.789 140.382  0.00  0.00    +0.000 A 
ENDROOT
BRANCH   5  18
ATOM     14  O   UNL     1     107.143 126.972 143.560  0.00  0.00    +0.000 OA
ATOM     15  O   UNL     1     106.182 127.541 141.685  0.00  0.00    +0.000 OA
ATOM     16  O   UNL     1     104.885 127.520 142.705  0.00  0.00    +0.000 OA
ATOM     17  O   UNL     1     105.094 127.133 144.296  0.00  0.00    +0.000 OA
ATOM     18  C   UNL     1     107.039 127.165 142.766  0.00  0.00    +0.000 C 
ATOM     19  C   UNL     1     106.287 127.348 142.480  0.00  0.00    +0.000 C 
ATOM     20  C   UNL     1     105.638 127.337 142.990  0.00  0.00    +0.000 C 
ATOM     21  C   UNL     1     105.742 127.144 143.786  0.00  0.00    +0.000 C 
ATOM     22  C   UNL     1     106.494 126.962 144.071  0.00  0.00    +0.000 C 
BRANCH  22  24
ATOM     23  O   UNL     1     107.101 126.149 145.077  0.00  0.00    +0.000 OA
ATOM     24  C   UNL     1     106.599 126.768 144.866  0.00  0.00    +0.000 C 
ENDBRANCH  22  24
ENDBRANCH   5  18
BRANCH   6  29
ATOM     25  O   UNL     1     109.033 129.080 140.913  0.00  0.00    +0.000 OA
ATOM     26  O   UNL     1     109.977 128.259 142.700  0.00  0.00    +0.000 OA
ATOM     27  O   UNL     1     110.846 129.646 142.500  0.00  0.00    +0.000 OA
ATOM     28  O   UNL     1     110.506 130.658 141.240  0.00  0.00    +0.000 OA
ATOM     29  C   UNL     1     109.204 128.575 141.542  0.00  0.00    +0.000 C 
ATOM     30  C   UNL     1     109.808 128.764 142.071  0.00  0.00    +0.000 C 
ATOM     31  C   UNL     1     110.242 129.458 141.970  0.00  0.00    +0.000 C 
ATOM     32  C   UNL     1     110.072 129.963 141.341  0.00  0.00    +0.000 C 
ATOM     33  C   UNL     1     109.468 129.774 140.812  0.00  0.00    +0.000 C 
ENDBRANCH   6  29
BRANCH  12  34
ATOM     34  C   UNL     1     110.536 126.525 139.766  0.00  0.00    +0.000 A 
ATOM     35  C   UNL     1     111.833 126.553 138.746  0.00  0.00    +0.000 A 
ATOM     36  C   UNL     1     111.280 126.300 140.040  0.00  0.00    +0.000 A 
ATOM     37  C   UNL     1     110.438 126.764 138.982  0.00  0.00    +0.000 A 
ATOM     38  C   UNL     1     111.929 126.314 139.529  0.00  0.00    +0.000 A 
ATOM     39  C   UNL     1     111.088 126.778 138.472  0.00  0.00    +0.000 A 
BRANCH  35  40
ATOM     40  O   UNL     1     112.481 126.566 138.237  0.00  0.00    +0.000 OA
BRANCH  40  49
ATOM     41  O   UNL     1     112.172 125.397 137.475  0.00  0.00    +0.000 OA
ATOM     42  O   UNL     1     114.561 124.749 137.501  0.00  0.00    +0.000 OA
ATOM     43  O   UNL     1     113.456 123.797 136.732  0.00  0.00    +0.000 OA
ATOM     44  O   UNL     1     114.073 126.134 138.254  0.00  0.00    +0.000 OA
ATOM     45  C   UNL     1     113.765 124.965 137.493  0.00  0.00    +0.000 C 
ATOM     46  C   UNL     1     113.212 124.489 137.108  0.00  0.00    +0.000 C 
ATOM     47  C   UNL     1     113.520 125.658 137.869  0.00  0.00    +0.000 C 
ATOM     48  C   UNL     1     112.416 124.705 137.099  0.00  0.00    +0.000 C 
ATOM     49  C   UNL     1     112.725 125.874 137.860  0.00  0.00    +0.000 C 
BRANCH  48  51
ATOM     50  O   UNL     1     111.389 124.547 136.118  0.00  0.00    +0.000 OA
ATOM     51  C   UNL     1     111.864 124.229 136.714  0.00  0.00    +0.000 C 
ENDBRANCH  48  51
ENDBRANCH  40  49
ENDBRANCH  35  40
ENDBRANCH  12  34
TORSDOF 7
ENDMDL
MODEL 8
REMARK VINA RESULT:     -10.3      1.902      7.101
REMARK  Name = 74977489
REMARK  7 active torsions:
REMARK  status: ('A' for Active; 'I' for Inactive)
REMARK    1  A    between atoms: O_14  and  C_41
REMARK    2  A    between atoms: O_14  and  C_47
REMARK    3  A    between atoms: C_20  and  C_26
REMARK    4  A    between atoms: C_24  and  C_34
REMARK    5  A    between atoms: C_25  and  C_28
REMARK    6  A    between atoms: C_40  and  C_43
REMARK    7  A    between atoms: C_44  and  C_46
REMARK                            x       y       z     vdW  Elec       q    Type
REMARK                         _______ _______ _______ _____ _____    ______ ____
ROOT
ATOM      1  O   UNL     1     111.785 129.944 140.218  0.00  0.00    +0.000 OA
ATOM      2  O   UNL     1     110.406 131.263 142.375  0.00  0.00    +0.000 OA
ATOM      3  O   UNL     1     113.258 131.088 142.430  0.00  0.00    +0.000 OA
ATOM      4  O   UNL     1     113.986 130.436 141.369  0.00  0.00    +0.000 OA
ATOM      5  C   UNL     1     111.832 131.176 142.403  0.00  0.00    +0.000 A 
ATOM      6  C   UNL     1     111.102 130.611 141.311  0.00  0.00    +0.000 A 
ATOM      7  C   UNL     1     111.114 131.017 142.030  0.00  0.00    +0.000 A 
ATOM      8  C   UNL     1     112.540 130.929 142.057  0.00  0.00    +0.000 A 
ATOM      9  C   UNL     1     111.810 130.366 140.966  0.00  0.00    +0.000 A 
ATOM     10  C   UNL     1     112.529 130.524 141.339  0.00  0.00    +0.000 A 
ATOM     11  C   UNL     1     113.272 130.273 140.989  0.00  0.00    +0.000 A 
ATOM     12  C   UNL     1     112.519 129.685 139.852  0.00  0.00    +0.000 A 
ATOM     13  C   UNL     1     113.267 129.851 140.241  0.00  0.00    +0.000 A 
ENDROOT
BRANCH   5  18
ATOM     14  O   UNL     1     111.887 132.404 143.130  0.00  0.00    +0.000 OA
ATOM     15  O   UNL     1     111.768 130.338 143.823  0.00  0.00    +0.000 OA
ATOM     16  O   UNL     1     111.791 131.148 145.260  0.00  0.00    +0.000 OA
ATOM     17  O   UNL     1     111.878 132.796 145.278  0.00  0.00    +0.000 OA
ATOM     18  C   UNL     1     111.844 131.581 143.122  0.00  0.00    +0.000 C 
ATOM     19  C   UNL     1     111.812 131.162 143.831  0.00  0.00    +0.000 C 
ATOM     20  C   UNL     1     111.823 131.566 144.550  0.00  0.00    +0.000 C 
ATOM     21  C   UNL     1     111.866 132.391 144.559  0.00  0.00    +0.000 C 
ATOM     22  C   UNL     1     111.898 132.809 143.849  0.00  0.00    +0.000 C 
BRANCH  22  24
ATOM     23  O   UNL     1     111.886 134.056 143.151  0.00  0.00    +0.000 OA
ATOM     24  C   UNL     1     111.942 133.633 143.857  0.00  0.00    +0.000 C 
ENDBRANCH  22  24
ENDBRANCH   5  18
BRANCH   6  29
ATOM     25  O   UNL     1     110.020 129.719 141.039  0.00  0.00    +0.000 OA
ATOM     26  O   UNL     1     110.392 131.761 140.366  0.00  0.00    +0.000 OA
ATOM     27  O   UNL     1     108.955 131.445 139.620  0.00  0.00    +0.000 OA
ATOM     28  O   UNL     1     108.228 129.976 139.820  0.00  0.00    +0.000 OA
ATOM     29  C   UNL     1     110.384 130.453 140.938  0.00  0.00    +0.000 C 
ATOM     30  C   UNL     1     110.029 131.028 140.465  0.00  0.00    +0.000 C 
ATOM     31  C   UNL     1     109.310 130.869 140.093  0.00  0.00    +0.000 C 
ATOM     32  C   UNL     1     108.946 130.135 140.193  0.00  0.00    +0.000 C 
ATOM     33  C   UNL     1     109.302 129.560 140.666  0.00  0.00    +0.000 C 
ENDBRANCH   6  29
BRANCH  12  34
ATOM     34  C   UNL     1     112.505 129.280 139.134  0.00  0.00    +0.000 A 
ATOM     35  C   UNL     1     112.476 128.470 137.696  0.00  0.00    +0.000 A 
ATOM     36  C   UNL     1     112.536 128.456 139.124  0.00  0.00    +0.000 A 
ATOM     37  C   UNL     1     112.459 129.700 138.425  0.00  0.00    +0.000 A 
ATOM     38  C   UNL     1     112.522 128.051 138.405  0.00  0.00    +0.000 A 
ATOM     39  C   UNL     1     112.445 129.294 137.705  0.00  0.00    +0.000 A 
BRANCH  35  40
ATOM     40  O   UNL     1     112.462 128.065 136.978  0.00  0.00    +0.000 OA
BRANCH  40  49
ATOM     41  O   UNL     1     111.042 128.008 136.828  0.00  0.00    +0.000 OA
ATOM     42  O   UNL     1     111.231 125.722 135.900  0.00  0.00    +0.000 OA
ATOM     43  O   UNL     1     109.749 126.427 136.060  0.00  0.00    +0.000 OA
ATOM     44  O   UNL     1     112.588 126.540 136.359  0.00  0.00    +0.000 OA
ATOM     45  C   UNL     1     111.168 126.484 136.209  0.00  0.00    +0.000 C 
ATOM     46  C   UNL     1     110.427 126.837 136.289  0.00  0.00    +0.000 C 
ATOM     47  C   UNL     1     111.847 126.894 136.439  0.00  0.00    +0.000 C 
ATOM     48  C   UNL     1     110.364 127.598 136.598  0.00  0.00    +0.000 C 
ATOM     49  C   UNL     1     111.784 127.655 136.748  0.00  0.00    +0.000 C 
BRANCH  48  51
ATOM     50  O   UNL     1     109.294 128.055 137.429  0.00  0.00    +0.000 OA
ATOM     51  C   UNL     1     109.623 127.952 136.678  0.00  0.00    +0.000 C 
ENDBRANCH  48  51
ENDBRANCH  40  49
ENDBRANCH  35  40
ENDBRANCH  12  34
TORSDOF 7
ENDMDL
MODEL 9
REMARK VINA RESULT:     -10.1      1.765      7.062
REMARK  Name = 74977489
REMARK  7 active torsions:
REMARK  status: ('A' for Active; 'I' for Inactive)
REMARK    1  A    between atoms: O_14  and  C_41
REMARK    2  A    between atoms: O_14  and  C_47
REMARK    3  A    between atoms: C_20  and  C_26
REMARK    4  A    between atoms: C_24  and  C_34
REMARK    5  A    between atoms: C_25  and  C_28
REMARK    6  A    between atoms: C_40  and  C_43
REMARK    7  A    between atoms: C_44  and  C_46
REMARK                            x       y       z     vdW  Elec       q    Type
REMARK                         _______ _______ _______ _____ _____    ______ ____
ROOT
ATOM      1  O   UNL     1     111.384 129.110 139.908  0.00  0.00    +0.000 OA
ATOM      2  O   UNL     1     110.487 131.211 141.662  0.00  0.00    +0.000 OA
ATOM      3  O   UNL     1     112.710 129.589 142.435  0.00  0.00    +0.000 OA
ATOM      4  O   UNL     1     113.189 128.527 141.585  0.00  0.00    +0.000 OA
ATOM      5  C   UNL     1     111.599 130.400 142.049  0.00  0.00    +0.000 A 
ATOM      6  C   UNL     1     110.942 130.165 140.801  0.00  0.00    +0.000 A 
ATOM      7  C   UNL     1     111.009 130.592 141.504  0.00  0.00    +0.000 A 
ATOM      8  C   UNL     1     112.121 129.781 141.891  0.00  0.00    +0.000 A 
ATOM      9  C   UNL     1     111.464 129.547 140.644  0.00  0.00    +0.000 A 
ATOM     10  C   UNL     1     112.054 129.354 141.188  0.00  0.00    +0.000 A 
ATOM     11  C   UNL     1     112.603 128.712 141.035  0.00  0.00    +0.000 A 
ATOM     12  C   UNL     1     111.925 128.463 139.737  0.00  0.00    +0.000 A 
ATOM     13  C   UNL     1     112.539 128.264 140.305  0.00  0.00    +0.000 A 
ENDROOT
BRANCH   5  18
ATOM     14  O   UNL     1     111.253 130.584 143.423  0.00  0.00    +0.000 OA
ATOM     15  O   UNL     1     112.560 131.739 142.112  0.00  0.00    +0.000 OA
ATOM     16  O   UNL     1     112.695 132.593 143.517  0.00  0.00    +0.000 OA
ATOM     17  O   UNL     1     111.868 132.108 144.860  0.00  0.00    +0.000 OA
ATOM     18  C   UNL     1     111.666 130.827 142.752  0.00  0.00    +0.000 C 
ATOM     19  C   UNL     1     112.147 131.496 142.783  0.00  0.00    +0.000 C 
ATOM     20  C   UNL     1     112.215 131.923 143.485  0.00  0.00    +0.000 C 
ATOM     21  C   UNL     1     111.801 131.681 144.157  0.00  0.00    +0.000 C 
ATOM     22  C   UNL     1     111.320 131.011 144.126  0.00  0.00    +0.000 C 
BRANCH  22  24
ATOM     23  O   UNL     1     110.518 130.040 144.801  0.00  0.00    +0.000 OA
ATOM     24  C   UNL     1     110.906 130.768 144.797  0.00  0.00    +0.000 C 
ENDBRANCH  22  24
ENDBRANCH   5  18
BRANCH   6  29
ATOM     25  O   UNL     1     110.523 130.861 139.626  0.00  0.00    +0.000 OA
ATOM     26  O   UNL     1     109.425 129.542 140.974  0.00  0.00    +0.000 OA
ATOM     27  O   UNL     1     108.246 129.925 139.886  0.00  0.00    +0.000 OA
ATOM     28  O   UNL     1     108.585 130.934 138.623  0.00  0.00    +0.000 OA
ATOM     29  C   UNL     1     110.353 130.357 140.257  0.00  0.00    +0.000 C 
ATOM     30  C   UNL     1     109.594 130.045 140.343  0.00  0.00    +0.000 C 
ATOM     31  C   UNL     1     109.005 130.238 139.799  0.00  0.00    +0.000 C 
ATOM     32  C   UNL     1     109.174 130.742 139.168  0.00  0.00    +0.000 C 
ATOM     33  C   UNL     1     109.933 131.054 139.082  0.00  0.00    +0.000 C 
ENDBRANCH   6  29
BRANCH  12  34
ATOM     34  C   UNL     1     111.856 128.038 139.034  0.00  0.00    +0.000 A 
ATOM     35  C   UNL     1     111.717 127.188 137.626  0.00  0.00    +0.000 A 
ATOM     36  C   UNL     1     112.269 128.281 138.363  0.00  0.00    +0.000 A 
ATOM     37  C   UNL     1     111.372 127.370 139.002  0.00  0.00    +0.000 A 
ATOM     38  C   UNL     1     112.200 127.856 137.659  0.00  0.00    +0.000 A 
ATOM     39  C   UNL     1     111.303 126.945 138.297  0.00  0.00    +0.000 A 
BRANCH  35  40
ATOM     40  O   UNL     1     111.647 126.763 136.923  0.00  0.00    +0.000 OA
BRANCH  40  49
ATOM     41  O   UNL     1     112.832 125.972 137.027  0.00  0.00    +0.000 OA
ATOM     42  O   UNL     1     111.585 123.996 136.210  0.00  0.00    +0.000 OA
ATOM     43  O   UNL     1     113.185 123.864 136.587  0.00  0.00    +0.000 OA
ATOM     44  O   UNL     1     110.816 125.446 136.378  0.00  0.00    +0.000 OA
ATOM     45  C   UNL     1     112.001 124.655 136.482  0.00  0.00    +0.000 C 
ATOM     46  C   UNL     1     112.801 124.589 136.671  0.00  0.00    +0.000 C 
ATOM     47  C   UNL     1     111.616 125.381 136.567  0.00  0.00    +0.000 C 
ATOM     48  C   UNL     1     113.216 125.247 136.943  0.00  0.00    +0.000 C 
ATOM     49  C   UNL     1     112.031 126.038 136.839  0.00  0.00    +0.000 C 
BRANCH  48  51
ATOM     50  O   UNL     1     114.569 125.668 136.759  0.00  0.00    +0.000 OA
ATOM     51  C   UNL     1     114.017 125.181 137.132  0.00  0.00    +0.000 C 
ENDBRANCH  48  51
ENDBRANCH  40  49
ENDBRANCH  35  40
ENDBRANCH  12  34
TORSDOF 7
ENDMDL
