MODEL 1
REMARK VINA RESULT:      -7.5      0.000      0.000
REMARK  Name = 79730
REMARK  4 active torsions:
REMARK  status: ('A' for Active; 'I' for Inactive)
REMARK    1  A    between atoms: O_2  and  C_9
REMARK    2  A    between atoms: O_3  and  C_14
REMARK    3  A    between atoms: O_5  and  C_20
REMARK    4  A    between atoms: C_8  and  C_11
REMARK                            x       y       z     vdW  Elec       q    Type
REMARK                         _______ _______ _______ _____ _____    ______ ____
ROOT
ATOM      1  O   UNL     1     104.881 124.279 147.208  0.00  0.00    +0.000 OA
ATOM      2  O   UNL     1     105.969 125.437 145.311  0.00  0.00    +0.000 OA
ATOM      3  C   UNL     1     105.971 125.037 146.683  0.00  0.00    +0.000 A 
ATOM      4  C   UNL     1     105.609 124.650 147.315  0.00  0.00    +0.000 A 
ATOM      5  C   UNL     1     104.514 124.292 146.469  0.00  0.00    +0.000 A 
ATOM      6  C   UNL     1     106.730 125.428 146.782  0.00  0.00    +0.000 A 
ATOM      7  C   UNL     1     105.606 125.051 145.944  0.00  0.00    +0.000 A 
ATOM      8  C   UNL     1     104.877 124.678 145.837  0.00  0.00    +0.000 A 
ATOM      9  C   UNL     1     105.980 124.629 148.090  0.00  0.00    +0.000 A 
ATOM     10  C   UNL     1     106.739 125.014 148.208  0.00  0.00    +0.000 A 
ATOM     11  C   UNL     1     107.116 125.417 147.549  0.00  0.00    +0.000 A 
ENDROOT
BRANCH   5  12
ATOM     12  C   UNL     1     103.786 123.921 146.362  0.00  0.00    +0.000 A 
ATOM     13  C   UNL     1     103.098 124.266 146.658  0.00  0.00    +0.000 A 
ATOM     14  C   UNL     1     103.746 123.202 145.959  0.00  0.00    +0.000 A 
ATOM     15  C   UNL     1     102.370 123.895 146.551  0.00  0.00    +0.000 A 
ATOM     16  C   UNL     1     103.017 122.829 145.852  0.00  0.00    +0.000 A 
ATOM     17  C   UNL     1     102.329 123.176 146.148  0.00  0.00    +0.000 A 
BRANCH  17  18
ATOM     18  O   UNL     1     101.601 122.803 146.041  0.00  0.00    +0.000 OA
ATOM     19  C   UNL     1     101.192 122.894 145.330  0.00  0.00    +0.000 C 
ENDBRANCH  17  18
ENDBRANCH   5  12
BRANCH   6  20
ATOM     20  O   UNL     1     107.085 125.812 146.144  0.00  0.00    +0.000 OA
ATOM     21  C   UNL     1     107.199 126.629 146.165  0.00  0.00    +0.000 C 
ENDBRANCH   6  20
BRANCH  10  22
ATOM     22  O   UNL     1     107.102 124.999 148.948  0.00  0.00    +0.000 OA
ATOM     23  C   UNL     1     107.527 124.333 149.186  0.00  0.00    +0.000 C 
ENDBRANCH  10  22
TORSDOF 4
ENDMDL
MODEL 2
REMARK VINA RESULT:      -7.5     12.515     14.056
REMARK  Name = 79730
REMARK  4 active torsions:
REMARK  status: ('A' for Active; 'I' for Inactive)
REMARK    1  A    between atoms: O_2  and  C_9
REMARK    2  A    between atoms: O_3  and  C_14
REMARK    3  A    between atoms: O_5  and  C_20
REMARK    4  A    between atoms: C_8  and  C_11
REMARK                            x       y       z     vdW  Elec       q    Type
REMARK                         _______ _______ _______ _____ _____    ______ ____
ROOT
ATOM      1  O   UNL     1     112.276 127.289 135.998  0.00  0.00    +0.000 OA
ATOM      2  O   UNL     1     113.494 125.390 137.015  0.00  0.00    +0.000 OA
ATOM      3  C   UNL     1     112.338 125.907 136.354  0.00  0.00    +0.000 A 
ATOM      4  C   UNL     1     111.931 126.540 136.015  0.00  0.00    +0.000 A 
ATOM      5  C   UNL     1     113.027 127.406 136.319  0.00  0.00    +0.000 A 
ATOM      6  C   UNL     1     111.989 125.122 136.379  0.00  0.00    +0.000 A 
ATOM      7  C   UNL     1     113.088 126.023 136.676  0.00  0.00    +0.000 A 
ATOM      8  C   UNL     1     113.433 126.773 136.658  0.00  0.00    +0.000 A 
ATOM      9  C   UNL     1     111.148 126.431 135.677  0.00  0.00    +0.000 A 
ATOM     10  C   UNL     1     110.785 125.653 135.692  0.00  0.00    +0.000 A 
ATOM     11  C   UNL     1     111.208 124.994 136.045  0.00  0.00    +0.000 A 
ENDROOT
BRANCH   5  12
ATOM     12  C   UNL     1     113.371 128.155 136.302  0.00  0.00    +0.000 A 
ATOM     13  C   UNL     1     113.854 128.373 135.669  0.00  0.00    +0.000 A 
ATOM     14  C   UNL     1     113.233 128.687 136.918  0.00  0.00    +0.000 A 
ATOM     15  C   UNL     1     114.198 129.122 135.652  0.00  0.00    +0.000 A 
ATOM     16  C   UNL     1     113.578 129.437 136.901  0.00  0.00    +0.000 A 
ATOM     17  C   UNL     1     114.060 129.654 136.267  0.00  0.00    +0.000 A 
BRANCH  17  18
ATOM     18  O   UNL     1     114.405 130.404 136.250  0.00  0.00    +0.000 OA
ATOM     19  C   UNL     1     115.072 130.540 135.784  0.00  0.00    +0.000 C 
ENDBRANCH  17  18
ENDBRANCH   5  12
BRANCH   6  20
ATOM     20  O   UNL     1     112.403 124.495 136.720  0.00  0.00    +0.000 OA
ATOM     21  C   UNL     1     112.065 123.742 136.745  0.00  0.00    +0.000 C 
ENDBRANCH   6  20
BRANCH  10  22
ATOM     22  O   UNL     1     110.034 125.540 135.370  0.00  0.00    +0.000 OA
ATOM     23  C   UNL     1     109.862 125.821 134.614  0.00  0.00    +0.000 C 
ENDBRANCH  10  22
TORSDOF 4
ENDMDL
MODEL 3
REMARK VINA RESULT:      -7.5      0.802      2.093
REMARK  Name = 79730
REMARK  4 active torsions:
REMARK  status: ('A' for Active; 'I' for Inactive)
REMARK    1  A    between atoms: O_2  and  C_9
REMARK    2  A    between atoms: O_3  and  C_14
REMARK    3  A    between atoms: O_5  and  C_20
REMARK    4  A    between atoms: C_8  and  C_11
REMARK                            x       y       z     vdW  Elec       q    Type
REMARK                         _______ _______ _______ _____ _____    ______ ____
ROOT
ATOM      1  O   UNL     1     104.365 124.543 145.906  0.00  0.00    +0.000 OA
ATOM      2  O   UNL     1     105.242 124.580 148.220  0.00  0.00    +0.000 OA
ATOM      3  C   UNL     1     105.386 124.907 146.836  0.00  0.00    +0.000 A 
ATOM      4  C   UNL     1     105.093 124.894 146.065  0.00  0.00    +0.000 A 
ATOM      5  C   UNL     1     103.928 124.203 146.518  0.00  0.00    +0.000 A 
ATOM      6  C   UNL     1     106.144 125.270 147.015  0.00  0.00    +0.000 A 
ATOM      7  C   UNL     1     104.950 124.567 147.449  0.00  0.00    +0.000 A 
ATOM      8  C   UNL     1     104.220 124.215 147.289  0.00  0.00    +0.000 A 
ATOM      9  C   UNL     1     105.539 125.245 145.419  0.00  0.00    +0.000 A 
ATOM     10  C   UNL     1     106.299 125.613 145.579  0.00  0.00    +0.000 A 
ATOM     11  C   UNL     1     106.603 125.625 146.382  0.00  0.00    +0.000 A 
ENDROOT
BRANCH   5  12
ATOM     12  C   UNL     1     103.199 123.851 146.359  0.00  0.00    +0.000 A 
ATOM     13  C   UNL     1     103.167 123.129 145.961  0.00  0.00    +0.000 A 
ATOM     14  C   UNL     1     102.502 124.222 146.598  0.00  0.00    +0.000 A 
ATOM     15  C   UNL     1     102.438 122.778 145.802  0.00  0.00    +0.000 A 
ATOM     16  C   UNL     1     101.772 123.870 146.439  0.00  0.00    +0.000 A 
ATOM     17  C   UNL     1     101.741 123.148 146.041  0.00  0.00    +0.000 A 
BRANCH  17  18
ATOM     18  O   UNL     1     101.011 122.796 145.882  0.00  0.00    +0.000 OA
ATOM     19  C   UNL     1     100.715 122.792 145.112  0.00  0.00    +0.000 C 
ENDBRANCH  17  18
ENDBRANCH   5  12
BRANCH   6  20
ATOM     20  O   UNL     1     106.428 125.278 147.789  0.00  0.00    +0.000 OA
ATOM     21  C   UNL     1     107.214 125.075 147.943  0.00  0.00    +0.000 C 
ENDBRANCH   6  20
BRANCH  10  22
ATOM     22  O   UNL     1     106.733 125.951 144.965  0.00  0.00    +0.000 OA
ATOM     23  C   UNL     1     106.571 126.722 144.720  0.00  0.00    +0.000 C 
ENDBRANCH  10  22
TORSDOF 4
ENDMDL
MODEL 4
REMARK VINA RESULT:      -7.4      6.640      7.600
REMARK  Name = 79730
REMARK  4 active torsions:
REMARK  status: ('A' for Active; 'I' for Inactive)
REMARK    1  A    between atoms: O_2  and  C_9
REMARK    2  A    between atoms: O_3  and  C_14
REMARK    3  A    between atoms: O_5  and  C_20
REMARK    4  A    between atoms: C_8  and  C_11
REMARK                            x       y       z     vdW  Elec       q    Type
REMARK                         _______ _______ _______ _____ _____    ______ ____
ROOT
ATOM      1  O   UNL     1     104.540 124.662 139.309  0.00  0.00    +0.000 OA
ATOM      2  O   UNL     1     105.961 122.888 140.287  0.00  0.00    +0.000 OA
ATOM      3  C   UNL     1     105.543 124.253 140.240  0.00  0.00    +0.000 A 
ATOM      4  C   UNL     1     105.069 124.845 139.914  0.00  0.00    +0.000 A 
ATOM      5  C   UNL     1     104.483 123.888 139.029  0.00  0.00    +0.000 A 
ATOM      6  C   UNL     1     106.099 124.431 140.871  0.00  0.00    +0.000 A 
ATOM      7  C   UNL     1     105.487 123.479 139.961  0.00  0.00    +0.000 A 
ATOM      8  C   UNL     1     104.957 123.297 139.355  0.00  0.00    +0.000 A 
ATOM      9  C   UNL     1     105.119 125.655 140.197  0.00  0.00    +0.000 A 
ATOM     10  C   UNL     1     105.668 125.852 140.827  0.00  0.00    +0.000 A 
ATOM     11  C   UNL     1     106.162 125.235 141.166  0.00  0.00    +0.000 A 
ENDROOT
BRANCH   5  12
ATOM     12  C   UNL     1     103.954 123.706 138.424  0.00  0.00    +0.000 A 
ATOM     13  C   UNL     1     103.141 123.733 138.564  0.00  0.00    +0.000 A 
ATOM     14  C   UNL     1     104.237 123.496 137.678  0.00  0.00    +0.000 A 
ATOM     15  C   UNL     1     102.612 123.550 137.959  0.00  0.00    +0.000 A 
ATOM     16  C   UNL     1     103.707 123.313 137.072  0.00  0.00    +0.000 A 
ATOM     17  C   UNL     1     102.895 123.340 137.213  0.00  0.00    +0.000 A 
BRANCH  17  18
ATOM     18  O   UNL     1     102.365 123.157 136.607  0.00  0.00    +0.000 OA
ATOM     19  C   UNL     1     102.625 122.739 135.945  0.00  0.00    +0.000 C 
ENDBRANCH  17  18
ENDBRANCH   5  12
BRANCH   6  20
ATOM     20  O   UNL     1     106.568 123.833 141.191  0.00  0.00    +0.000 OA
ATOM     21  C   UNL     1     107.379 123.953 141.289  0.00  0.00    +0.000 C 
ENDBRANCH   6  20
BRANCH  10  22
ATOM     22  O   UNL     1     105.723 126.626 141.105  0.00  0.00    +0.000 OA
ATOM     23  C   UNL     1     105.372 126.834 141.821  0.00  0.00    +0.000 C 
ENDBRANCH  10  22
TORSDOF 4
ENDMDL
MODEL 5
REMARK VINA RESULT:      -7.4     12.518     14.545
REMARK  Name = 79730
REMARK  4 active torsions:
REMARK  status: ('A' for Active; 'I' for Inactive)
REMARK    1  A    between atoms: O_2  and  C_9
REMARK    2  A    between atoms: O_3  and  C_14
REMARK    3  A    between atoms: O_5  and  C_20
REMARK    4  A    between atoms: C_8  and  C_11
REMARK                            x       y       z     vdW  Elec       q    Type
REMARK                         _______ _______ _______ _____ _____    ______ ____
ROOT
ATOM      1  O   UNL     1     113.954 127.494 136.220  0.00  0.00    +0.000 OA
ATOM      2  O   UNL     1     111.489 127.292 136.121  0.00  0.00    +0.000 OA
ATOM      3  C   UNL     1     112.773 126.699 136.329  0.00  0.00    +0.000 A 
ATOM      4  C   UNL     1     113.594 126.766 136.362  0.00  0.00    +0.000 A 
ATOM      5  C   UNL     1     113.493 128.156 136.046  0.00  0.00    +0.000 A 
ATOM      6  C   UNL     1     112.386 125.945 136.475  0.00  0.00    +0.000 A 
ATOM      7  C   UNL     1     112.311 127.360 136.154  0.00  0.00    +0.000 A 
ATOM      8  C   UNL     1     112.672 128.089 136.013  0.00  0.00    +0.000 A 
ATOM      9  C   UNL     1     114.086 126.085 136.543  0.00  0.00    +0.000 A 
ATOM     10  C   UNL     1     113.717 125.323 136.691  0.00  0.00    +0.000 A 
ATOM     11  C   UNL     1     112.861 125.253 136.657  0.00  0.00    +0.000 A 
ENDROOT
BRANCH   5  12
ATOM     12  C   UNL     1     113.853 128.884 135.904  0.00  0.00    +0.000 A 
ATOM     13  C   UNL     1     114.169 129.052 135.160  0.00  0.00    +0.000 A 
ATOM     14  C   UNL     1     113.898 129.446 136.507  0.00  0.00    +0.000 A 
ATOM     15  C   UNL     1     114.528 129.780 135.019  0.00  0.00    +0.000 A 
ATOM     16  C   UNL     1     114.258 130.176 136.365  0.00  0.00    +0.000 A 
ATOM     17  C   UNL     1     114.573 130.342 135.621  0.00  0.00    +0.000 A 
BRANCH  17  18
ATOM     18  O   UNL     1     114.933 131.071 135.480  0.00  0.00    +0.000 OA
ATOM     19  C   UNL     1     115.596 131.115 134.991  0.00  0.00    +0.000 C 
ENDBRANCH  17  18
ENDBRANCH   5  12
BRANCH   6  20
ATOM     20  O   UNL     1     111.564 125.888 136.439  0.00  0.00    +0.000 OA
ATOM     21  C   UNL     1     111.210 125.190 136.176  0.00  0.00    +0.000 C 
ENDBRANCH   6  20
BRANCH  10  22
ATOM     22  O   UNL     1     114.180 124.664 136.866  0.00  0.00    +0.000 OA
ATOM     23  C   UNL     1     114.689 124.677 137.514  0.00  0.00    +0.000 C 
ENDBRANCH  10  22
TORSDOF 4
ENDMDL
MODEL 6
REMARK VINA RESULT:      -7.3      1.230      4.545
REMARK  Name = 79730
REMARK  4 active torsions:
REMARK  status: ('A' for Active; 'I' for Inactive)
REMARK    1  A    between atoms: O_2  and  C_9
REMARK    2  A    between atoms: O_3  and  C_14
REMARK    3  A    between atoms: O_5  and  C_20
REMARK    4  A    between atoms: C_8  and  C_11
REMARK                            x       y       z     vdW  Elec       q    Type
REMARK                         _______ _______ _______ _____ _____    ______ ____
ROOT
ATOM      1  O   UNL     1     103.976 124.836 147.453  0.00  0.00    +0.000 OA
ATOM      2  O   UNL     1     103.413 123.455 145.478  0.00  0.00    +0.000 OA
ATOM      3  C   UNL     1     103.002 124.194 146.630  0.00  0.00    +0.000 A 
ATOM      4  C   UNL     1     103.189 124.654 147.289  0.00  0.00    +0.000 A 
ATOM      5  C   UNL     1     104.577 124.558 146.960  0.00  0.00    +0.000 A 
ATOM      6  C   UNL     1     102.185 123.997 146.448  0.00  0.00    +0.000 A 
ATOM      7  C   UNL     1     103.601 123.915 146.137  0.00  0.00    +0.000 A 
ATOM      8  C   UNL     1     104.389 124.098 146.302  0.00  0.00    +0.000 A 
ATOM      9  C   UNL     1     102.573 124.949 147.810  0.00  0.00    +0.000 A 
ATOM     10  C   UNL     1     101.751 124.763 147.643  0.00  0.00    +0.000 A 
ATOM     11  C   UNL     1     101.556 124.283 146.958  0.00  0.00    +0.000 A 
ENDROOT
BRANCH   5  12
ATOM     12  C   UNL     1     105.363 124.741 147.125  0.00  0.00    +0.000 A 
ATOM     13  C   UNL     1     105.691 124.536 147.854  0.00  0.00    +0.000 A 
ATOM     14  C   UNL     1     105.824 125.128 146.561  0.00  0.00    +0.000 A 
ATOM     15  C   UNL     1     106.478 124.718 148.019  0.00  0.00    +0.000 A 
ATOM     16  C   UNL     1     106.612 125.311 146.726  0.00  0.00    +0.000 A 
ATOM     17  C   UNL     1     106.939 125.105 147.455  0.00  0.00    +0.000 A 
BRANCH  17  18
ATOM     18  O   UNL     1     107.727 125.288 147.619  0.00  0.00    +0.000 OA
ATOM     19  C   UNL     1     108.127 124.884 148.217  0.00  0.00    +0.000 C 
ENDBRANCH  17  18
ENDBRANCH   5  12
BRANCH   6  20
ATOM     20  O   UNL     1     102.007 123.536 145.787  0.00  0.00    +0.000 OA
ATOM     21  C   UNL     1     101.232 123.282 145.658  0.00  0.00    +0.000 C 
ENDBRANCH   6  20
BRANCH  10  22
ATOM     22  O   UNL     1     101.153 125.042 148.138  0.00  0.00    +0.000 OA
ATOM     23  C   UNL     1     101.089 124.758 148.910  0.00  0.00    +0.000 C 
ENDBRANCH  10  22
TORSDOF 4
ENDMDL
MODEL 7
REMARK VINA RESULT:      -7.3     12.662     14.084
REMARK  Name = 79730
REMARK  4 active torsions:
REMARK  status: ('A' for Active; 'I' for Inactive)
REMARK    1  A    between atoms: O_2  and  C_9
REMARK    2  A    between atoms: O_3  and  C_14
REMARK    3  A    between atoms: O_5  and  C_20
REMARK    4  A    between atoms: C_8  and  C_11
REMARK                            x       y       z     vdW  Elec       q    Type
REMARK                         _______ _______ _______ _____ _____    ______ ____
ROOT
ATOM      1  O   UNL     1     113.753 127.668 135.986  0.00  0.00    +0.000 OA
ATOM      2  O   UNL     1     112.978 128.937 137.965  0.00  0.00    +0.000 OA
ATOM      3  C   UNL     1     113.562 128.913 136.661  0.00  0.00    +0.000 A 
ATOM      4  C   UNL     1     113.820 128.490 136.001  0.00  0.00    +0.000 A 
ATOM      5  C   UNL     1     113.427 127.269 136.631  0.00  0.00    +0.000 A 
ATOM      6  C   UNL     1     113.628 129.770 136.689  0.00  0.00    +0.000 A 
ATOM      7  C   UNL     1     113.236 128.514 137.306  0.00  0.00    +0.000 A 
ATOM      8  C   UNL     1     113.169 127.692 137.290  0.00  0.00    +0.000 A 
ATOM      9  C   UNL     1     114.161 128.894 135.324  0.00  0.00    +0.000 A 
ATOM     10  C   UNL     1     114.235 129.750 135.334  0.00  0.00    +0.000 A 
ATOM     11  C   UNL     1     113.966 130.191 136.021  0.00  0.00    +0.000 A 
ENDROOT
BRANCH   5  12
ATOM     12  C   UNL     1     113.359 126.447 136.615  0.00  0.00    +0.000 A 
ATOM     13  C   UNL     1     112.641 126.095 136.413  0.00  0.00    +0.000 A 
ATOM     14  C   UNL     1     114.010 125.976 136.803  0.00  0.00    +0.000 A 
ATOM     15  C   UNL     1     112.573 125.274 136.398  0.00  0.00    +0.000 A 
ATOM     16  C   UNL     1     113.943 125.154 136.788  0.00  0.00    +0.000 A 
ATOM     17  C   UNL     1     113.224 124.803 136.585  0.00  0.00    +0.000 A 
BRANCH  17  18
ATOM     18  O   UNL     1     113.156 123.980 136.570  0.00  0.00    +0.000 OA
ATOM     19  C   UNL     1     112.484 123.617 136.880  0.00  0.00    +0.000 C 
ENDBRANCH  17  18
ENDBRANCH   5  12
BRANCH   6  20
ATOM     20  O   UNL     1     113.367 130.184 137.353  0.00  0.00    +0.000 OA
ATOM     21  C   UNL     1     113.021 130.928 137.265  0.00  0.00    +0.000 C 
ENDBRANCH   6  20
BRANCH  10  22
ATOM     22  O   UNL     1     114.561 130.147 134.688  0.00  0.00    +0.000 OA
ATOM     23  C   UNL     1     115.379 130.210 134.613  0.00  0.00    +0.000 C 
ENDBRANCH  10  22
TORSDOF 4
ENDMDL
MODEL 8
REMARK VINA RESULT:      -7.1      8.699      9.964
REMARK  Name = 79730
REMARK  4 active torsions:
REMARK  status: ('A' for Active; 'I' for Inactive)
REMARK    1  A    between atoms: O_2  and  C_9
REMARK    2  A    between atoms: O_3  and  C_14
REMARK    3  A    between atoms: O_5  and  C_20
REMARK    4  A    between atoms: C_8  and  C_11
REMARK                            x       y       z     vdW  Elec       q    Type
REMARK                         _______ _______ _______ _____ _____    ______ ____
ROOT
ATOM      1  O   UNL     1     102.901 131.943 141.210  0.00  0.00    +0.000 OA
ATOM      2  O   UNL     1     100.750 132.116 142.422  0.00  0.00    +0.000 OA
ATOM      3  C   UNL     1     101.853 132.741 141.762  0.00  0.00    +0.000 A 
ATOM      4  C   UNL     1     102.570 132.683 141.358  0.00  0.00    +0.000 A 
ATOM      5  C   UNL     1     102.515 131.259 141.464  0.00  0.00    +0.000 A 
ATOM      6  C   UNL     1     101.499 133.507 141.924  0.00  0.00    +0.000 A 
ATOM      7  C   UNL     1     101.467 132.059 142.018  0.00  0.00    +0.000 A 
ATOM      8  C   UNL     1     101.798 131.317 141.869  0.00  0.00    +0.000 A 
ATOM      9  C   UNL     1     102.982 133.388 141.088  0.00  0.00    +0.000 A 
ATOM     10  C   UNL     1     102.642 134.162 141.240  0.00  0.00    +0.000 A 
ATOM     11  C   UNL     1     101.896 134.222 141.661  0.00  0.00    +0.000 A 
ENDROOT
BRANCH   5  12
ATOM     12  C   UNL     1     102.846 130.519 141.316  0.00  0.00    +0.000 A 
ATOM     13  C   UNL     1     102.583 130.070 140.675  0.00  0.00    +0.000 A 
ATOM     14  C   UNL     1     103.440 130.226 141.807  0.00  0.00    +0.000 A 
ATOM     15  C   UNL     1     102.914 129.330 140.526  0.00  0.00    +0.000 A 
ATOM     16  C   UNL     1     103.772 129.485 141.659  0.00  0.00    +0.000 A 
ATOM     17  C   UNL     1     103.508 129.037 141.018  0.00  0.00    +0.000 A 
BRANCH  17  18
ATOM     18  O   UNL     1     103.839 128.296 140.869  0.00  0.00    +0.000 OA
ATOM     19  C   UNL     1     104.435 128.005 141.360  0.00  0.00    +0.000 C 
ENDBRANCH  17  18
ENDBRANCH   5  12
BRANCH   6  20
ATOM     20  O   UNL     1     100.781 133.555 142.329  0.00  0.00    +0.000 OA
ATOM     21  C   UNL     1     100.710 134.052 142.984  0.00  0.00    +0.000 C 
ENDBRANCH   6  20
BRANCH  10  22
ATOM     22  O   UNL     1     103.030 134.843 140.984  0.00  0.00    +0.000 OA
ATOM     23  C   UNL     1     102.961 135.088 140.199  0.00  0.00    +0.000 C 
ENDBRANCH  10  22
TORSDOF 4
ENDMDL
MODEL 9
REMARK VINA RESULT:      -7.1     12.337     13.225
REMARK  Name = 79730
REMARK  4 active torsions:
REMARK  status: ('A' for Active; 'I' for Inactive)
REMARK    1  A    between atoms: O_2  and  C_9
REMARK    2  A    between atoms: O_3  and  C_14
REMARK    3  A    between atoms: O_5  and  C_20
REMARK    4  A    between atoms: C_8  and  C_11
REMARK                            x       y       z     vdW  Elec       q    Type
REMARK                         _______ _______ _______ _____ _____    ______ ____
ROOT
ATOM      1  O   UNL     1     112.324 126.689 136.170  0.00  0.00    +0.000 OA
ATOM      2  O   UNL     1     110.798 124.755 135.924  0.00  0.00    +0.000 OA
ATOM      3  C   UNL     1     112.064 125.291 136.313  0.00  0.00    +0.000 A 
ATOM      4  C   UNL     1     112.573 125.936 136.395  0.00  0.00    +0.000 A 
ATOM      5  C   UNL     1     111.566 126.798 135.863  0.00  0.00    +0.000 A 
ATOM      6  C   UNL     1     112.313 124.501 136.544  0.00  0.00    +0.000 A 
ATOM      7  C   UNL     1     111.306 125.400 136.006  0.00  0.00    +0.000 A 
ATOM      8  C   UNL     1     111.057 126.154 135.781  0.00  0.00    +0.000 A 
ATOM      9  C   UNL     1     113.365 125.835 136.713  0.00  0.00    +0.000 A 
ATOM     10  C   UNL     1     113.630 125.052 136.950  0.00  0.00    +0.000 A 
ATOM     11  C   UNL     1     113.101 124.382 136.864  0.00  0.00    +0.000 A 
ENDROOT
BRANCH   5  12
ATOM     12  C   UNL     1     111.316 127.551 135.638  0.00  0.00    +0.000 A 
ATOM     13  C   UNL     1     111.129 128.114 136.212  0.00  0.00    +0.000 A 
ATOM     14  C   UNL     1     111.254 127.743 134.838  0.00  0.00    +0.000 A 
ATOM     15  C   UNL     1     110.880 128.866 135.987  0.00  0.00    +0.000 A 
ATOM     16  C   UNL     1     111.004 128.497 134.612  0.00  0.00    +0.000 A 
ATOM     17  C   UNL     1     110.817 129.058 135.187  0.00  0.00    +0.000 A 
BRANCH  17  18
ATOM     18  O   UNL     1     110.568 129.812 134.961  0.00  0.00    +0.000 OA
ATOM     19  C   UNL     1     109.770 129.952 134.807  0.00  0.00    +0.000 C 
ENDBRANCH  17  18
ENDBRANCH   5  12
BRANCH   6  20
ATOM     20  O   UNL     1     111.797 123.863 136.459  0.00  0.00    +0.000 OA
ATOM     21  C   UNL     1     111.886 123.195 136.935  0.00  0.00    +0.000 C 
ENDBRANCH   6  20
BRANCH  10  22
ATOM     22  O   UNL     1     114.389 124.946 137.256  0.00  0.00    +0.000 OA
ATOM     23  C   UNL     1     114.621 125.354 137.934  0.00  0.00    +0.000 C 
ENDBRANCH  10  22
TORSDOF 4
ENDMDL
MODEL 10
REMARK VINA RESULT:      -7.1      7.205      8.232
REMARK  Name = 79730
REMARK  4 active torsions:
REMARK  status: ('A' for Active; 'I' for Inactive)
REMARK    1  A    between atoms: O_2  and  C_9
REMARK    2  A    between atoms: O_3  and  C_14
REMARK    3  A    between atoms: O_5  and  C_20
REMARK    4  A    between atoms: C_8  and  C_11
REMARK                            x       y       z     vdW  Elec       q    Type
REMARK                         _______ _______ _______ _____ _____    ______ ____
ROOT
ATOM      1  O   UNL     1     103.096 130.610 142.606  0.00  0.00    +0.000 OA
ATOM      2  O   UNL     1     103.311 129.129 140.634  0.00  0.00    +0.000 OA
ATOM      3  C   UNL     1     103.659 129.455 141.982  0.00  0.00    +0.000 A 
ATOM      4  C   UNL     1     103.587 129.948 142.639  0.00  0.00    +0.000 A 
ATOM      5  C   UNL     1     102.676 130.779 141.917  0.00  0.00    +0.000 A 
ATOM      6  C   UNL     1     104.168 128.762 142.004  0.00  0.00    +0.000 A 
ATOM      7  C   UNL     1     103.240 129.623 141.292  0.00  0.00    +0.000 A 
ATOM      8  C   UNL     1     102.748 130.285 141.259  0.00  0.00    +0.000 A 
ATOM      9  C   UNL     1     104.020 129.783 143.364  0.00  0.00    +0.000 A 
ATOM     10  C   UNL     1     104.533 129.095 143.404  0.00  0.00    +0.000 A 
ATOM     11  C   UNL     1     104.607 128.582 142.719  0.00  0.00    +0.000 A 
ENDROOT
BRANCH   5  12
ATOM     12  C   UNL     1     102.185 131.440 141.884  0.00  0.00    +0.000 A 
ATOM     13  C   UNL     1     102.483 132.164 141.622  0.00  0.00    +0.000 A 
ATOM     14  C   UNL     1     101.395 131.379 142.113  0.00  0.00    +0.000 A 
ATOM     15  C   UNL     1     101.992 132.825 141.589  0.00  0.00    +0.000 A 
ATOM     16  C   UNL     1     100.903 132.041 142.080  0.00  0.00    +0.000 A 
ATOM     17  C   UNL     1     101.202 132.764 141.818  0.00  0.00    +0.000 A 
BRANCH  17  18
ATOM     18  O   UNL     1     100.710 133.426 141.785  0.00  0.00    +0.000 OA
ATOM     19  C   UNL     1     100.711 133.970 142.405  0.00  0.00    +0.000 C 
ENDBRANCH  17  18
ENDBRANCH   5  12
BRANCH   6  20
ATOM     20  O   UNL     1     104.233 128.275 141.341  0.00  0.00    +0.000 OA
ATOM     21  C   UNL     1     104.757 127.637 141.349  0.00  0.00    +0.000 C 
ENDBRANCH   6  20
BRANCH  10  22
ATOM     22  O   UNL     1     104.951 128.929 144.095  0.00  0.00    +0.000 OA
ATOM     23  C   UNL     1     105.575 129.416 144.327  0.00  0.00    +0.000 C 
ENDBRANCH  10  22
TORSDOF 4
ENDMDL
