MODEL 1
REMARK VINA RESULT:      -9.1      0.000      0.000
REMARK  Name = 131834133
REMARK  6 active torsions:
REMARK  status: ('A' for Active; 'I' for Inactive)
REMARK    1  A    between atoms: S_1  and  C_26
REMARK    2  A    between atoms: O_3  and  C_18
REMARK    3  A    between atoms: O_3  and  C_25
REMARK    4  A    between atoms: O_12  and  C_33
REMARK    5  A    between atoms: C_19  and  C_29
REMARK    6  A    between atoms: C_21  and  C_27
REMARK                            x       y       z     vdW  Elec       q    Type
REMARK                         _______ _______ _______ _____ _____    ______ ____
ROOT
ATOM      1  O   UNL     1     113.202 128.799 139.406  0.00  0.00    +0.000 OA
ATOM      2  O   UNL     1     113.110 130.796 138.530  0.00  0.00    +0.000 OA
ATOM      3  C   UNL     1     112.991 129.988 138.641  0.00  0.00    +0.000 C 
ATOM      4  C   UNL     1     113.322 129.608 139.294  0.00  0.00    +0.000 C 
ATOM      5  C   UNL     1     112.540 129.559 138.099  0.00  0.00    +0.000 C 
ATOM      6  C   UNL     1     112.420 128.750 138.211  0.00  0.00    +0.000 A 
ATOM      7  C   UNL     1     112.751 128.370 138.864  0.00  0.00    +0.000 A 
ATOM      8  C   UNL     1     112.164 127.077 138.430  0.00  0.00    +0.000 A 
ATOM      9  C   UNL     1     111.948 128.315 137.640  0.00  0.00    +0.000 A 
ATOM     10  C   UNL     1     112.633 127.529 138.991  0.00  0.00    +0.000 A 
ATOM     11  C   UNL     1     111.820 127.473 137.750  0.00  0.00    +0.000 A 
ENDROOT
BRANCH   4  13
ATOM     12  O   UNL     1     115.125 131.323 141.462  0.00  0.00    +0.000 OA
ATOM     13  C   UNL     1     113.773 130.037 139.836  0.00  0.00    +0.000 A 
ATOM     14  C   UNL     1     113.427 130.312 140.533  0.00  0.00    +0.000 A 
ATOM     15  C   UNL     1     114.568 130.190 139.681  0.00  0.00    +0.000 A 
ATOM     16  C   UNL     1     113.878 130.741 141.075  0.00  0.00    +0.000 A 
ATOM     17  C   UNL     1     115.018 130.619 140.223  0.00  0.00    +0.000 A 
ATOM     18  C   UNL     1     114.674 130.894 140.920  0.00  0.00    +0.000 A 
BRANCH  16  19
ATOM     19  O   UNL     1     113.533 131.017 141.772  0.00  0.00    +0.000 OA
ATOM     20  C   UNL     1     112.862 130.645 142.076  0.00  0.00    +0.000 C 
ENDBRANCH  16  19
ENDBRANCH   4  13
BRANCH   9  21
ATOM     21  S   UNL     1     111.621 128.704 136.990  0.00  0.00    +0.000 S 
ATOM     22  O   UNL     1     110.869 129.039 137.043  0.00  0.00    +0.000 OA
ATOM     23  O   UNL     1     112.047 128.757 136.284  0.00  0.00    +0.000 OA
ENDBRANCH   9  21
BRANCH   8  24
ATOM     24  O   UNL     1     112.046 126.268 138.544  0.00  0.00    +0.000 OA
BRANCH  24  32
ATOM     25  O   UNL     1     113.234 125.808 137.897  0.00  0.00    +0.000 OA
ATOM     26  O   UNL     1     111.971 123.915 136.924  0.00  0.00    +0.000 OA
ATOM     27  O   UNL     1     111.204 125.006 137.896  0.00  0.00    +0.000 OA
ATOM     28  O   UNL     1     113.579 124.087 136.601  0.00  0.00    +0.000 OA
ATOM     29  C   UNL     1     112.392 124.546 137.248  0.00  0.00    +0.000 C 
ATOM     30  C   UNL     1     112.008 125.092 137.735  0.00  0.00    +0.000 C 
ATOM     31  C   UNL     1     113.196 124.632 137.087  0.00  0.00    +0.000 C 
ATOM     32  C   UNL     1     112.429 125.723 138.059  0.00  0.00    +0.000 C 
ATOM     33  C   UNL     1     113.617 125.263 137.411  0.00  0.00    +0.000 C 
BRANCH  33  36
ATOM     34  O   UNL     1     114.666 125.754 136.575  0.00  0.00    +0.000 OA
ATOM     35  O   UNL     1     114.981 125.028 137.764  0.00  0.00    +0.000 OA
ATOM     36  C   UNL     1     114.421 125.348 137.250  0.00  0.00    +0.000 C 
ENDBRANCH  33  36
ENDBRANCH  24  32
ENDBRANCH   8  24
TORSDOF 6
ENDMDL
MODEL 2
REMARK VINA RESULT:      -9.1      8.408      9.644
REMARK  Name = 131834133
REMARK  6 active torsions:
REMARK  status: ('A' for Active; 'I' for Inactive)
REMARK    1  A    between atoms: S_1  and  C_26
REMARK    2  A    between atoms: O_3  and  C_18
REMARK    3  A    between atoms: O_3  and  C_25
REMARK    4  A    between atoms: O_12  and  C_33
REMARK    5  A    between atoms: C_19  and  C_29
REMARK    6  A    between atoms: C_21  and  C_27
REMARK                            x       y       z     vdW  Elec       q    Type
REMARK                         _______ _______ _______ _____ _____    ______ ____
ROOT
ATOM      1  O   UNL     1     104.949 127.750 142.374  0.00  0.00    +0.000 OA
ATOM      2  O   UNL     1     105.831 129.638 141.725  0.00  0.00    +0.000 OA
ATOM      3  C   UNL     1     105.762 128.855 141.976  0.00  0.00    +0.000 C 
ATOM      4  C   UNL     1     105.017 128.533 142.123  0.00  0.00    +0.000 C 
ATOM      5  C   UNL     1     106.439 128.395 142.081  0.00  0.00    +0.000 C 
ATOM      6  C   UNL     1     106.370 127.612 142.332  0.00  0.00    +0.000 A 
ATOM      7  C   UNL     1     105.625 127.290 142.479  0.00  0.00    +0.000 A 
ATOM      8  C   UNL     1     106.243 125.991 142.851  0.00  0.00    +0.000 A 
ATOM      9  C   UNL     1     107.083 127.143 142.437  0.00  0.00    +0.000 A 
ATOM     10  C   UNL     1     105.541 126.476 142.741  0.00  0.00    +0.000 A 
ATOM     11  C   UNL     1     107.018 126.328 142.698  0.00  0.00    +0.000 A 
ENDROOT
BRANCH   4  13
ATOM     12  O   UNL     1     102.311 130.374 141.705  0.00  0.00    +0.000 OA
ATOM     13  C   UNL     1     104.340 128.993 142.019  0.00  0.00    +0.000 A 
ATOM     14  C   UNL     1     103.959 129.006 141.287  0.00  0.00    +0.000 A 
ATOM     15  C   UNL     1     104.045 129.441 142.646  0.00  0.00    +0.000 A 
ATOM     16  C   UNL     1     103.282 129.466 141.183  0.00  0.00    +0.000 A 
ATOM     17  C   UNL     1     103.369 129.901 142.541  0.00  0.00    +0.000 A 
ATOM     18  C   UNL     1     102.987 129.914 141.810  0.00  0.00    +0.000 A 
BRANCH  16  19
ATOM     19  O   UNL     1     102.901 129.479 140.451  0.00  0.00    +0.000 OA
ATOM     20  C   UNL     1     102.814 128.781 140.019  0.00  0.00    +0.000 C 
ENDBRANCH  16  19
ENDBRANCH   4  13
BRANCH   9  21
ATOM     21  S   UNL     1     107.823 127.475 142.287  0.00  0.00    +0.000 S 
ATOM     22  O   UNL     1     108.142 127.448 141.527  0.00  0.00    +0.000 OA
ATOM     23  O   UNL     1     108.245 127.833 142.899  0.00  0.00    +0.000 OA
ENDBRANCH   9  21
BRANCH   8  24
ATOM     24  O   UNL     1     106.171 125.208 143.102  0.00  0.00    +0.000 OA
BRANCH  24  32
ATOM     25  O   UNL     1     106.355 125.452 144.498  0.00  0.00    +0.000 OA
ATOM     26  O   UNL     1     104.656 123.730 145.022  0.00  0.00    +0.000 OA
ATOM     27  O   UNL     1     105.039 124.060 143.452  0.00  0.00    +0.000 OA
ATOM     28  O   UNL     1     105.406 124.547 146.243  0.00  0.00    +0.000 OA
ATOM     29  C   UNL     1     105.222 124.304 144.848  0.00  0.00    +0.000 C 
ATOM     30  C   UNL     1     105.414 124.470 144.062  0.00  0.00    +0.000 C 
ATOM     31  C   UNL     1     105.598 124.713 145.458  0.00  0.00    +0.000 C 
ATOM     32  C   UNL     1     105.980 125.043 143.887  0.00  0.00    +0.000 C 
ATOM     33  C   UNL     1     106.164 125.287 145.283  0.00  0.00    +0.000 C 
BRANCH  33  36
ATOM     34  O   UNL     1     107.245 125.409 146.210  0.00  0.00    +0.000 OA
ATOM     35  O   UNL     1     106.207 126.391 146.189  0.00  0.00    +0.000 OA
ATOM     36  C   UNL     1     106.538 125.695 145.894  0.00  0.00    +0.000 C 
ENDBRANCH  33  36
ENDBRANCH  24  32
ENDBRANCH   8  24
TORSDOF 6
ENDMDL
MODEL 3
REMARK VINA RESULT:      -9.0      3.104      5.829
REMARK  Name = 131834133
REMARK  6 active torsions:
REMARK  status: ('A' for Active; 'I' for Inactive)
REMARK    1  A    between atoms: S_1  and  C_26
REMARK    2  A    between atoms: O_3  and  C_18
REMARK    3  A    between atoms: O_3  and  C_25
REMARK    4  A    between atoms: O_12  and  C_33
REMARK    5  A    between atoms: C_19  and  C_29
REMARK    6  A    between atoms: C_21  and  C_27
REMARK                            x       y       z     vdW  Elec       q    Type
REMARK                         _______ _______ _______ _____ _____    ______ ____
ROOT
ATOM      1  O   UNL     1     111.753 127.115 136.103  0.00  0.00    +0.000 OA
ATOM      2  O   UNL     1     113.714 126.454 136.797  0.00  0.00    +0.000 OA
ATOM      3  C   UNL     1     113.118 126.929 136.480  0.00  0.00    +0.000 C 
ATOM      4  C   UNL     1     112.348 126.640 136.420  0.00  0.00    +0.000 C 
ATOM      5  C   UNL     1     113.293 127.693 136.223  0.00  0.00    +0.000 C 
ATOM      6  C   UNL     1     112.698 128.168 135.906  0.00  0.00    +0.000 A 
ATOM      7  C   UNL     1     111.928 127.879 135.846  0.00  0.00    +0.000 A 
ATOM      8  C   UNL     1     111.475 129.161 135.247  0.00  0.00    +0.000 A 
ATOM      9  C   UNL     1     112.893 128.962 135.641  0.00  0.00    +0.000 A 
ATOM     10  C   UNL     1     111.299 128.364 135.517  0.00  0.00    +0.000 A 
ATOM     11  C   UNL     1     112.277 129.461 135.310  0.00  0.00    +0.000 A 
ENDROOT
BRANCH   4  13
ATOM     12  O   UNL     1     111.649 123.584 137.450  0.00  0.00    +0.000 OA
ATOM     13  C   UNL     1     112.173 125.876 136.677  0.00  0.00    +0.000 A 
ATOM     14  C   UNL     1     111.806 125.760 137.408  0.00  0.00    +0.000 A 
ATOM     15  C   UNL     1     112.365 125.227 136.205  0.00  0.00    +0.000 A 
ATOM     16  C   UNL     1     111.631 124.996 137.665  0.00  0.00    +0.000 A 
ATOM     17  C   UNL     1     112.190 124.464 136.462  0.00  0.00    +0.000 A 
ATOM     18  C   UNL     1     111.823 124.348 137.192  0.00  0.00    +0.000 A 
BRANCH  16  19
ATOM     19  O   UNL     1     111.265 124.880 138.395  0.00  0.00    +0.000 OA
ATOM     20  C   UNL     1     110.880 125.508 138.767  0.00  0.00    +0.000 C 
ENDBRANCH  16  19
ENDBRANCH   4  13
BRANCH   9  21
ATOM     21  S   UNL     1     113.666 129.242 135.706  0.00  0.00    +0.000 S 
ATOM     22  O   UNL     1     114.201 129.125 135.089  0.00  0.00    +0.000 OA
ATOM     23  O   UNL     1     113.905 129.641 136.388  0.00  0.00    +0.000 OA
ENDBRANCH   9  21
BRANCH   8  24
ATOM     24  O   UNL     1     110.877 129.634 134.931  0.00  0.00    +0.000 OA
BRANCH  24  32
ATOM     25  O   UNL     1     110.583 130.419 136.087  0.00  0.00    +0.000 OA
ATOM     26  O   UNL     1     108.163 130.212 135.611  0.00  0.00    +0.000 OA
ATOM     27  O   UNL     1     109.264 129.496 134.613  0.00  0.00    +0.000 OA
ATOM     28  O   UNL     1     108.675 131.066 136.926  0.00  0.00    +0.000 OA
ATOM     29  C   UNL     1     108.969 130.281 135.770  0.00  0.00    +0.000 C 
ATOM     30  C   UNL     1     109.521 129.923 135.270  0.00  0.00    +0.000 C 
ATOM     31  C   UNL     1     109.226 130.708 136.427  0.00  0.00    +0.000 C 
ATOM     32  C   UNL     1     110.327 129.992 135.429  0.00  0.00    +0.000 C 
ATOM     33  C   UNL     1     110.032 130.777 136.586  0.00  0.00    +0.000 C 
BRANCH  33  36
ATOM     34  O   UNL     1     110.342 130.835 137.980  0.00  0.00    +0.000 OA
ATOM     35  O   UNL     1     110.489 132.000 137.166  0.00  0.00    +0.000 OA
ATOM     36  C   UNL     1     110.288 131.203 137.244  0.00  0.00    +0.000 C 
ENDBRANCH  33  36
ENDBRANCH  24  32
ENDBRANCH   8  24
TORSDOF 6
ENDMDL
MODEL 4
REMARK VINA RESULT:      -8.9      1.552      2.604
REMARK  Name = 131834133
REMARK  6 active torsions:
REMARK  status: ('A' for Active; 'I' for Inactive)
REMARK    1  A    between atoms: S_1  and  C_26
REMARK    2  A    between atoms: O_3  and  C_18
REMARK    3  A    between atoms: O_3  and  C_25
REMARK    4  A    between atoms: O_12  and  C_33
REMARK    5  A    between atoms: C_19  and  C_29
REMARK    6  A    between atoms: C_21  and  C_27
REMARK                            x       y       z     vdW  Elec       q    Type
REMARK                         _______ _______ _______ _____ _____    ______ ____
ROOT
ATOM      1  O   UNL     1     112.570 128.583 138.367  0.00  0.00    +0.000 OA
ATOM      2  O   UNL     1     113.696 130.043 139.535  0.00  0.00    +0.000 OA
ATOM      3  C   UNL     1     113.366 129.327 139.291  0.00  0.00    +0.000 C 
ATOM      4  C   UNL     1     112.901 129.298 138.610  0.00  0.00    +0.000 C 
ATOM      5  C   UNL     1     113.500 128.641 139.729  0.00  0.00    +0.000 C 
ATOM      6  C   UNL     1     113.170 127.925 139.485  0.00  0.00    +0.000 A 
ATOM      7  C   UNL     1     112.705 127.896 138.804  0.00  0.00    +0.000 A 
ATOM      8  C   UNL     1     112.491 126.438 138.992  0.00  0.00    +0.000 A 
ATOM      9  C   UNL     1     113.317 127.218 139.949  0.00  0.00    +0.000 A 
ATOM     10  C   UNL     1     112.355 127.157 138.541  0.00  0.00    +0.000 A 
ATOM     11  C   UNL     1     112.976 126.469 139.701  0.00  0.00    +0.000 A 
ENDROOT
BRANCH   4  13
ATOM     12  O   UNL     1     112.363 132.044 136.861  0.00  0.00    +0.000 OA
ATOM     13  C   UNL     1     112.766 129.985 138.173  0.00  0.00    +0.000 A 
ATOM     14  C   UNL     1     112.112 130.459 138.341  0.00  0.00    +0.000 A 
ATOM     15  C   UNL     1     113.286 130.197 137.568  0.00  0.00    +0.000 A 
ATOM     16  C   UNL     1     111.978 131.145 137.904  0.00  0.00    +0.000 A 
ATOM     17  C   UNL     1     113.151 130.883 137.132  0.00  0.00    +0.000 A 
ATOM     18  C   UNL     1     112.497 131.358 137.299  0.00  0.00    +0.000 A 
BRANCH  16  19
ATOM     19  O   UNL     1     111.324 131.620 138.071  0.00  0.00    +0.000 OA
ATOM     20  C   UNL     1     110.603 131.273 138.274  0.00  0.00    +0.000 C 
ENDBRANCH  16  19
ENDBRANCH   4  13
BRANCH   9  21
ATOM     21  S   UNL     1     113.783 127.257 140.629  0.00  0.00    +0.000 S 
ATOM     22  O   UNL     1     114.597 127.128 140.580  0.00  0.00    +0.000 OA
ATOM     23  O   UNL     1     113.435 127.425 141.359  0.00  0.00    +0.000 OA
ENDBRANCH   9  21
BRANCH   8  24
ATOM     24  O   UNL     1     112.159 125.724 138.747  0.00  0.00    +0.000 OA
BRANCH  24  32
ATOM     25  O   UNL     1     113.283 125.334 137.955  0.00  0.00    +0.000 OA
ATOM     26  O   UNL     1     111.773 124.131 136.405  0.00  0.00    +0.000 OA
ATOM     27  O   UNL     1     111.153 124.922 137.714  0.00  0.00    +0.000 OA
ATOM     28  O   UNL     1     113.399 124.142 136.130  0.00  0.00    +0.000 OA
ATOM     29  C   UNL     1     112.277 124.532 136.922  0.00  0.00    +0.000 C 
ATOM     30  C   UNL     1     111.966 124.928 137.577  0.00  0.00    +0.000 C 
ATOM     31  C   UNL     1     113.090 124.538 136.784  0.00  0.00    +0.000 C 
ATOM     32  C   UNL     1     112.470 125.329 138.093  0.00  0.00    +0.000 C 
ATOM     33  C   UNL     1     113.593 124.939 137.301  0.00  0.00    +0.000 C 
BRANCH  33  36
ATOM     34  O   UNL     1     114.895 124.406 137.553  0.00  0.00    +0.000 OA
ATOM     35  O   UNL     1     114.731 125.488 136.634  0.00  0.00    +0.000 OA
ATOM     36  C   UNL     1     114.406 124.944 137.163  0.00  0.00    +0.000 C 
ENDBRANCH  33  36
ENDBRANCH  24  32
ENDBRANCH   8  24
TORSDOF 6
ENDMDL
MODEL 5
REMARK VINA RESULT:      -8.9      1.648      5.527
REMARK  Name = 131834133
REMARK  6 active torsions:
REMARK  status: ('A' for Active; 'I' for Inactive)
REMARK    1  A    between atoms: S_1  and  C_26
REMARK    2  A    between atoms: O_3  and  C_18
REMARK    3  A    between atoms: O_3  and  C_25
REMARK    4  A    between atoms: O_12  and  C_33
REMARK    5  A    between atoms: C_19  and  C_29
REMARK    6  A    between atoms: C_21  and  C_27
REMARK                            x       y       z     vdW  Elec       q    Type
REMARK                         _______ _______ _______ _____ _____    ______ ____
ROOT
ATOM      1  O   UNL     1     111.675 126.918 137.004  0.00  0.00    +0.000 OA
ATOM      2  O   UNL     1     111.218 125.959 135.097  0.00  0.00    +0.000 OA
ATOM      3  C   UNL     1     111.279 126.534 135.686  0.00  0.00    +0.000 C 
ATOM      4  C   UNL     1     111.614 126.343 136.415  0.00  0.00    +0.000 C 
ATOM      5  C   UNL     1     111.006 127.300 135.545  0.00  0.00    +0.000 C 
ATOM      6  C   UNL     1     111.067 127.874 136.133  0.00  0.00    +0.000 A 
ATOM      7  C   UNL     1     111.402 127.684 136.863  0.00  0.00    +0.000 A 
ATOM      8  C   UNL     1     111.189 129.073 137.343  0.00  0.00    +0.000 A 
ATOM      9  C   UNL     1     110.779 128.668 135.974  0.00  0.00    +0.000 A 
ATOM     10  C   UNL     1     111.472 128.273 137.484  0.00  0.00    +0.000 A 
ATOM     11  C   UNL     1     110.840 129.271 136.583  0.00  0.00    +0.000 A 
ENDROOT
BRANCH   4  13
ATOM     12  O   UNL     1     112.707 123.281 136.978  0.00  0.00    +0.000 OA
ATOM     13  C   UNL     1     111.887 125.577 136.556  0.00  0.00    +0.000 A 
ATOM     14  C   UNL     1     112.682 125.394 136.432  0.00  0.00    +0.000 A 
ATOM     15  C   UNL     1     111.365 124.995 136.820  0.00  0.00    +0.000 A 
ATOM     16  C   UNL     1     112.956 124.629 136.573  0.00  0.00    +0.000 A 
ATOM     17  C   UNL     1     111.639 124.230 136.961  0.00  0.00    +0.000 A 
ATOM     18  C   UNL     1     112.434 124.047 136.837  0.00  0.00    +0.000 A 
BRANCH  16  19
ATOM     19  O   UNL     1     113.750 124.445 136.449  0.00  0.00    +0.000 OA
ATOM     20  C   UNL     1     114.330 125.020 136.567  0.00  0.00    +0.000 C 
ENDBRANCH  16  19
ENDBRANCH   4  13
BRANCH   9  21
ATOM     21  S   UNL     1     110.446 128.849 135.241  0.00  0.00    +0.000 S 
ATOM     22  O   UNL     1     109.637 128.744 135.117  0.00  0.00    +0.000 OA
ATOM     23  O   UNL     1     110.923 129.136 134.632  0.00  0.00    +0.000 OA
ENDBRANCH   9  21
BRANCH   8  24
ATOM     24  O   UNL     1     111.252 129.646 137.933  0.00  0.00    +0.000 OA
BRANCH  24  32
ATOM     25  O   UNL     1     112.494 130.207 137.504  0.00  0.00    +0.000 OA
ATOM     26  O   UNL     1     113.178 130.498 139.865  0.00  0.00    +0.000 OA
ATOM     27  O   UNL     1     111.708 129.840 139.507  0.00  0.00    +0.000 OA
ATOM     28  O   UNL     1     114.191 130.962 138.649  0.00  0.00    +0.000 OA
ATOM     29  C   UNL     1     112.950 130.401 139.078  0.00  0.00    +0.000 C 
ATOM     30  C   UNL     1     112.214 130.072 138.899  0.00  0.00    +0.000 C 
ATOM     31  C   UNL     1     113.456 130.633 138.470  0.00  0.00    +0.000 C 
ATOM     32  C   UNL     1     111.986 129.975 138.112  0.00  0.00    +0.000 C 
ATOM     33  C   UNL     1     113.228 130.536 137.683  0.00  0.00    +0.000 C 
BRANCH  33  36
ATOM     34  O   UNL     1     113.664 131.519 136.742  0.00  0.00    +0.000 OA
ATOM     35  O   UNL     1     114.314 130.248 136.800  0.00  0.00    +0.000 OA
ATOM     36  C   UNL     1     113.735 130.768 137.076  0.00  0.00    +0.000 C 
ENDBRANCH  33  36
ENDBRANCH  24  32
ENDBRANCH   8  24
TORSDOF 6
ENDMDL
MODEL 6
REMARK VINA RESULT:      -8.8      8.488      9.689
REMARK  Name = 131834133
REMARK  6 active torsions:
REMARK  status: ('A' for Active; 'I' for Inactive)
REMARK    1  A    between atoms: S_1  and  C_26
REMARK    2  A    between atoms: O_3  and  C_18
REMARK    3  A    between atoms: O_3  and  C_25
REMARK    4  A    between atoms: O_12  and  C_33
REMARK    5  A    between atoms: C_19  and  C_29
REMARK    6  A    between atoms: C_21  and  C_27
REMARK                            x       y       z     vdW  Elec       q    Type
REMARK                         _______ _______ _______ _____ _____    ______ ____
ROOT
ATOM      1  O   UNL     1     106.517 125.677 145.933  0.00  0.00    +0.000 OA
ATOM      2  O   UNL     1     106.903 127.228 147.419  0.00  0.00    +0.000 OA
ATOM      3  C   UNL     1     106.678 126.862 146.715  0.00  0.00    +0.000 C 
ATOM      4  C   UNL     1     106.742 126.044 146.637  0.00  0.00    +0.000 C 
ATOM      5  C   UNL     1     106.388 127.315 146.089  0.00  0.00    +0.000 C 
ATOM      6  C   UNL     1     106.163 126.949 145.384  0.00  0.00    +0.000 A 
ATOM      7  C   UNL     1     106.228 126.130 145.306  0.00  0.00    +0.000 A 
ATOM      8  C   UNL     1     105.694 126.203 143.922  0.00  0.00    +0.000 A 
ATOM      9  C   UNL     1     105.864 127.431 144.740  0.00  0.00    +0.000 A 
ATOM     10  C   UNL     1     105.996 125.737 144.578  0.00  0.00    +0.000 A 
ATOM     11  C   UNL     1     105.627 127.056 144.004  0.00  0.00    +0.000 A 
ENDROOT
BRANCH   4  13
ATOM     12  O   UNL     1     107.899 124.233 149.141  0.00  0.00    +0.000 OA
ATOM     13  C   UNL     1     107.032 125.591 147.263  0.00  0.00    +0.000 A 
ATOM     14  C   UNL     1     106.507 125.198 147.765  0.00  0.00    +0.000 A 
ATOM     15  C   UNL     1     107.845 125.531 147.387  0.00  0.00    +0.000 A 
ATOM     16  C   UNL     1     106.796 124.745 148.391  0.00  0.00    +0.000 A 
ATOM     17  C   UNL     1     108.133 125.079 148.014  0.00  0.00    +0.000 A 
ATOM     18  C   UNL     1     107.609 124.686 148.515  0.00  0.00    +0.000 A 
BRANCH  16  19
ATOM     19  O   UNL     1     106.272 124.353 148.892  0.00  0.00    +0.000 OA
ATOM     20  C   UNL     1     105.524 124.669 149.037  0.00  0.00    +0.000 C 
ENDBRANCH  16  19
ENDBRANCH   4  13
BRANCH   9  21
ATOM     21  S   UNL     1     105.803 128.250 144.828  0.00  0.00    +0.000 S 
ATOM     22  O   UNL     1     106.438 128.735 144.623  0.00  0.00    +0.000 OA
ATOM     23  O   UNL     1     105.106 128.582 145.120  0.00  0.00    +0.000 OA
ENDBRANCH   9  21
BRANCH   8  24
ATOM     24  O   UNL     1     105.470 125.835 143.219  0.00  0.00    +0.000 OA
BRANCH  24  32
ATOM     25  O   UNL     1     106.629 126.212 142.473  0.00  0.00    +0.000 OA
ATOM     26  O   UNL     1     106.550 124.055 141.261  0.00  0.00    +0.000 OA
ATOM     27  O   UNL     1     105.417 124.397 142.411  0.00  0.00    +0.000 OA
ATOM     28  O   UNL     1     107.734 125.151 140.919  0.00  0.00    +0.000 OA
ATOM     29  C   UNL     1     106.576 124.774 141.665  0.00  0.00    +0.000 C 
ATOM     30  C   UNL     1     106.009 124.945 142.240  0.00  0.00    +0.000 C 
ATOM     31  C   UNL     1     107.168 125.322 141.494  0.00  0.00    +0.000 C 
ATOM     32  C   UNL     1     106.036 125.664 142.644  0.00  0.00    +0.000 C 
ATOM     33  C   UNL     1     107.194 126.041 141.898  0.00  0.00    +0.000 C 
BRANCH  33  36
ATOM     34  O   UNL     1     107.667 127.157 141.141  0.00  0.00    +0.000 OA
ATOM     35  O   UNL     1     108.499 126.568 142.142  0.00  0.00    +0.000 OA
ATOM     36  C   UNL     1     107.787 126.589 141.727  0.00  0.00    +0.000 C 
ENDBRANCH  33  36
ENDBRANCH  24  32
ENDBRANCH   8  24
TORSDOF 6
ENDMDL
MODEL 7
REMARK VINA RESULT:      -8.8      2.735      3.352
REMARK  Name = 131834133
REMARK  6 active torsions:
REMARK  status: ('A' for Active; 'I' for Inactive)
REMARK    1  A    between atoms: S_1  and  C_26
REMARK    2  A    between atoms: O_3  and  C_18
REMARK    3  A    between atoms: O_3  and  C_25
REMARK    4  A    between atoms: O_12  and  C_33
REMARK    5  A    between atoms: C_19  and  C_29
REMARK    6  A    between atoms: C_21  and  C_27
REMARK                            x       y       z     vdW  Elec       q    Type
REMARK                         _______ _______ _______ _____ _____    ______ ____
ROOT
ATOM      1  O   UNL     1     111.012 129.979 136.795  0.00  0.00    +0.000 OA
ATOM      2  O   UNL     1     112.664 131.399 136.922  0.00  0.00    +0.000 OA
ATOM      3  C   UNL     1     112.236 130.715 136.753  0.00  0.00    +0.000 C 
ATOM      4  C   UNL     1     111.440 130.663 136.964  0.00  0.00    +0.000 C 
ATOM      5  C   UNL     1     112.604 130.081 136.374  0.00  0.00    +0.000 C 
ATOM      6  C   UNL     1     112.176 129.396 136.206  0.00  0.00    +0.000 A 
ATOM      7  C   UNL     1     111.380 129.345 136.416  0.00  0.00    +0.000 A 
ATOM      8  C   UNL     1     111.302 127.973 135.851  0.00  0.00    +0.000 A 
ATOM      9  C   UNL     1     112.571 128.743 135.811  0.00  0.00    +0.000 A 
ATOM     10  C   UNL     1     110.924 128.637 136.246  0.00  0.00    +0.000 A 
ATOM     11  C   UNL     1     112.131 128.027 135.632  0.00  0.00    +0.000 A 
ENDROOT
BRANCH   4  13
ATOM     12  O   UNL     1     109.967 133.198 138.480  0.00  0.00    +0.000 OA
ATOM     13  C   UNL     1     111.071 131.297 137.342  0.00  0.00    +0.000 A 
ATOM     14  C   UNL     1     110.960 131.280 138.160  0.00  0.00    +0.000 A 
ATOM     15  C   UNL     1     110.815 131.948 136.904  0.00  0.00    +0.000 A 
ATOM     16  C   UNL     1     110.591 131.913 138.539  0.00  0.00    +0.000 A 
ATOM     17  C   UNL     1     110.447 132.581 137.284  0.00  0.00    +0.000 A 
ATOM     18  C   UNL     1     110.335 132.564 138.101  0.00  0.00    +0.000 A 
BRANCH  16  19
ATOM     19  O   UNL     1     110.479 131.897 139.356  0.00  0.00    +0.000 OA
ATOM     20  C   UNL     1     110.174 131.221 139.717  0.00  0.00    +0.000 C 
ENDBRANCH  16  19
ENDBRANCH   4  13
BRANCH   9  21
ATOM     21  S   UNL     1     113.368 128.804 135.605  0.00  0.00    +0.000 S 
ATOM     22  O   UNL     1     113.583 129.121 134.874  0.00  0.00    +0.000 OA
ATOM     23  O   UNL     1     113.950 128.547 136.130  0.00  0.00    +0.000 OA
ENDBRANCH   9  21
BRANCH   8  24
ATOM     24  O   UNL     1     110.871 127.290 135.683  0.00  0.00    +0.000 OA
BRANCH  24  32
ATOM     25  O   UNL     1     111.043 126.675 136.962  0.00  0.00    +0.000 OA
ATOM     26  O   UNL     1     111.171 124.454 135.877  0.00  0.00    +0.000 OA
ATOM     27  O   UNL     1     110.957 125.809 134.960  0.00  0.00    +0.000 OA
ATOM     28  O   UNL     1     111.300 124.580 137.517  0.00  0.00    +0.000 OA
ATOM     29  C   UNL     1     111.128 125.194 136.239  0.00  0.00    +0.000 C 
ATOM     30  C   UNL     1     111.021 125.873 135.780  0.00  0.00    +0.000 C 
ATOM     31  C   UNL     1     111.193 125.258 137.059  0.00  0.00    +0.000 C 
ATOM     32  C   UNL     1     110.978 126.613 136.142  0.00  0.00    +0.000 C 
ATOM     33  C   UNL     1     111.150 125.998 137.420  0.00  0.00    +0.000 C 
BRANCH  33  36
ATOM     34  O   UNL     1     110.535 126.058 138.709  0.00  0.00    +0.000 OA
ATOM     35  O   UNL     1     111.958 126.126 138.591  0.00  0.00    +0.000 OA
ATOM     36  C   UNL     1     111.214 126.061 138.240  0.00  0.00    +0.000 C 
ENDBRANCH  33  36
ENDBRANCH  24  32
ENDBRANCH   8  24
TORSDOF 6
ENDMDL
MODEL 8
REMARK VINA RESULT:      -8.8     10.124     11.527
REMARK  Name = 131834133
REMARK  6 active torsions:
REMARK  status: ('A' for Active; 'I' for Inactive)
REMARK    1  A    between atoms: S_1  and  C_26
REMARK    2  A    between atoms: O_3  and  C_18
REMARK    3  A    between atoms: O_3  and  C_25
REMARK    4  A    between atoms: O_12  and  C_33
REMARK    5  A    between atoms: C_19  and  C_29
REMARK    6  A    between atoms: C_21  and  C_27
REMARK                            x       y       z     vdW  Elec       q    Type
REMARK                         _______ _______ _______ _____ _____    ______ ____
ROOT
ATOM      1  O   UNL     1     105.463 126.143 144.415  0.00  0.00    +0.000 OA
ATOM      2  O   UNL     1     106.671 127.958 144.519  0.00  0.00    +0.000 OA
ATOM      3  C   UNL     1     106.328 127.238 144.726  0.00  0.00    +0.000 C 
ATOM      4  C   UNL     1     105.807 126.864 144.208  0.00  0.00    +0.000 C 
ATOM      5  C   UNL     1     106.506 126.890 145.453  0.00  0.00    +0.000 C 
ATOM      6  C   UNL     1     106.163 126.169 145.661  0.00  0.00    +0.000 A 
ATOM      7  C   UNL     1     105.642 125.796 145.142  0.00  0.00    +0.000 A 
ATOM      8  C   UNL     1     105.460 124.678 146.103  0.00  0.00    +0.000 A 
ATOM      9  C   UNL     1     106.357 125.818 146.421  0.00  0.00    +0.000 A 
ATOM     10  C   UNL     1     105.278 125.045 145.347  0.00  0.00    +0.000 A 
ATOM     11  C   UNL     1     106.003 125.067 146.643  0.00  0.00    +0.000 A 
ENDROOT
BRANCH   4  13
ATOM     12  O   UNL     1     105.094 128.253 141.300  0.00  0.00    +0.000 OA
ATOM     13  C   UNL     1     105.628 127.212 143.481  0.00  0.00    +0.000 A 
ATOM     14  C   UNL     1     105.919 126.879 142.783  0.00  0.00    +0.000 A 
ATOM     15  C   UNL     1     105.160 127.890 143.452  0.00  0.00    +0.000 A 
ATOM     16  C   UNL     1     105.740 127.227 142.056  0.00  0.00    +0.000 A 
ATOM     17  C   UNL     1     104.982 128.237 142.725  0.00  0.00    +0.000 A 
ATOM     18  C   UNL     1     105.272 127.906 142.027  0.00  0.00    +0.000 A 
BRANCH  16  19
ATOM     19  O   UNL     1     106.030 126.896 141.358  0.00  0.00    +0.000 OA
ATOM     20  C   UNL     1     106.138 126.080 141.303  0.00  0.00    +0.000 C 
ENDBRANCH  16  19
ENDBRANCH   4  13
BRANCH   9  21
ATOM     21  S   UNL     1     106.880 126.199 146.933  0.00  0.00    +0.000 S 
ATOM     22  O   UNL     1     107.689 126.044 146.889  0.00  0.00    +0.000 OA
ATOM     23  O   UNL     1     106.592 126.736 147.490  0.00  0.00    +0.000 OA
ENDBRANCH   9  21
BRANCH   8  24
ATOM     24  O   UNL     1     105.115 123.957 146.309  0.00  0.00    +0.000 OA
BRANCH  24  32
ATOM     25  O   UNL     1     104.053 124.448 147.128  0.00  0.00    +0.000 OA
ATOM     26  O   UNL     1     102.504 122.814 146.100  0.00  0.00    +0.000 OA
ATOM     27  O   UNL     1     104.083 122.868 145.623  0.00  0.00    +0.000 OA
ATOM     28  O   UNL     1     101.959 123.849 147.262  0.00  0.00    +0.000 OA
ATOM     29  C   UNL     1     103.021 123.359 146.443  0.00  0.00    +0.000 C 
ATOM     30  C   UNL     1     103.811 123.386 146.204  0.00  0.00    +0.000 C 
ATOM     31  C   UNL     1     102.748 123.877 147.024  0.00  0.00    +0.000 C 
ATOM     32  C   UNL     1     104.327 123.930 146.547  0.00  0.00    +0.000 C 
ATOM     33  C   UNL     1     103.264 124.421 147.367  0.00  0.00    +0.000 C 
BRANCH  33  36
ATOM     34  O   UNL     1     103.062 124.739 148.745  0.00  0.00    +0.000 OA
ATOM     35  O   UNL     1     102.647 125.656 147.731  0.00  0.00    +0.000 OA
ATOM     36  C   UNL     1     102.991 124.939 147.947  0.00  0.00    +0.000 C 
ENDBRANCH  33  36
ENDBRANCH  24  32
ENDBRANCH   8  24
TORSDOF 6
ENDMDL
MODEL 9
REMARK VINA RESULT:      -8.8      2.665      6.096
REMARK  Name = 131834133
REMARK  6 active torsions:
REMARK  status: ('A' for Active; 'I' for Inactive)
REMARK    1  A    between atoms: S_1  and  C_26
REMARK    2  A    between atoms: O_3  and  C_18
REMARK    3  A    between atoms: O_3  and  C_25
REMARK    4  A    between atoms: O_12  and  C_33
REMARK    5  A    between atoms: C_19  and  C_29
REMARK    6  A    between atoms: C_21  and  C_27
REMARK                            x       y       z     vdW  Elec       q    Type
REMARK                         _______ _______ _______ _____ _____    ______ ____
ROOT
ATOM      1  O   UNL     1     111.883 127.816 137.048  0.00  0.00    +0.000 OA
ATOM      2  O   UNL     1     113.634 126.906 136.114  0.00  0.00    +0.000 OA
ATOM      3  C   UNL     1     113.113 127.476 136.404  0.00  0.00    +0.000 C 
ATOM      4  C   UNL     1     112.404 127.246 136.758  0.00  0.00    +0.000 C 
ATOM      5  C   UNL     1     113.300 128.277 136.340  0.00  0.00    +0.000 C 
ATOM      6  C   UNL     1     112.779 128.847 136.629  0.00  0.00    +0.000 A 
ATOM      7  C   UNL     1     112.071 128.617 136.983  0.00  0.00    +0.000 A 
ATOM      8  C   UNL     1     111.710 130.038 137.225  0.00  0.00    +0.000 A 
ATOM      9  C   UNL     1     112.986 129.678 136.557  0.00  0.00    +0.000 A 
ATOM     10  C   UNL     1     111.520 129.201 137.289  0.00  0.00    +0.000 A 
ATOM     11  C   UNL     1     112.448 130.277 136.856  0.00  0.00    +0.000 A 
ENDROOT
BRANCH   4  13
ATOM     12  O   UNL     1     111.653 124.043 137.014  0.00  0.00    +0.000 OA
ATOM     13  C   UNL     1     112.216 126.445 136.822  0.00  0.00    +0.000 A 
ATOM     14  C   UNL     1     111.741 126.086 136.250  0.00  0.00    +0.000 A 
ATOM     15  C   UNL     1     112.503 126.003 137.457  0.00  0.00    +0.000 A 
ATOM     16  C   UNL     1     111.554 125.285 136.314  0.00  0.00    +0.000 A 
ATOM     17  C   UNL     1     112.315 125.203 137.521  0.00  0.00    +0.000 A 
ATOM     18  C   UNL     1     111.841 124.844 136.950  0.00  0.00    +0.000 A 
BRANCH  16  19
ATOM     19  O   UNL     1     111.079 124.925 135.743  0.00  0.00    +0.000 OA
ATOM     20  C   UNL     1     110.505 125.366 135.347  0.00  0.00    +0.000 C 
ENDBRANCH  16  19
ENDBRANCH   4  13
BRANCH   9  21
ATOM     21  S   UNL     1     113.698 129.899 136.201  0.00  0.00    +0.000 S 
ATOM     22  O   UNL     1     114.371 130.018 136.662  0.00  0.00    +0.000 OA
ATOM     23  O   UNL     1     113.735 130.000 135.383  0.00  0.00    +0.000 OA
ENDBRANCH   9  21
BRANCH   8  24
ATOM     24  O   UNL     1     111.187 130.606 137.515  0.00  0.00    +0.000 OA
BRANCH  24  32
ATOM     25  O   UNL     1     110.248 130.580 136.438  0.00  0.00    +0.000 OA
ATOM     26  O   UNL     1     110.029 133.042 136.570  0.00  0.00    +0.000 OA
ATOM     27  O   UNL     1     111.041 132.247 137.603  0.00  0.00    +0.000 OA
ATOM     28  O   UNL     1     109.164 132.195 135.450  0.00  0.00    +0.000 OA
ATOM     29  C   UNL     1     110.102 132.221 136.526  0.00  0.00    +0.000 C 
ATOM     30  C   UNL     1     110.609 131.823 137.043  0.00  0.00    +0.000 C 
ATOM     31  C   UNL     1     109.670 131.798 135.966  0.00  0.00    +0.000 C 
ATOM     32  C   UNL     1     110.682 131.003 136.999  0.00  0.00    +0.000 C 
ATOM     33  C   UNL     1     109.743 130.977 135.922  0.00  0.00    +0.000 C 
BRANCH  33  36
ATOM     34  O   UNL     1     109.626 130.418 134.612  0.00  0.00    +0.000 OA
ATOM     35  O   UNL     1     108.560 130.267 135.551  0.00  0.00    +0.000 OA
ATOM     36  C   UNL     1     109.310 130.554 135.362  0.00  0.00    +0.000 C 
ENDBRANCH  33  36
ENDBRANCH  24  32
ENDBRANCH   8  24
TORSDOF 6
ENDMDL
MODEL 10
REMARK VINA RESULT:      -8.8      2.379      5.895
REMARK  Name = 131834133
REMARK  6 active torsions:
REMARK  status: ('A' for Active; 'I' for Inactive)
REMARK    1  A    between atoms: S_1  and  C_26
REMARK    2  A    between atoms: O_3  and  C_18
REMARK    3  A    between atoms: O_3  and  C_25
REMARK    4  A    between atoms: O_12  and  C_33
REMARK    5  A    between atoms: C_19  and  C_29
REMARK    6  A    between atoms: C_21  and  C_27
REMARK                            x       y       z     vdW  Elec       q    Type
REMARK                         _______ _______ _______ _____ _____    ______ ____
ROOT
ATOM      1  O   UNL     1     110.856 126.806 137.194  0.00  0.00    +0.000 OA
ATOM      2  O   UNL     1     110.681 126.098 135.137  0.00  0.00    +0.000 OA
ATOM      3  C   UNL     1     110.561 126.543 135.821  0.00  0.00    +0.000 C 
ATOM      4  C   UNL     1     110.976 126.361 136.510  0.00  0.00    +0.000 C 
ATOM      5  C   UNL     1     110.024 127.170 135.816  0.00  0.00    +0.000 C 
ATOM      6  C   UNL     1     109.904 127.615 136.500  0.00  0.00    +0.000 A 
ATOM      7  C   UNL     1     110.319 127.433 137.189  0.00  0.00    +0.000 A 
ATOM      8  C   UNL     1     109.645 128.544 137.909  0.00  0.00    +0.000 A 
ATOM      9  C   UNL     1     109.343 128.265 136.482  0.00  0.00    +0.000 A 
ATOM     10  C   UNL     1     110.202 127.889 137.908  0.00  0.00    +0.000 A 
ATOM     11  C   UNL     1     109.212 128.732 137.191  0.00  0.00    +0.000 A 
ENDROOT
BRANCH   4  13
ATOM     12  O   UNL     1     113.122 123.854 136.530  0.00  0.00    +0.000 OA
ATOM     13  C   UNL     1     111.513 125.734 136.515  0.00  0.00    +0.000 A 
ATOM     14  C   UNL     1     112.320 125.882 136.429  0.00  0.00    +0.000 A 
ATOM     15  C   UNL     1     111.242 124.960 136.607  0.00  0.00    +0.000 A 
ATOM     16  C   UNL     1     112.856 125.255 136.434  0.00  0.00    +0.000 A 
ATOM     17  C   UNL     1     111.778 124.334 136.612  0.00  0.00    +0.000 A 
ATOM     18  C   UNL     1     112.585 124.481 136.525  0.00  0.00    +0.000 A 
BRANCH  16  19
ATOM     19  O   UNL     1     113.664 125.402 136.347  0.00  0.00    +0.000 OA
ATOM     20  C   UNL     1     113.998 126.076 136.684  0.00  0.00    +0.000 C 
ENDBRANCH  16  19
ENDBRANCH   4  13
BRANCH   9  21
ATOM     21  S   UNL     1     108.932 128.439 135.788  0.00  0.00    +0.000 S 
ATOM     22  O   UNL     1     109.276 128.920 135.213  0.00  0.00    +0.000 OA
ATOM     23  O   UNL     1     108.175 128.131 135.669  0.00  0.00    +0.000 OA
ENDBRANCH   9  21
BRANCH   8  24
ATOM     24  O   UNL     1     109.526 128.987 138.594  0.00  0.00    +0.000 OA
BRANCH  24  32
ATOM     25  O   UNL     1     110.593 129.922 138.419  0.00  0.00    +0.000 OA
ATOM     26  O   UNL     1     109.128 131.745 139.230  0.00  0.00    +0.000 OA
ATOM     27  O   UNL     1     108.550 130.203 139.135  0.00  0.00    +0.000 OA
ATOM     28  O   UNL     1     110.683 132.071 138.785  0.00  0.00    +0.000 OA
ATOM     29  C   UNL     1     109.617 131.137 138.960  0.00  0.00    +0.000 C 
ATOM     30  C   UNL     1     109.327 130.365 138.912  0.00  0.00    +0.000 C 
ATOM     31  C   UNL     1     110.394 131.300 138.737  0.00  0.00    +0.000 C 
ATOM     32  C   UNL     1     109.815 129.758 138.642  0.00  0.00    +0.000 C 
ATOM     33  C   UNL     1     110.882 130.692 138.467  0.00  0.00    +0.000 C 
BRANCH  33  36
ATOM     34  O   UNL     1     111.831 131.062 137.464  0.00  0.00    +0.000 OA
ATOM     35  O   UNL     1     112.265 130.813 138.802  0.00  0.00    +0.000 OA
ATOM     36  C   UNL     1     111.659 130.856 138.244  0.00  0.00    +0.000 C 
ENDBRANCH  33  36
ENDBRANCH  24  32
ENDBRANCH   8  24
TORSDOF 6
ENDMDL
