MODEL 1
REMARK VINA RESULT:      -9.8      0.000      0.000
REMARK  Name = 131838531
REMARK  3 active torsions:
REMARK  status: ('A' for Active; 'I' for Inactive)
REMARK    1  A    between atoms: O_5  and  C_24
REMARK    2  A    between atoms: C_14  and  C_17
REMARK    3  A    between atoms: C_16  and  C_21
REMARK                            x       y       z     vdW  Elec       q    Type
REMARK                         _______ _______ _______ _____ _____    ______ ____
ROOT
ATOM      1  O   UNL     1     112.032 128.893 135.579  0.00  0.00    +0.000 OA
ATOM      2  O   UNL     1     110.874 126.307 136.049  0.00  0.00    +0.000 OA
ATOM      3  O   UNL     1     113.558 127.546 136.366  0.00  0.00    +0.000 OA
ATOM      4  O   UNL     1     109.213 128.466 134.986  0.00  0.00    +0.000 OA
ATOM      5  C   UNL     1     111.449 127.609 135.810  0.00  0.00    +0.000 A 
ATOM      6  C   UNL     1     112.176 127.327 136.079  0.00  0.00    +0.000 A 
ATOM      7  C   UNL     1     111.377 128.392 135.560  0.00  0.00    +0.000 A 
ATOM      8  C   UNL     1     110.774 127.077 135.795  0.00  0.00    +0.000 A 
ATOM      9  C   UNL     1     112.831 127.828 136.098  0.00  0.00    +0.000 A 
ATOM     10  C   UNL     1     112.759 128.610 135.848  0.00  0.00    +0.000 A 
ATOM     11  C   UNL     1     112.248 126.551 136.327  0.00  0.00    +0.000 A 
ATOM     12  C   UNL     1     111.605 126.046 136.312  0.00  0.00    +0.000 A 
ATOM     13  C   UNL     1     110.625 128.698 135.277  0.00  0.00    +0.000 A 
ATOM     14  C   UNL     1     110.014 127.366 135.516  0.00  0.00    +0.000 A 
ATOM     15  C   UNL     1     109.938 128.181 135.255  0.00  0.00    +0.000 A 
ENDROOT
BRANCH  10  18
ATOM     16  O   UNL     1     115.118 129.647 134.612  0.00  0.00    +0.000 OA
ATOM     17  O   UNL     1     115.380 130.614 135.923  0.00  0.00    +0.000 OA
ATOM     18  C   UNL     1     113.415 129.111 135.867  0.00  0.00    +0.000 A 
ATOM     19  C   UNL     1     113.546 129.594 136.522  0.00  0.00    +0.000 A 
ATOM     20  C   UNL     1     113.939 129.129 135.229  0.00  0.00    +0.000 A 
ATOM     21  C   UNL     1     114.201 130.095 136.541  0.00  0.00    +0.000 A 
ATOM     22  C   UNL     1     114.595 129.630 135.248  0.00  0.00    +0.000 A 
ATOM     23  C   UNL     1     114.725 130.113 135.905  0.00  0.00    +0.000 A 
BRANCH  21  24
ATOM     24  O   UNL     1     114.332 130.578 137.196  0.00  0.00    +0.000 OA
ATOM     25  C   UNL     1     113.696 130.950 137.568  0.00  0.00    +0.000 C 
ENDBRANCH  21  24
ENDBRANCH  10  18
BRANCH  12  27
ATOM     26  O   UNL     1     111.953 122.925 137.326  0.00  0.00    +0.000 OA
ATOM     27  C   UNL     1     111.692 125.265 136.566  0.00  0.00    +0.000 A 
ATOM     28  C   UNL     1     111.957 124.688 136.040  0.00  0.00    +0.000 A 
ATOM     29  C   UNL     1     111.514 125.063 137.345  0.00  0.00    +0.000 A 
ATOM     30  C   UNL     1     112.044 123.908 136.293  0.00  0.00    +0.000 A 
ATOM     31  C   UNL     1     111.601 124.283 137.598  0.00  0.00    +0.000 A 
ATOM     32  C   UNL     1     111.866 123.705 137.073  0.00  0.00    +0.000 A 
ENDBRANCH  12  27
TORSDOF 3
ENDMDL
MODEL 2
REMARK VINA RESULT:      -9.8     11.731     14.155
REMARK  Name = 131838531
REMARK  3 active torsions:
REMARK  status: ('A' for Active; 'I' for Inactive)
REMARK    1  A    between atoms: O_5  and  C_24
REMARK    2  A    between atoms: C_14  and  C_17
REMARK    3  A    between atoms: C_16  and  C_21
REMARK                            x       y       z     vdW  Elec       q    Type
REMARK                         _______ _______ _______ _____ _____    ______ ____
ROOT
ATOM      1  O   UNL     1     105.243 124.167 147.441  0.00  0.00    +0.000 OA
ATOM      2  O   UNL     1     106.785 126.586 147.576  0.00  0.00    +0.000 OA
ATOM      3  O   UNL     1     104.466 125.606 145.996  0.00  0.00    +0.000 OA
ATOM      4  O   UNL     1     107.448 124.346 149.334  0.00  0.00    +0.000 OA
ATOM      5  C   UNL     1     106.015 125.368 147.514  0.00  0.00    +0.000 A 
ATOM      6  C   UNL     1     105.550 125.703 146.921  0.00  0.00    +0.000 A 
ATOM      7  C   UNL     1     105.862 124.599 147.774  0.00  0.00    +0.000 A 
ATOM      8  C   UNL     1     106.657 125.828 147.853  0.00  0.00    +0.000 A 
ATOM      9  C   UNL     1     104.931 125.270 146.588  0.00  0.00    +0.000 A 
ATOM     10  C   UNL     1     104.778 124.503 146.848  0.00  0.00    +0.000 A 
ATOM     11  C   UNL     1     105.701 126.464 146.663  0.00  0.00    +0.000 A 
ATOM     12  C   UNL     1     106.312 126.901 146.986  0.00  0.00    +0.000 A 
ATOM     13  C   UNL     1     106.339 124.239 148.391  0.00  0.00    +0.000 A 
ATOM     14  C   UNL     1     107.145 125.484 148.471  0.00  0.00    +0.000 A 
ATOM     15  C   UNL     1     106.985 124.685 148.742  0.00  0.00    +0.000 A 
ENDROOT
BRANCH  10  18
ATOM     16  O   UNL     1     103.800 122.740 144.823  0.00  0.00    +0.000 OA
ATOM     17  O   UNL     1     102.303 122.774 145.516  0.00  0.00    +0.000 OA
ATOM     18  C   UNL     1     104.159 124.071 146.515  0.00  0.00    +0.000 A 
ATOM     19  C   UNL     1     103.411 124.087 146.861  0.00  0.00    +0.000 A 
ATOM     20  C   UNL     1     104.289 123.621 145.835  0.00  0.00    +0.000 A 
ATOM     21  C   UNL     1     102.792 123.655 146.528  0.00  0.00    +0.000 A 
ATOM     22  C   UNL     1     103.670 123.189 145.502  0.00  0.00    +0.000 A 
ATOM     23  C   UNL     1     102.922 123.206 145.849  0.00  0.00    +0.000 A 
BRANCH  21  24
ATOM     24  O   UNL     1     102.044 123.672 146.875  0.00  0.00    +0.000 OA
ATOM     25  C   UNL     1     101.971 123.692 147.696  0.00  0.00    +0.000 C 
ENDBRANCH  21  24
ENDBRANCH  10  18
BRANCH  12  27
ATOM     26  O   UNL     1     106.878 129.967 145.905  0.00  0.00    +0.000 OA
ATOM     27  C   UNL     1     106.453 127.668 146.716  0.00  0.00    +0.000 A 
ATOM     28  C   UNL     1     105.965 128.287 146.956  0.00  0.00    +0.000 A 
ATOM     29  C   UNL     1     107.085 127.815 146.205  0.00  0.00    +0.000 A 
ATOM     30  C   UNL     1     106.105 129.053 146.686  0.00  0.00    +0.000 A 
ATOM     31  C   UNL     1     107.226 128.582 145.935  0.00  0.00    +0.000 A 
ATOM     32  C   UNL     1     106.737 129.201 146.175  0.00  0.00    +0.000 A 
ENDBRANCH  12  27
TORSDOF 3
ENDMDL
MODEL 3
REMARK VINA RESULT:      -9.7      2.352      3.867
REMARK  Name = 131838531
REMARK  3 active torsions:
REMARK  status: ('A' for Active; 'I' for Inactive)
REMARK    1  A    between atoms: O_5  and  C_24
REMARK    2  A    between atoms: C_14  and  C_17
REMARK    3  A    between atoms: C_16  and  C_21
REMARK                            x       y       z     vdW  Elec       q    Type
REMARK                         _______ _______ _______ _____ _____    ______ ____
ROOT
ATOM      1  O   UNL     1     112.472 130.769 136.784  0.00  0.00    +0.000 OA
ATOM      2  O   UNL     1     112.534 128.183 135.535  0.00  0.00    +0.000 OA
ATOM      3  O   UNL     1     110.498 129.849 136.919  0.00  0.00    +0.000 OA
ATOM      4  O   UNL     1     114.959 129.815 135.608  0.00  0.00    +0.000 OA
ATOM      5  C   UNL     1     112.511 129.483 136.161  0.00  0.00    +0.000 A 
ATOM      6  C   UNL     1     111.714 129.372 136.340  0.00  0.00    +0.000 A 
ATOM      7  C   UNL     1     112.891 130.182 136.383  0.00  0.00    +0.000 A 
ATOM      8  C   UNL     1     112.936 128.864 135.743  0.00  0.00    +0.000 A 
ATOM      9  C   UNL     1     111.295 129.960 136.741  0.00  0.00    +0.000 A 
ATOM     10  C   UNL     1     111.674 130.657 136.962  0.00  0.00    +0.000 A 
ATOM     11  C   UNL     1     111.337 128.681 136.120  0.00  0.00    +0.000 A 
ATOM     12  C   UNL     1     111.742 128.092 135.722  0.00  0.00    +0.000 A 
ATOM     13  C   UNL     1     113.721 130.310 136.202  0.00  0.00    +0.000 A 
ATOM     14  C   UNL     1     113.767 128.974 135.554  0.00  0.00    +0.000 A 
ATOM     15  C   UNL     1     114.162 129.701 135.785  0.00  0.00    +0.000 A 
ENDROOT
BRANCH  10  18
ATOM     16  O   UNL     1     110.610 131.716 139.394  0.00  0.00    +0.000 OA
ATOM     17  O   UNL     1     110.001 133.006 138.566  0.00  0.00    +0.000 OA
ATOM     18  C   UNL     1     111.256 131.244 137.363  0.00  0.00    +0.000 A 
ATOM     19  C   UNL     1     110.951 131.890 136.950  0.00  0.00    +0.000 A 
ATOM     20  C   UNL     1     111.142 131.187 138.179  0.00  0.00    +0.000 A 
ATOM     21  C   UNL     1     110.532 132.477 137.351  0.00  0.00    +0.000 A 
ATOM     22  C   UNL     1     110.724 131.774 138.580  0.00  0.00    +0.000 A 
ATOM     23  C   UNL     1     110.419 132.419 138.165  0.00  0.00    +0.000 A 
BRANCH  21  24
ATOM     24  O   UNL     1     110.228 133.121 136.937  0.00  0.00    +0.000 OA
ATOM     25  C   UNL     1     110.725 133.579 136.463  0.00  0.00    +0.000 C 
ENDBRANCH  21  24
ENDBRANCH  10  18
BRANCH  12  27
ATOM     26  O   UNL     1     110.172 125.320 134.861  0.00  0.00    +0.000 OA
ATOM     27  C   UNL     1     111.349 127.399 135.507  0.00  0.00    +0.000 A 
ATOM     28  C   UNL     1     110.882 127.384 134.828  0.00  0.00    +0.000 A 
ATOM     29  C   UNL     1     111.425 126.721 135.971  0.00  0.00    +0.000 A 
ATOM     30  C   UNL     1     110.489 126.691 134.612  0.00  0.00    +0.000 A 
ATOM     31  C   UNL     1     111.032 126.028 135.755  0.00  0.00    +0.000 A 
ATOM     32  C   UNL     1     110.564 126.013 135.077  0.00  0.00    +0.000 A 
ENDBRANCH  12  27
TORSDOF 3
ENDMDL
MODEL 4
REMARK VINA RESULT:      -9.7      1.709      3.696
REMARK  Name = 131838531
REMARK  3 active torsions:
REMARK  status: ('A' for Active; 'I' for Inactive)
REMARK    1  A    between atoms: O_5  and  C_24
REMARK    2  A    between atoms: C_14  and  C_17
REMARK    3  A    between atoms: C_16  and  C_21
REMARK                            x       y       z     vdW  Elec       q    Type
REMARK                         _______ _______ _______ _____ _____    ______ ____
ROOT
ATOM      1  O   UNL     1     111.879 129.358 135.831  0.00  0.00    +0.000 OA
ATOM      2  O   UNL     1     114.069 127.530 136.167  0.00  0.00    +0.000 OA
ATOM      3  O   UNL     1     111.170 127.549 136.825  0.00  0.00    +0.000 OA
ATOM      4  O   UNL     1     114.524 130.114 134.876  0.00  0.00    +0.000 OA
ATOM      5  C   UNL     1     112.974 128.454 135.995  0.00  0.00    +0.000 A 
ATOM      6  C   UNL     1     112.471 127.911 136.359  0.00  0.00    +0.000 A 
ATOM      7  C   UNL     1     112.678 129.178 135.730  0.00  0.00    +0.000 A 
ATOM      8  C   UNL     1     113.804 128.254 135.895  0.00  0.00    +0.000 A 
ATOM      9  C   UNL     1     111.673 128.092 136.460  0.00  0.00    +0.000 A 
ATOM     10  C   UNL     1     111.377 128.815 136.196  0.00  0.00    +0.000 A 
ATOM     11  C   UNL     1     112.764 127.194 136.621  0.00  0.00    +0.000 A 
ATOM     12  C   UNL     1     113.554 127.005 136.526  0.00  0.00    +0.000 A 
ATOM     13  C   UNL     1     113.191 129.752 135.349  0.00  0.00    +0.000 A 
ATOM     14  C   UNL     1     114.332 128.816 135.516  0.00  0.00    +0.000 A 
ATOM     15  C   UNL     1     114.025 129.569 135.241  0.00  0.00    +0.000 A 
ENDROOT
BRANCH  10  18
ATOM     16  O   UNL     1     108.686 128.759 135.235  0.00  0.00    +0.000 OA
ATOM     17  O   UNL     1     108.182 129.537 136.600  0.00  0.00    +0.000 OA
ATOM     18  C   UNL     1     110.578 128.995 136.297  0.00  0.00    +0.000 A 
ATOM     19  C   UNL     1     110.326 129.384 136.980  0.00  0.00    +0.000 A 
ATOM     20  C   UNL     1     110.031 128.786 135.715  0.00  0.00    +0.000 A 
ATOM     21  C   UNL     1     109.527 129.565 137.080  0.00  0.00    +0.000 A 
ATOM     22  C   UNL     1     109.232 128.967 135.816  0.00  0.00    +0.000 A 
ATOM     23  C   UNL     1     108.981 129.356 136.499  0.00  0.00    +0.000 A 
BRANCH  21  24
ATOM     24  O   UNL     1     109.276 129.953 137.763  0.00  0.00    +0.000 OA
ATOM     25  C   UNL     1     109.755 130.528 138.110  0.00  0.00    +0.000 C 
ENDBRANCH  21  24
ENDBRANCH  10  18
BRANCH  12  27
ATOM     26  O   UNL     1     114.680 124.095 137.602  0.00  0.00    +0.000 OA
ATOM     27  C   UNL     1     113.836 126.277 136.795  0.00  0.00    +0.000 A 
ATOM     28  C   UNL     1     114.001 126.169 137.596  0.00  0.00    +0.000 A 
ATOM     29  C   UNL     1     113.952 125.658 136.263  0.00  0.00    +0.000 A 
ATOM     30  C   UNL     1     114.282 125.442 137.865  0.00  0.00    +0.000 A 
ATOM     31  C   UNL     1     114.233 124.930 136.532  0.00  0.00    +0.000 A 
ATOM     32  C   UNL     1     114.398 124.822 137.332  0.00  0.00    +0.000 A 
ENDBRANCH  12  27
TORSDOF 3
ENDMDL
MODEL 5
REMARK VINA RESULT:      -9.6      3.281      5.135
REMARK  Name = 131838531
REMARK  3 active torsions:
REMARK  status: ('A' for Active; 'I' for Inactive)
REMARK    1  A    between atoms: O_5  and  C_24
REMARK    2  A    between atoms: C_14  and  C_17
REMARK    3  A    between atoms: C_16  and  C_21
REMARK                            x       y       z     vdW  Elec       q    Type
REMARK                         _______ _______ _______ _____ _____    ______ ____
ROOT
ATOM      1  O   UNL     1     109.302 126.441 138.416  0.00  0.00    +0.000 OA
ATOM      2  O   UNL     1     111.557 125.775 136.767  0.00  0.00    +0.000 OA
ATOM      3  O   UNL     1     110.935 125.724 139.673  0.00  0.00    +0.000 OA
ATOM      4  O   UNL     1     109.108 126.788 135.531  0.00  0.00    +0.000 OA
ATOM      5  C   UNL     1     110.420 126.112 137.589  0.00  0.00    +0.000 A 
ATOM      6  C   UNL     1     110.849 125.891 138.257  0.00  0.00    +0.000 A 
ATOM      7  C   UNL     1     109.645 126.387 137.668  0.00  0.00    +0.000 A 
ATOM      8  C   UNL     1     110.789 126.051 136.815  0.00  0.00    +0.000 A 
ATOM      9  C   UNL     1     110.505 125.945 139.005  0.00  0.00    +0.000 A 
ATOM     10  C   UNL     1     109.732 126.220 139.084  0.00  0.00    +0.000 A 
ATOM     11  C   UNL     1     111.616 125.618 138.180  0.00  0.00    +0.000 A 
ATOM     12  C   UNL     1     111.967 125.561 137.443  0.00  0.00    +0.000 A 
ATOM     13  C   UNL     1     109.187 126.620 136.979  0.00  0.00    +0.000 A 
ATOM     14  C   UNL     1     110.346 126.280 136.115  0.00  0.00    +0.000 A 
ATOM     15  C   UNL     1     109.541 126.566 136.197  0.00  0.00    +0.000 A 
ENDROOT
BRANCH  10  18
ATOM     16  O   UNL     1     108.263 125.025 141.225  0.00  0.00    +0.000 OA
ATOM     17  O   UNL     1     108.356 126.436 142.076  0.00  0.00    +0.000 OA
ATOM     18  C   UNL     1     109.388 126.274 139.832  0.00  0.00    +0.000 A 
ATOM     19  C   UNL     1     109.434 126.978 140.258  0.00  0.00    +0.000 A 
ATOM     20  C   UNL     1     108.997 125.622 140.155  0.00  0.00    +0.000 A 
ATOM     21  C   UNL     1     109.090 127.032 141.006  0.00  0.00    +0.000 A 
ATOM     22  C   UNL     1     108.653 125.676 140.903  0.00  0.00    +0.000 A 
ATOM     23  C   UNL     1     108.700 126.382 141.328  0.00  0.00    +0.000 A 
BRANCH  21  24
ATOM     24  O   UNL     1     109.137 127.737 141.431  0.00  0.00    +0.000 OA
ATOM     25  C   UNL     1     109.070 128.460 141.040  0.00  0.00    +0.000 C 
ENDBRANCH  21  24
ENDBRANCH  10  18
BRANCH  12  27
ATOM     26  O   UNL     1     115.066 124.454 137.189  0.00  0.00    +0.000 OA
ATOM     27  C   UNL     1     112.742 125.284 137.379  0.00  0.00    +0.000 A 
ATOM     28  C   UNL     1     112.884 124.502 137.160  0.00  0.00    +0.000 A 
ATOM     29  C   UNL     1     113.374 125.790 137.536  0.00  0.00    +0.000 A 
ATOM     30  C   UNL     1     113.658 124.225 137.096  0.00  0.00    +0.000 A 
ATOM     31  C   UNL     1     114.149 125.513 137.472  0.00  0.00    +0.000 A 
ATOM     32  C   UNL     1     114.291 124.731 137.253  0.00  0.00    +0.000 A 
ENDBRANCH  12  27
TORSDOF 3
ENDMDL
MODEL 6
REMARK VINA RESULT:      -9.5      1.783      5.051
REMARK  Name = 131838531
REMARK  3 active torsions:
REMARK  status: ('A' for Active; 'I' for Inactive)
REMARK    1  A    between atoms: O_5  and  C_24
REMARK    2  A    between atoms: C_14  and  C_17
REMARK    3  A    between atoms: C_16  and  C_21
REMARK                            x       y       z     vdW  Elec       q    Type
REMARK                         _______ _______ _______ _____ _____    ______ ____
ROOT
ATOM      1  O   UNL     1     113.188 127.268 136.054  0.00  0.00    +0.000 OA
ATOM      2  O   UNL     1     113.489 129.578 137.735  0.00  0.00    +0.000 OA
ATOM      3  O   UNL     1     112.439 126.815 138.053  0.00  0.00    +0.000 OA
ATOM      4  O   UNL     1     114.356 129.694 134.945  0.00  0.00    +0.000 OA
ATOM      5  C   UNL     1     113.341 128.422 136.884  0.00  0.00    +0.000 A 
ATOM      6  C   UNL     1     113.011 128.009 137.518  0.00  0.00    +0.000 A 
ATOM      7  C   UNL     1     113.430 128.051 136.152  0.00  0.00    +0.000 A 
ATOM      8  C   UNL     1     113.589 129.236 136.999  0.00  0.00    +0.000 A 
ATOM      9  C   UNL     1     112.769 127.227 137.420  0.00  0.00    +0.000 A 
ATOM     10  C   UNL     1     112.858 126.857 136.688  0.00  0.00    +0.000 A 
ATOM     11  C   UNL     1     112.923 128.376 138.244  0.00  0.00    +0.000 A 
ATOM     12  C   UNL     1     113.159 129.151 138.351  0.00  0.00    +0.000 A 
ATOM     13  C   UNL     1     113.773 128.469 135.484  0.00  0.00    +0.000 A 
ATOM     14  C   UNL     1     113.934 129.671 136.343  0.00  0.00    +0.000 A 
ATOM     15  C   UNL     1     114.027 129.286 135.581  0.00  0.00    +0.000 A 
ENDROOT
BRANCH  10  18
ATOM     16  O   UNL     1     113.416 124.057 136.831  0.00  0.00    +0.000 OA
ATOM     17  O   UNL     1     111.891 123.726 136.296  0.00  0.00    +0.000 OA
ATOM     18  C   UNL     1     112.616 126.074 136.590  0.00  0.00    +0.000 A 
ATOM     19  C   UNL     1     111.854 125.908 136.323  0.00  0.00    +0.000 A 
ATOM     20  C   UNL     1     113.137 125.456 136.760  0.00  0.00    +0.000 A 
ATOM     21  C   UNL     1     111.612 125.125 136.225  0.00  0.00    +0.000 A 
ATOM     22  C   UNL     1     112.896 124.674 136.661  0.00  0.00    +0.000 A 
ATOM     23  C   UNL     1     112.133 124.509 136.394  0.00  0.00    +0.000 A 
BRANCH  21  24
ATOM     24  O   UNL     1     110.850 124.959 135.958  0.00  0.00    +0.000 OA
ATOM     25  C   UNL     1     110.505 125.432 135.376  0.00  0.00    +0.000 C 
ENDBRANCH  21  24
ENDBRANCH  10  18
BRANCH  12  27
ATOM     26  O   UNL     1     112.780 130.580 141.303  0.00  0.00    +0.000 OA
ATOM     27  C   UNL     1     113.064 129.509 139.090  0.00  0.00    +0.000 A 
ATOM     28  C   UNL     1     112.351 129.876 139.281  0.00  0.00    +0.000 A 
ATOM     29  C   UNL     1     113.683 129.498 139.635  0.00  0.00    +0.000 A 
ATOM     30  C   UNL     1     112.256 130.233 140.019  0.00  0.00    +0.000 A 
ATOM     31  C   UNL     1     113.588 129.855 140.373  0.00  0.00    +0.000 A 
ATOM     32  C   UNL     1     112.875 130.222 140.565  0.00  0.00    +0.000 A 
ENDBRANCH  12  27
TORSDOF 3
ENDMDL
MODEL 7
REMARK VINA RESULT:      -9.5      0.913      4.766
REMARK  Name = 131838531
REMARK  3 active torsions:
REMARK  status: ('A' for Active; 'I' for Inactive)
REMARK    1  A    between atoms: O_5  and  C_24
REMARK    2  A    between atoms: C_14  and  C_17
REMARK    3  A    between atoms: C_16  and  C_21
REMARK                            x       y       z     vdW  Elec       q    Type
REMARK                         _______ _______ _______ _____ _____    ______ ____
ROOT
ATOM      1  O   UNL     1     110.818 127.160 136.084  0.00  0.00    +0.000 OA
ATOM      2  O   UNL     1     112.210 129.546 135.298  0.00  0.00    +0.000 OA
ATOM      3  O   UNL     1     112.922 126.991 136.640  0.00  0.00    +0.000 OA
ATOM      4  O   UNL     1     109.347 129.297 134.762  0.00  0.00    +0.000 OA
ATOM      5  C   UNL     1     111.504 128.351 135.690  0.00  0.00    +0.000 A 
ATOM      6  C   UNL     1     112.208 128.044 135.991  0.00  0.00    +0.000 A 
ATOM      7  C   UNL     1     110.809 127.908 135.736  0.00  0.00    +0.000 A 
ATOM      8  C   UNL     1     111.507 129.131 135.330  0.00  0.00    +0.000 A 
ATOM      9  C   UNL     1     112.218 127.296 136.339  0.00  0.00    +0.000 A 
ATOM     10  C   UNL     1     111.523 126.854 136.385  0.00  0.00    +0.000 A 
ATOM     11  C   UNL     1     112.898 128.482 135.946  0.00  0.00    +0.000 A 
ATOM     12  C   UNL     1     112.899 129.225 135.603  0.00  0.00    +0.000 A 
ATOM     13  C   UNL     1     110.068 128.215 135.426  0.00  0.00    +0.000 A 
ATOM     14  C   UNL     1     110.776 129.455 135.014  0.00  0.00    +0.000 A 
ATOM     15  C   UNL     1     110.053 128.994 135.062  0.00  0.00    +0.000 A 
ENDROOT
BRANCH  10  18
ATOM     16  O   UNL     1     112.193 124.079 136.266  0.00  0.00    +0.000 OA
ATOM     17  O   UNL     1     111.562 123.862 137.775  0.00  0.00    +0.000 OA
ATOM     18  C   UNL     1     111.533 126.106 136.732  0.00  0.00    +0.000 A 
ATOM     19  C   UNL     1     111.218 125.997 137.487  0.00  0.00    +0.000 A 
ATOM     20  C   UNL     1     111.858 125.466 136.325  0.00  0.00    +0.000 A 
ATOM     21  C   UNL     1     111.227 125.249 137.835  0.00  0.00    +0.000 A 
ATOM     22  C   UNL     1     111.868 124.718 136.673  0.00  0.00    +0.000 A 
ATOM     23  C   UNL     1     111.552 124.610 137.428  0.00  0.00    +0.000 A 
BRANCH  21  24
ATOM     24  O   UNL     1     110.912 125.141 138.589  0.00  0.00    +0.000 OA
ATOM     25  C   UNL     1     111.087 125.679 139.189  0.00  0.00    +0.000 C 
ENDBRANCH  21  24
ENDBRANCH  10  18
BRANCH  12  27
ATOM     26  O   UNL     1     115.710 130.948 135.448  0.00  0.00    +0.000 OA
ATOM     27  C   UNL     1     113.602 129.656 135.564  0.00  0.00    +0.000 A 
ATOM     28  C   UNL     1     114.091 129.588 134.904  0.00  0.00    +0.000 A 
ATOM     29  C   UNL     1     113.815 130.154 136.187  0.00  0.00    +0.000 A 
ATOM     30  C   UNL     1     114.794 130.019 134.865  0.00  0.00    +0.000 A 
ATOM     31  C   UNL     1     114.518 130.584 136.147  0.00  0.00    +0.000 A 
ATOM     32  C   UNL     1     115.007 130.517 135.487  0.00  0.00    +0.000 A 
ENDBRANCH  12  27
TORSDOF 3
ENDMDL
MODEL 8
REMARK VINA RESULT:      -9.4      2.186      3.431
REMARK  Name = 131838531
REMARK  3 active torsions:
REMARK  status: ('A' for Active; 'I' for Inactive)
REMARK    1  A    between atoms: O_5  and  C_24
REMARK    2  A    between atoms: C_14  and  C_17
REMARK    3  A    between atoms: C_16  and  C_21
REMARK                            x       y       z     vdW  Elec       q    Type
REMARK                         _______ _______ _______ _____ _____    ______ ____
ROOT
ATOM      1  O   UNL     1     113.349 129.643 137.735  0.00  0.00    +0.000 OA
ATOM      2  O   UNL     1     113.516 127.224 136.195  0.00  0.00    +0.000 OA
ATOM      3  O   UNL     1     112.909 127.932 139.017  0.00  0.00    +0.000 OA
ATOM      4  O   UNL     1     114.027 129.799 134.907  0.00  0.00    +0.000 OA
ATOM      5  C   UNL     1     113.434 128.443 136.962  0.00  0.00    +0.000 A 
ATOM      6  C   UNL     1     113.241 128.000 137.630  0.00  0.00    +0.000 A 
ATOM      7  C   UNL     1     113.488 129.266 137.015  0.00  0.00    +0.000 A 
ATOM      8  C   UNL     1     113.576 128.039 136.217  0.00  0.00    +0.000 A 
ATOM      9  C   UNL     1     113.102 128.377 138.350  0.00  0.00    +0.000 A 
ATOM     10  C   UNL     1     113.156 129.198 138.403  0.00  0.00    +0.000 A 
ATOM     11  C   UNL     1     113.187 127.185 137.578  0.00  0.00    +0.000 A 
ATOM     12  C   UNL     1     113.323 126.801 136.869  0.00  0.00    +0.000 A 
ATOM     13  C   UNL     1     113.688 129.740 136.326  0.00  0.00    +0.000 A 
ATOM     14  C   UNL     1     113.778 128.497 135.518  0.00  0.00    +0.000 A 
ATOM     15  C   UNL     1     113.834 129.352 135.573  0.00  0.00    +0.000 A 
ENDROOT
BRANCH  10  18
ATOM     16  O   UNL     1     111.348 130.421 140.248  0.00  0.00    +0.000 OA
ATOM     17  O   UNL     1     112.600 130.706 141.284  0.00  0.00    +0.000 OA
ATOM     18  C   UNL     1     113.017 129.575 139.123  0.00  0.00    +0.000 A 
ATOM     19  C   UNL     1     113.642 129.717 139.642  0.00  0.00    +0.000 A 
ATOM     20  C   UNL     1     112.252 129.810 139.325  0.00  0.00    +0.000 A 
ATOM     21  C   UNL     1     113.503 130.095 140.362  0.00  0.00    +0.000 A 
ATOM     22  C   UNL     1     112.113 130.187 140.046  0.00  0.00    +0.000 A 
ATOM     23  C   UNL     1     112.739 130.329 140.564  0.00  0.00    +0.000 A 
BRANCH  21  24
ATOM     24  O   UNL     1     114.128 130.237 140.880  0.00  0.00    +0.000 OA
ATOM     25  C   UNL     1     114.831 130.564 140.598  0.00  0.00    +0.000 C 
ENDBRANCH  21  24
ENDBRANCH  10  18
BRANCH  12  27
ATOM     26  O   UNL     1     113.093 123.512 136.720  0.00  0.00    +0.000 OA
ATOM     27  C   UNL     1     113.265 125.978 136.831  0.00  0.00    +0.000 A 
ATOM     28  C   UNL     1     112.549 125.624 136.629  0.00  0.00    +0.000 A 
ATOM     29  C   UNL     1     113.925 125.511 136.997  0.00  0.00    +0.000 A 
ATOM     30  C   UNL     1     112.491 124.802 136.592  0.00  0.00    +0.000 A 
ATOM     31  C   UNL     1     113.867 124.689 136.960  0.00  0.00    +0.000 A 
ATOM     32  C   UNL     1     113.151 124.334 136.757  0.00  0.00    +0.000 A 
ENDBRANCH  12  27
TORSDOF 3
ENDMDL
MODEL 9
REMARK VINA RESULT:      -9.4      2.388      3.368
REMARK  Name = 131838531
REMARK  3 active torsions:
REMARK  status: ('A' for Active; 'I' for Inactive)
REMARK    1  A    between atoms: O_5  and  C_24
REMARK    2  A    between atoms: C_14  and  C_17
REMARK    3  A    between atoms: C_16  and  C_21
REMARK                            x       y       z     vdW  Elec       q    Type
REMARK                         _______ _______ _______ _____ _____    ______ ____
ROOT
ATOM      1  O   UNL     1     113.296 128.866 139.002  0.00  0.00    +0.000 OA
ATOM      2  O   UNL     1     113.178 126.002 138.814  0.00  0.00    +0.000 OA
ATOM      3  O   UNL     1     112.422 128.298 137.084  0.00  0.00    +0.000 OA
ATOM      4  O   UNL     1     114.280 127.252 141.217  0.00  0.00    +0.000 OA
ATOM      5  C   UNL     1     113.241 127.440 138.916  0.00  0.00    +0.000 A 
ATOM      6  C   UNL     1     112.902 127.499 138.166  0.00  0.00    +0.000 A 
ATOM      7  C   UNL     1     113.438 128.124 139.334  0.00  0.00    +0.000 A 
ATOM      8  C   UNL     1     113.384 126.662 139.251  0.00  0.00    +0.000 A 
ATOM      9  C   UNL     1     112.761 128.240 137.834  0.00  0.00    +0.000 A 
ATOM     10  C   UNL     1     112.958 128.923 138.251  0.00  0.00    +0.000 A 
ATOM     11  C   UNL     1     112.707 126.821 137.751  0.00  0.00    +0.000 A 
ATOM     12  C   UNL     1     112.843 126.081 138.071  0.00  0.00    +0.000 A 
ATOM     13  C   UNL     1     113.792 128.077 140.116  0.00  0.00    +0.000 A 
ATOM     14  C   UNL     1     113.736 126.595 140.032  0.00  0.00    +0.000 A 
ATOM     15  C   UNL     1     113.942 127.307 140.467  0.00  0.00    +0.000 A 
ENDROOT
BRANCH  10  18
ATOM     16  O   UNL     1     113.833 131.132 136.664  0.00  0.00    +0.000 OA
ATOM     17  O   UNL     1     112.390 131.890 136.922  0.00  0.00    +0.000 OA
ATOM     18  C   UNL     1     112.816 129.665 137.919  0.00  0.00    +0.000 A 
ATOM     19  C   UNL     1     112.095 130.044 138.048  0.00  0.00    +0.000 A 
ATOM     20  C   UNL     1     113.396 130.028 137.457  0.00  0.00    +0.000 A 
ATOM     21  C   UNL     1     111.953 130.786 137.716  0.00  0.00    +0.000 A 
ATOM     22  C   UNL     1     113.254 130.770 137.125  0.00  0.00    +0.000 A 
ATOM     23  C   UNL     1     112.532 131.148 137.255  0.00  0.00    +0.000 A 
BRANCH  21  24
ATOM     24  O   UNL     1     111.232 131.164 137.845  0.00  0.00    +0.000 OA
ATOM     25  C   UNL     1     110.854 131.093 138.575  0.00  0.00    +0.000 C 
ENDBRANCH  21  24
ENDBRANCH  10  18
BRANCH  12  27
ATOM     26  O   UNL     1     112.033 123.383 136.353  0.00  0.00    +0.000 OA
ATOM     27  C   UNL     1     112.641 125.406 137.641  0.00  0.00    +0.000 A 
ATOM     28  C   UNL     1     113.205 125.032 137.172  0.00  0.00    +0.000 A 
ATOM     29  C   UNL     1     111.873 125.107 137.682  0.00  0.00    +0.000 A 
ATOM     30  C   UNL     1     113.003 124.357 136.742  0.00  0.00    +0.000 A 
ATOM     31  C   UNL     1     111.671 124.432 137.252  0.00  0.00    +0.000 A 
ATOM     32  C   UNL     1     112.235 124.057 136.783  0.00  0.00    +0.000 A 
ENDBRANCH  12  27
TORSDOF 3
ENDMDL
MODEL 10
REMARK VINA RESULT:      -9.4      2.948      4.326
REMARK  Name = 131838531
REMARK  3 active torsions:
REMARK  status: ('A' for Active; 'I' for Inactive)
REMARK    1  A    between atoms: O_5  and  C_24
REMARK    2  A    between atoms: C_14  and  C_17
REMARK    3  A    between atoms: C_16  and  C_21
REMARK                            x       y       z     vdW  Elec       q    Type
REMARK                         _______ _______ _______ _____ _____    ______ ____
ROOT
ATOM      1  O   UNL     1     113.737 126.569 139.023  0.00  0.00    +0.000 OA
ATOM      2  O   UNL     1     112.579 125.580 136.587  0.00  0.00    +0.000 OA
ATOM      3  O   UNL     1     111.760 127.451 138.747  0.00  0.00    +0.000 OA
ATOM      4  O   UNL     1     115.241 124.680 137.395  0.00  0.00    +0.000 OA
ATOM      5  C   UNL     1     113.167 126.072 137.809  0.00  0.00    +0.000 A 
ATOM      6  C   UNL     1     112.490 126.525 137.942  0.00  0.00    +0.000 A 
ATOM      7  C   UNL     1     113.791 126.094 138.350  0.00  0.00    +0.000 A 
ATOM      8  C   UNL     1     113.211 125.582 137.105  0.00  0.00    +0.000 A 
ATOM      9  C   UNL     1     112.437 126.999 138.615  0.00  0.00    +0.000 A 
ATOM     10  C   UNL     1     113.059 127.021 139.155  0.00  0.00    +0.000 A 
ATOM     11  C   UNL     1     111.872 126.504 137.407  0.00  0.00    +0.000 A 
ATOM     12  C   UNL     1     111.916 126.037 136.737  0.00  0.00    +0.000 A 
ATOM     13  C   UNL     1     114.501 125.628 138.224  0.00  0.00    +0.000 A 
ATOM     14  C   UNL     1     113.914 125.109 136.962  0.00  0.00    +0.000 A 
ATOM     15  C   UNL     1     114.563 125.131 137.524  0.00  0.00    +0.000 A 
ENDROOT
BRANCH  10  18
ATOM     16  O   UNL     1     112.175 127.410 141.844  0.00  0.00    +0.000 OA
ATOM     17  O   UNL     1     112.844 128.919 141.846  0.00  0.00    +0.000 OA
ATOM     18  C   UNL     1     113.005 127.495 139.828  0.00  0.00    +0.000 A 
ATOM     19  C   UNL     1     113.339 128.250 139.829  0.00  0.00    +0.000 A 
ATOM     20  C   UNL     1     112.617 127.216 140.500  0.00  0.00    +0.000 A 
ATOM     21  C   UNL     1     113.285 128.724 140.502  0.00  0.00    +0.000 A 
ATOM     22  C   UNL     1     112.563 127.690 141.173  0.00  0.00    +0.000 A 
ATOM     23  C   UNL     1     112.897 128.444 141.173  0.00  0.00    +0.000 A 
BRANCH  21  24
ATOM     24  O   UNL     1     113.619 129.478 140.502  0.00  0.00    +0.000 OA
ATOM     25  C   UNL     1     114.411 129.578 140.292  0.00  0.00    +0.000 C 
ENDBRANCH  21  24
ENDBRANCH  10  18
BRANCH  12  27
ATOM     26  O   UNL     1     109.390 125.989 134.612  0.00  0.00    +0.000 OA
ATOM     27  C   UNL     1     111.284 126.025 136.205  0.00  0.00    +0.000 A 
ATOM     28  C   UNL     1     111.212 126.618 135.638  0.00  0.00    +0.000 A 
ATOM     29  C   UNL     1     110.725 125.419 136.243  0.00  0.00    +0.000 A 
ATOM     30  C   UNL     1     110.581 126.607 135.107  0.00  0.00    +0.000 A 
ATOM     31  C   UNL     1     110.094 125.407 135.711  0.00  0.00    +0.000 A 
ATOM     32  C   UNL     1     110.021 126.001 135.144  0.00  0.00    +0.000 A 
ENDBRANCH  12  27
TORSDOF 3
ENDMDL
