MODEL 1
REMARK VINA RESULT:      -9.4      0.000      0.000
REMARK  Name = 44258692
REMARK  4 active torsions:
REMARK  status: ('A' for Active; 'I' for Inactive)
REMARK    1  A    between atoms: O_2  and  C_15
REMARK    2  A    between atoms: O_2  and  C_17
REMARK    3  A    between atoms: O_10  and  C_31
REMARK    4  A    between atoms: C_24  and  C_26
REMARK                            x       y       z     vdW  Elec       q    Type
REMARK                         _______ _______ _______ _____ _____    ______ ____
ROOT
ATOM      1  O   UNL     1     104.379 124.536 145.823  0.00  0.00    +0.000 OA
ATOM      2  O   UNL     1     107.374 125.981 146.281  0.00  0.00    +0.000 OA
ATOM      3  O   UNL     1     103.875 123.959 147.867  0.00  0.00    +0.000 OA
ATOM      4  O   UNL     1     105.346 124.669 148.097  0.00  0.00    +0.000 OA
ATOM      5  C   UNL     1     106.303 125.581 145.373  0.00  0.00    +0.000 A 
ATOM      6  C   UNL     1     105.536 125.210 145.261  0.00  0.00    +0.000 A 
ATOM      7  C   UNL     1     106.639 125.627 146.164  0.00  0.00    +0.000 A 
ATOM      8  C   UNL     1     105.115 124.890 145.938  0.00  0.00    +0.000 A 
ATOM      9  C   UNL     1     105.437 124.935 146.696  0.00  0.00    +0.000 A 
ATOM     10  C   UNL     1     106.203 125.302 146.829  0.00  0.00    +0.000 A 
ATOM     11  C   UNL     1     105.024 124.624 147.339  0.00  0.00    +0.000 A 
ATOM     12  C   UNL     1     103.965 124.225 146.466  0.00  0.00    +0.000 A 
ATOM     13  C   UNL     1     104.288 124.270 147.224  0.00  0.00    +0.000 A 
ENDROOT
BRANCH  12  14
ATOM     14  C   UNL     1     103.229 123.870 146.351  0.00  0.00    +0.000 A 
ATOM     15  C   UNL     1     103.184 123.100 146.059  0.00  0.00    +0.000 A 
ATOM     16  C   UNL     1     102.539 124.287 146.528  0.00  0.00    +0.000 A 
ATOM     17  C   UNL     1     102.448 122.746 145.945  0.00  0.00    +0.000 A 
ATOM     18  C   UNL     1     101.803 123.932 146.413  0.00  0.00    +0.000 A 
ATOM     19  C   UNL     1     101.757 123.162 146.121  0.00  0.00    +0.000 A 
BRANCH  19  20
ATOM     20  O   UNL     1     101.021 122.807 146.007  0.00  0.00    +0.000 OA
ATOM     21  C   UNL     1     100.710 122.740 145.246  0.00  0.00    +0.000 C 
ENDBRANCH  19  20
ENDBRANCH  12  14
BRANCH   5  22
ATOM     22  O   UNL     1     106.714 125.890 144.728  0.00  0.00    +0.000 OA
BRANCH  22  31
ATOM     23  O   UNL     1     105.953 127.079 144.507  0.00  0.00    +0.000 OA
ATOM     24  O   UNL     1     105.980 126.644 142.071  0.00  0.00    +0.000 OA
ATOM     25  O   UNL     1     105.210 127.978 142.662  0.00  0.00    +0.000 OA
ATOM     26  O   UNL     1     106.731 125.600 143.104  0.00  0.00    +0.000 OA
ATOM     27  C   UNL     1     105.971 126.789 142.883  0.00  0.00    +0.000 C 
ATOM     28  C   UNL     1     105.586 127.456 143.179  0.00  0.00    +0.000 C 
ATOM     29  C   UNL     1     106.346 126.267 143.400  0.00  0.00    +0.000 C 
ATOM     30  C   UNL     1     105.577 127.601 143.992  0.00  0.00    +0.000 C 
ATOM     31  C   UNL     1     106.337 126.413 144.212  0.00  0.00    +0.000 C 
ATOM     32  C   UNL     1     105.192 128.269 144.287  0.00  0.00    +0.000 C 
ENDBRANCH  22  31
ENDBRANCH   5  22
TORSDOF 4
ENDMDL
MODEL 2
REMARK VINA RESULT:      -9.4     10.017     11.490
REMARK  Name = 44258692
REMARK  4 active torsions:
REMARK  status: ('A' for Active; 'I' for Inactive)
REMARK    1  A    between atoms: O_2  and  C_15
REMARK    2  A    between atoms: O_2  and  C_17
REMARK    3  A    between atoms: O_10  and  C_31
REMARK    4  A    between atoms: C_24  and  C_26
REMARK                            x       y       z     vdW  Elec       q    Type
REMARK                         _______ _______ _______ _____ _____    ______ ____
ROOT
ATOM      1  O   UNL     1     110.803 126.447 136.674  0.00  0.00    +0.000 OA
ATOM      2  O   UNL     1     108.091 128.199 135.755  0.00  0.00    +0.000 OA
ATOM      3  O   UNL     1     110.823 124.879 135.157  0.00  0.00    +0.000 OA
ATOM      4  O   UNL     1     109.490 125.736 134.701  0.00  0.00    +0.000 OA
ATOM      5  C   UNL     1     109.215 128.019 136.671  0.00  0.00    +0.000 A 
ATOM      6  C   UNL     1     109.908 127.568 136.902  0.00  0.00    +0.000 A 
ATOM      7  C   UNL     1     108.758 127.772 135.985  0.00  0.00    +0.000 A 
ATOM      8  C   UNL     1     110.137 126.876 136.447  0.00  0.00    +0.000 A 
ATOM      9  C   UNL     1     109.699 126.639 135.789  0.00  0.00    +0.000 A 
ATOM     10  C   UNL     1     109.002 127.078 135.542  0.00  0.00    +0.000 A 
ATOM     11  C   UNL     1     109.928 125.974 135.359  0.00  0.00    +0.000 A 
ATOM     12  C   UNL     1     111.033 125.781 136.245  0.00  0.00    +0.000 A 
ATOM     13  C   UNL     1     110.595 125.545 135.587  0.00  0.00    +0.000 A 
ENDROOT
BRANCH  12  14
ATOM     14  C   UNL     1     111.700 125.352 136.472  0.00  0.00    +0.000 A 
ATOM     15  C   UNL     1     111.616 124.669 136.926  0.00  0.00    +0.000 A 
ATOM     16  C   UNL     1     112.451 125.608 136.245  0.00  0.00    +0.000 A 
ATOM     17  C   UNL     1     112.283 124.240 137.153  0.00  0.00    +0.000 A 
ATOM     18  C   UNL     1     113.118 125.179 136.473  0.00  0.00    +0.000 A 
ATOM     19  C   UNL     1     113.034 124.495 136.927  0.00  0.00    +0.000 A 
BRANCH  19  20
ATOM     20  O   UNL     1     113.701 124.066 137.154  0.00  0.00    +0.000 OA
ATOM     21  C   UNL     1     114.416 124.455 137.288  0.00  0.00    +0.000 C 
ENDBRANCH  19  20
ENDBRANCH  12  14
BRANCH   5  22
ATOM     22  O   UNL     1     108.988 128.684 137.103  0.00  0.00    +0.000 OA
BRANCH  22  31
ATOM     23  O   UNL     1     110.013 129.579 136.665  0.00  0.00    +0.000 OA
ATOM     24  O   UNL     1     110.246 130.441 138.974  0.00  0.00    +0.000 OA
ATOM     25  O   UNL     1     111.193 131.048 137.767  0.00  0.00    +0.000 OA
ATOM     26  O   UNL     1     109.143 129.259 138.641  0.00  0.00    +0.000 OA
ATOM     27  C   UNL     1     110.168 130.154 138.204  0.00  0.00    +0.000 C 
ATOM     28  C   UNL     1     110.642 130.457 137.601  0.00  0.00    +0.000 C 
ATOM     29  C   UNL     1     109.617 129.563 138.038  0.00  0.00    +0.000 C 
ATOM     30  C   UNL     1     110.564 130.169 136.831  0.00  0.00    +0.000 C 
ATOM     31  C   UNL     1     109.540 129.276 137.268  0.00  0.00    +0.000 C 
ATOM     32  C   UNL     1     111.038 130.473 136.228  0.00  0.00    +0.000 C 
ENDBRANCH  22  31
ENDBRANCH   5  22
TORSDOF 4
ENDMDL
MODEL 3
REMARK VINA RESULT:      -9.2     10.023     11.418
REMARK  Name = 44258692
REMARK  4 active torsions:
REMARK  status: ('A' for Active; 'I' for Inactive)
REMARK    1  A    between atoms: O_2  and  C_15
REMARK    2  A    between atoms: O_2  and  C_17
REMARK    3  A    between atoms: O_10  and  C_31
REMARK    4  A    between atoms: C_24  and  C_26
REMARK                            x       y       z     vdW  Elec       q    Type
REMARK                         _______ _______ _______ _____ _____    ______ ____
ROOT
ATOM      1  O   UNL     1     111.515 126.481 137.641  0.00  0.00    +0.000 OA
ATOM      2  O   UNL     1     110.088 125.284 134.848  0.00  0.00    +0.000 OA
ATOM      3  O   UNL     1     113.199 125.113 137.870  0.00  0.00    +0.000 OA
ATOM      4  O   UNL     1     112.502 124.521 136.498  0.00  0.00    +0.000 OA
ATOM      5  C   UNL     1     110.092 126.263 135.932  0.00  0.00    +0.000 A 
ATOM      6  C   UNL     1     110.460 126.566 136.646  0.00  0.00    +0.000 A 
ATOM      7  C   UNL     1     110.435 125.582 135.534  0.00  0.00    +0.000 A 
ATOM      8  C   UNL     1     111.166 126.186 136.955  0.00  0.00    +0.000 A 
ATOM      9  C   UNL     1     111.495 125.533 136.573  0.00  0.00    +0.000 A 
ATOM     10  C   UNL     1     111.141 125.214 135.857  0.00  0.00    +0.000 A 
ATOM     11  C   UNL     1     112.172 125.175 136.879  0.00  0.00    +0.000 A 
ATOM     12  C   UNL     1     112.193 126.124 137.947  0.00  0.00    +0.000 A 
ATOM     13  C   UNL     1     112.522 125.471 137.565  0.00  0.00    +0.000 A 
ENDROOT
BRANCH  12  14
ATOM     14  C   UNL     1     112.542 126.420 138.633  0.00  0.00    +0.000 A 
ATOM     15  C   UNL     1     112.209 126.254 139.370  0.00  0.00    +0.000 A 
ATOM     16  C   UNL     1     113.224 126.882 138.582  0.00  0.00    +0.000 A 
ATOM     17  C   UNL     1     112.558 126.550 140.055  0.00  0.00    +0.000 A 
ATOM     18  C   UNL     1     113.573 127.178 139.269  0.00  0.00    +0.000 A 
ATOM     19  C   UNL     1     113.240 127.012 140.005  0.00  0.00    +0.000 A 
BRANCH  19  20
ATOM     20  O   UNL     1     113.589 127.308 140.692  0.00  0.00    +0.000 OA
ATOM     21  C   UNL     1     114.401 127.221 140.813  0.00  0.00    +0.000 C 
ENDBRANCH  19  20
ENDBRANCH  12  14
BRANCH   5  22
ATOM     22  O   UNL     1     109.414 126.623 135.629  0.00  0.00    +0.000 OA
BRANCH  22  31
ATOM     23  O   UNL     1     110.020 127.817 135.131  0.00  0.00    +0.000 OA
ATOM     24  O   UNL     1     108.093 129.137 135.948  0.00  0.00    +0.000 OA
ATOM     25  O   UNL     1     109.342 129.891 135.178  0.00  0.00    +0.000 OA
ATOM     26  O   UNL     1     108.129 127.503 136.174  0.00  0.00    +0.000 OA
ATOM     27  C   UNL     1     108.735 128.697 135.676  0.00  0.00    +0.000 C 
ATOM     28  C   UNL     1     109.360 129.074 135.291  0.00  0.00    +0.000 C 
ATOM     29  C   UNL     1     108.754 127.880 135.788  0.00  0.00    +0.000 C 
ATOM     30  C   UNL     1     110.002 128.634 135.018  0.00  0.00    +0.000 C 
ATOM     31  C   UNL     1     109.396 127.440 135.516  0.00  0.00    +0.000 C 
ATOM     32  C   UNL     1     110.627 129.012 134.633  0.00  0.00    +0.000 C 
ENDBRANCH  22  31
ENDBRANCH   5  22
TORSDOF 4
ENDMDL
MODEL 4
REMARK VINA RESULT:      -9.1      1.177      4.877
REMARK  Name = 44258692
REMARK  4 active torsions:
REMARK  status: ('A' for Active; 'I' for Inactive)
REMARK    1  A    between atoms: O_2  and  C_15
REMARK    2  A    between atoms: O_2  and  C_17
REMARK    3  A    between atoms: O_10  and  C_31
REMARK    4  A    between atoms: C_24  and  C_26
REMARK                            x       y       z     vdW  Elec       q    Type
REMARK                         _______ _______ _______ _____ _____    ______ ____
ROOT
ATOM      1  O   UNL     1     105.424 126.283 144.259  0.00  0.00    +0.000 OA
ATOM      2  O   UNL     1     106.524 124.734 147.026  0.00  0.00    +0.000 OA
ATOM      3  O   UNL     1     106.759 128.008 144.186  0.00  0.00    +0.000 OA
ATOM      4  O   UNL     1     107.303 127.251 145.546  0.00  0.00    +0.000 OA
ATOM      5  C   UNL     1     105.597 124.775 145.898  0.00  0.00    +0.000 A 
ATOM      6  C   UNL     1     105.319 125.174 145.191  0.00  0.00    +0.000 A 
ATOM      7  C   UNL     1     106.250 125.111 146.346  0.00  0.00    +0.000 A 
ATOM      8  C   UNL     1     105.696 125.904 144.939  0.00  0.00    +0.000 A 
ATOM      9  C   UNL     1     106.322 126.226 145.368  0.00  0.00    +0.000 A 
ATOM     10  C   UNL     1     106.615 125.841 146.079  0.00  0.00    +0.000 A 
ATOM     11  C   UNL     1     106.676 126.928 145.117  0.00  0.00    +0.000 A 
ATOM     12  C   UNL     1     105.778 126.985 144.007  0.00  0.00    +0.000 A 
ATOM     13  C   UNL     1     106.405 127.307 144.437  0.00  0.00    +0.000 A 
ENDROOT
BRANCH  12  14
ATOM     14  C   UNL     1     105.506 127.364 143.327  0.00  0.00    +0.000 A 
ATOM     15  C   UNL     1     105.038 128.040 143.391  0.00  0.00    +0.000 A 
ATOM     16  C   UNL     1     105.703 127.066 142.583  0.00  0.00    +0.000 A 
ATOM     17  C   UNL     1     104.767 128.419 142.710  0.00  0.00    +0.000 A 
ATOM     18  C   UNL     1     105.431 127.445 141.902  0.00  0.00    +0.000 A 
ATOM     19  C   UNL     1     104.963 128.121 141.966  0.00  0.00    +0.000 A 
BRANCH  19  20
ATOM     20  O   UNL     1     104.691 128.501 141.285  0.00  0.00    +0.000 OA
ATOM     21  C   UNL     1     103.892 128.696 141.213  0.00  0.00    +0.000 C 
ENDBRANCH  19  20
ENDBRANCH  12  14
BRANCH   5  22
ATOM     22  O   UNL     1     105.241 124.073 146.147  0.00  0.00    +0.000 OA
BRANCH  22  31
ATOM     23  O   UNL     1     104.087 124.624 146.786  0.00  0.00    +0.000 OA
ATOM     24  O   UNL     1     102.683 122.856 145.773  0.00  0.00    +0.000 OA
ATOM     25  O   UNL     1     101.997 123.995 146.750  0.00  0.00    +0.000 OA
ATOM     26  O   UNL     1     104.304 122.895 145.472  0.00  0.00    +0.000 OA
ATOM     27  C   UNL     1     103.151 123.445 146.111  0.00  0.00    +0.000 C 
ATOM     28  C   UNL     1     102.809 124.015 146.599  0.00  0.00    +0.000 C 
ATOM     29  C   UNL     1     103.962 123.465 145.961  0.00  0.00    +0.000 C 
ATOM     30  C   UNL     1     103.277 124.604 146.937  0.00  0.00    +0.000 C 
ATOM     31  C   UNL     1     104.430 124.054 146.298  0.00  0.00    +0.000 C 
ATOM     32  C   UNL     1     102.934 125.174 147.426  0.00  0.00    +0.000 C 
ENDBRANCH  22  31
ENDBRANCH   5  22
TORSDOF 4
ENDMDL
MODEL 5
REMARK VINA RESULT:      -9.0      9.814     13.274
REMARK  Name = 44258692
REMARK  4 active torsions:
REMARK  status: ('A' for Active; 'I' for Inactive)
REMARK    1  A    between atoms: O_2  and  C_15
REMARK    2  A    between atoms: O_2  and  C_17
REMARK    3  A    between atoms: O_10  and  C_31
REMARK    4  A    between atoms: C_24  and  C_26
REMARK                            x       y       z     vdW  Elec       q    Type
REMARK                         _______ _______ _______ _____ _____    ______ ____
ROOT
ATOM      1  O   UNL     1     112.242 127.964 135.435  0.00  0.00    +0.000 OA
ATOM      2  O   UNL     1     109.280 126.442 135.013  0.00  0.00    +0.000 OA
ATOM      3  O   UNL     1     111.754 130.004 134.835  0.00  0.00    +0.000 OA
ATOM      4  O   UNL     1     110.296 129.261 134.626  0.00  0.00    +0.000 OA
ATOM      5  C   UNL     1     110.686 126.360 135.399  0.00  0.00    +0.000 A 
ATOM      6  C   UNL     1     111.442 126.754 135.506  0.00  0.00    +0.000 A 
ATOM      7  C   UNL     1     110.009 126.811 135.118  0.00  0.00    +0.000 A 
ATOM      8  C   UNL     1     111.514 127.591 135.331  0.00  0.00    +0.000 A 
ATOM      9  C   UNL     1     110.865 128.024 135.061  0.00  0.00    +0.000 A 
ATOM     10  C   UNL     1     110.099 127.648 134.948  0.00  0.00    +0.000 A 
ATOM     11  C   UNL     1     110.945 128.828 134.896  0.00  0.00    +0.000 A 
ATOM     12  C   UNL     1     112.323 128.768 135.270  0.00  0.00    +0.000 A 
ATOM     13  C   UNL     1     111.674 129.200 135.000  0.00  0.00    +0.000 A 
ENDROOT
BRANCH  12  14
ATOM     14  C   UNL     1     113.052 129.140 135.374  0.00  0.00    +0.000 A 
ATOM     15  C   UNL     1     113.241 129.481 136.101  0.00  0.00    +0.000 A 
ATOM     16  C   UNL     1     113.592 129.170 134.750  0.00  0.00    +0.000 A 
ATOM     17  C   UNL     1     113.969 129.852 136.205  0.00  0.00    +0.000 A 
ATOM     18  C   UNL     1     114.321 129.543 134.855  0.00  0.00    +0.000 A 
ATOM     19  C   UNL     1     114.509 129.883 135.582  0.00  0.00    +0.000 A 
BRANCH  19  20
ATOM     20  O   UNL     1     115.238 130.255 135.686  0.00  0.00    +0.000 OA
ATOM     21  C   UNL     1     115.444 130.899 135.214  0.00  0.00    +0.000 C 
ENDBRANCH  19  20
ENDBRANCH  12  14
BRANCH   5  22
ATOM     22  O   UNL     1     110.608 125.556 135.565  0.00  0.00    +0.000 OA
BRANCH  22  31
ATOM     23  O   UNL     1     110.663 125.629 136.991  0.00  0.00    +0.000 OA
ATOM     24  O   UNL     1     112.097 123.612 137.039  0.00  0.00    +0.000 OA
ATOM     25  O   UNL     1     111.674 124.357 138.449  0.00  0.00    +0.000 OA
ATOM     26  O   UNL     1     111.564 124.211 135.597  0.00  0.00    +0.000 OA
ATOM     27  C   UNL     1     111.619 124.284 137.023  0.00  0.00    +0.000 C 
ATOM     28  C   UNL     1     111.407 124.657 137.728  0.00  0.00    +0.000 C 
ATOM     29  C   UNL     1     111.352 124.584 136.303  0.00  0.00    +0.000 C 
ATOM     30  C   UNL     1     110.929 125.329 137.712  0.00  0.00    +0.000 C 
ATOM     31  C   UNL     1     110.874 125.256 136.287  0.00  0.00    +0.000 C 
ATOM     32  C   UNL     1     110.718 125.702 138.417  0.00  0.00    +0.000 C 
ENDBRANCH  22  31
ENDBRANCH   5  22
TORSDOF 4
ENDMDL
MODEL 6
REMARK VINA RESULT:      -9.0      2.240      5.631
REMARK  Name = 44258692
REMARK  4 active torsions:
REMARK  status: ('A' for Active; 'I' for Inactive)
REMARK    1  A    between atoms: O_2  and  C_15
REMARK    2  A    between atoms: O_2  and  C_17
REMARK    3  A    between atoms: O_10  and  C_31
REMARK    4  A    between atoms: C_24  and  C_26
REMARK                            x       y       z     vdW  Elec       q    Type
REMARK                         _______ _______ _______ _____ _____    ______ ____
ROOT
ATOM      1  O   UNL     1     105.043 127.954 142.493  0.00  0.00    +0.000 OA
ATOM      2  O   UNL     1     107.845 126.107 142.528  0.00  0.00    +0.000 OA
ATOM      3  O   UNL     1     105.718 129.719 141.402  0.00  0.00    +0.000 OA
ATOM      4  O   UNL     1     107.097 128.815 141.416  0.00  0.00    +0.000 OA
ATOM      5  C   UNL     1     106.440 126.257 142.896  0.00  0.00    +0.000 A 
ATOM      6  C   UNL     1     105.725 126.733 142.885  0.00  0.00    +0.000 A 
ATOM      7  C   UNL     1     107.154 126.556 142.522  0.00  0.00    +0.000 A 
ATOM      8  C   UNL     1     105.732 127.502 142.501  0.00  0.00    +0.000 A 
ATOM      9  C   UNL     1     106.417 127.788 142.142  0.00  0.00    +0.000 A 
ATOM     10  C   UNL     1     107.142 127.327 142.142  0.00  0.00    +0.000 A 
ATOM     11  C   UNL     1     106.412 128.528 141.776  0.00  0.00    +0.000 A 
ATOM     12  C   UNL     1     105.037 128.693 142.127  0.00  0.00    +0.000 A 
ATOM     13  C   UNL     1     105.722 128.980 141.768  0.00  0.00    +0.000 A 
ENDROOT
BRANCH  12  14
ATOM     14  C   UNL     1     104.347 129.146 142.120  0.00  0.00    +0.000 A 
ATOM     15  C   UNL     1     104.167 129.634 142.760  0.00  0.00    +0.000 A 
ATOM     16  C   UNL     1     103.838 129.110 141.472  0.00  0.00    +0.000 A 
ATOM     17  C   UNL     1     103.477 130.086 142.752  0.00  0.00    +0.000 A 
ATOM     18  C   UNL     1     103.148 129.562 141.464  0.00  0.00    +0.000 A 
ATOM     19  C   UNL     1     102.968 130.050 142.105  0.00  0.00    +0.000 A 
BRANCH  19  20
ATOM     20  O   UNL     1     102.278 130.503 142.097  0.00  0.00    +0.000 OA
ATOM     21  C   UNL     1     102.237 131.186 141.637  0.00  0.00    +0.000 C 
ENDBRANCH  19  20
ENDBRANCH  12  14
BRANCH   5  22
ATOM     22  O   UNL     1     106.442 125.518 143.263  0.00  0.00    +0.000 OA
BRANCH  22  31
ATOM     23  O   UNL     1     106.522 125.935 144.628  0.00  0.00    +0.000 OA
ATOM     24  O   UNL     1     104.810 124.256 145.242  0.00  0.00    +0.000 OA
ATOM     25  O   UNL     1     105.461 125.233 146.401  0.00  0.00    +0.000 OA
ATOM     26  O   UNL     1     105.301 124.399 143.672  0.00  0.00    +0.000 OA
ATOM     27  C   UNL     1     105.381 124.816 145.037  0.00  0.00    +0.000 C 
ATOM     28  C   UNL     1     105.707 125.305 145.616  0.00  0.00    +0.000 C 
ATOM     29  C   UNL     1     105.626 124.888 144.253  0.00  0.00    +0.000 C 
ATOM     30  C   UNL     1     106.277 125.864 145.412  0.00  0.00    +0.000 C 
ATOM     31  C   UNL     1     106.197 125.447 144.048  0.00  0.00    +0.000 C 
ATOM     32  C   UNL     1     106.602 126.352 145.992  0.00  0.00    +0.000 C 
ENDBRANCH  22  31
ENDBRANCH   5  22
TORSDOF 4
ENDMDL
MODEL 7
REMARK VINA RESULT:      -9.0      1.530      1.781
REMARK  Name = 44258692
REMARK  4 active torsions:
REMARK  status: ('A' for Active; 'I' for Inactive)
REMARK    1  A    between atoms: O_2  and  C_15
REMARK    2  A    between atoms: O_2  and  C_17
REMARK    3  A    between atoms: O_10  and  C_31
REMARK    4  A    between atoms: C_24  and  C_26
REMARK                            x       y       z     vdW  Elec       q    Type
REMARK                         _______ _______ _______ _____ _____    ______ ____
ROOT
ATOM      1  O   UNL     1     104.484 124.887 147.317  0.00  0.00    +0.000 OA
ATOM      2  O   UNL     1     107.765 125.345 146.778  0.00  0.00    +0.000 OA
ATOM      3  O   UNL     1     104.430 124.762 149.495  0.00  0.00    +0.000 OA
ATOM      4  O   UNL     1     106.043 124.987 149.235  0.00  0.00    +0.000 OA
ATOM      5  C   UNL     1     106.416 125.199 146.238  0.00  0.00    +0.000 A 
ATOM      6  C   UNL     1     105.577 125.081 146.381  0.00  0.00    +0.000 A 
ATOM      7  C   UNL     1     106.958 125.233 146.905  0.00  0.00    +0.000 A 
ATOM      8  C   UNL     1     105.290 125.000 147.186  0.00  0.00    +0.000 A 
ATOM      9  C   UNL     1     105.810 125.033 147.825  0.00  0.00    +0.000 A 
ATOM     10  C   UNL     1     106.653 125.150 147.704  0.00  0.00    +0.000 A 
ATOM     11  C   UNL     1     105.523 124.954 148.595  0.00  0.00    +0.000 A 
ATOM     12  C   UNL     1     104.196 124.808 148.086  0.00  0.00    +0.000 A 
ATOM     13  C   UNL     1     104.716 124.841 148.725  0.00  0.00    +0.000 A 
ENDROOT
BRANCH  12  14
ATOM     14  C   UNL     1     103.389 124.696 148.216  0.00  0.00    +0.000 A 
ATOM     15  C   UNL     1     102.893 125.347 148.318  0.00  0.00    +0.000 A 
ATOM     16  C   UNL     1     103.079 123.931 148.244  0.00  0.00    +0.000 A 
ATOM     17  C   UNL     1     102.087 125.233 148.448  0.00  0.00    +0.000 A 
ATOM     18  C   UNL     1     102.272 123.819 148.374  0.00  0.00    +0.000 A 
ATOM     19  C   UNL     1     101.776 124.470 148.476  0.00  0.00    +0.000 A 
BRANCH  19  20
ATOM     20  O   UNL     1     100.969 124.357 148.606  0.00  0.00    +0.000 OA
ATOM     21  C   UNL     1     100.712 123.755 149.108  0.00  0.00    +0.000 C 
ENDBRANCH  19  20
ENDBRANCH  12  14
BRANCH   5  22
ATOM     22  O   UNL     1     106.700 125.278 145.468  0.00  0.00    +0.000 OA
BRANCH  22  31
ATOM     23  O   UNL     1     106.194 126.584 145.185  0.00  0.00    +0.000 OA
ATOM     24  O   UNL     1     105.548 125.842 142.914  0.00  0.00    +0.000 OA
ATOM     25  O   UNL     1     105.258 127.396 143.388  0.00  0.00    +0.000 OA
ATOM     26  O   UNL     1     106.269 124.783 143.953  0.00  0.00    +0.000 OA
ATOM     27  C   UNL     1     105.763 126.090 143.671  0.00  0.00    +0.000 C 
ATOM     28  C   UNL     1     105.619 126.866 143.908  0.00  0.00    +0.000 C 
ATOM     29  C   UNL     1     106.124 125.561 144.191  0.00  0.00    +0.000 C 
ATOM     30  C   UNL     1     105.834 127.113 144.666  0.00  0.00    +0.000 C 
ATOM     31  C   UNL     1     106.339 125.808 144.948  0.00  0.00    +0.000 C 
ATOM     32  C   UNL     1     105.689 127.890 144.902  0.00  0.00    +0.000 C 
ENDBRANCH  22  31
ENDBRANCH   5  22
TORSDOF 4
ENDMDL
MODEL 8
REMARK VINA RESULT:      -8.9      9.927     12.619
REMARK  Name = 44258692
REMARK  4 active torsions:
REMARK  status: ('A' for Active; 'I' for Inactive)
REMARK    1  A    between atoms: O_2  and  C_15
REMARK    2  A    between atoms: O_2  and  C_17
REMARK    3  A    between atoms: O_10  and  C_31
REMARK    4  A    between atoms: C_24  and  C_26
REMARK                            x       y       z     vdW  Elec       q    Type
REMARK                         _______ _______ _______ _____ _____    ______ ____
ROOT
ATOM      1  O   UNL     1     112.302 128.743 137.003  0.00  0.00    +0.000 OA
ATOM      2  O   UNL     1     109.254 127.700 137.944  0.00  0.00    +0.000 OA
ATOM      3  O   UNL     1     111.881 130.808 136.435  0.00  0.00    +0.000 OA
ATOM      4  O   UNL     1     110.381 130.300 136.896  0.00  0.00    +0.000 OA
ATOM      5  C   UNL     1     110.672 127.410 137.751  0.00  0.00    +0.000 A 
ATOM      6  C   UNL     1     111.450 127.681 137.509  0.00  0.00    +0.000 A 
ATOM      7  C   UNL     1     110.004 127.951 137.714  0.00  0.00    +0.000 A 
ATOM      8  C   UNL     1     111.553 128.488 137.233  0.00  0.00    +0.000 A 
ATOM      9  C   UNL     1     110.912 129.007 137.198  0.00  0.00    +0.000 A 
ATOM     10  C   UNL     1     110.125 128.755 137.436  0.00  0.00    +0.000 A 
ATOM     11  C   UNL     1     111.022 129.780 136.932  0.00  0.00    +0.000 A 
ATOM     12  C   UNL     1     112.412 129.516 136.736  0.00  0.00    +0.000 A 
ATOM     13  C   UNL     1     111.772 130.035 136.701  0.00  0.00    +0.000 A 
ENDROOT
BRANCH  12  14
ATOM     14  C   UNL     1     113.162 129.771 136.505  0.00  0.00    +0.000 A 
ATOM     15  C   UNL     1     113.435 129.613 135.743  0.00  0.00    +0.000 A 
ATOM     16  C   UNL     1     113.640 130.182 137.038  0.00  0.00    +0.000 A 
ATOM     17  C   UNL     1     114.184 129.868 135.513  0.00  0.00    +0.000 A 
ATOM     18  C   UNL     1     114.390 130.437 136.807  0.00  0.00    +0.000 A 
ATOM     19  C   UNL     1     114.662 130.280 136.044  0.00  0.00    +0.000 A 
BRANCH  19  20
ATOM     20  O   UNL     1     115.412 130.534 135.813  0.00  0.00    +0.000 OA
ATOM     21  C   UNL     1     115.501 130.994 135.134  0.00  0.00    +0.000 C 
ENDBRANCH  19  20
ENDBRANCH  12  14
BRANCH   5  22
ATOM     22  O   UNL     1     110.565 126.636 138.016  0.00  0.00    +0.000 OA
BRANCH  22  31
ATOM     23  O   UNL     1     110.639 125.996 136.741  0.00  0.00    +0.000 OA
ATOM     24  O   UNL     1     111.881 124.112 137.758  0.00  0.00    +0.000 OA
ATOM     25  O   UNL     1     111.540 124.100 136.144  0.00  0.00    +0.000 OA
ATOM     26  O   UNL     1     111.393 125.380 138.695  0.00  0.00    +0.000 OA
ATOM     27  C   UNL     1     111.467 124.740 137.419  0.00  0.00    +0.000 C 
ATOM     28  C   UNL     1     111.296 124.735 136.612  0.00  0.00    +0.000 C 
ATOM     29  C   UNL     1     111.223 125.374 137.887  0.00  0.00    +0.000 C 
ATOM     30  C   UNL     1     110.882 125.363 136.273  0.00  0.00    +0.000 C 
ATOM     31  C   UNL     1     110.809 126.002 137.548  0.00  0.00    +0.000 C 
ATOM     32  C   UNL     1     110.713 125.356 135.466  0.00  0.00    +0.000 C 
ENDBRANCH  22  31
ENDBRANCH   5  22
TORSDOF 4
ENDMDL
MODEL 9
REMARK VINA RESULT:      -8.8     11.189     12.619
REMARK  Name = 44258692
REMARK  4 active torsions:
REMARK  status: ('A' for Active; 'I' for Inactive)
REMARK    1  A    between atoms: O_2  and  C_15
REMARK    2  A    between atoms: O_2  and  C_17
REMARK    3  A    between atoms: O_10  and  C_31
REMARK    4  A    between atoms: C_24  and  C_26
REMARK                            x       y       z     vdW  Elec       q    Type
REMARK                         _______ _______ _______ _____ _____    ______ ____
ROOT
ATOM      1  O   UNL     1     111.807 126.940 136.251  0.00  0.00    +0.000 OA
ATOM      2  O   UNL     1     110.714 129.840 134.961  0.00  0.00    +0.000 OA
ATOM      3  O   UNL     1     110.494 125.514 135.249  0.00  0.00    +0.000 OA
ATOM      4  O   UNL     1     109.953 126.936 134.612  0.00  0.00    +0.000 OA
ATOM      5  C   UNL     1     111.631 129.132 135.850  0.00  0.00    +0.000 A 
ATOM      6  C   UNL     1     111.907 128.387 136.178  0.00  0.00    +0.000 A 
ATOM      7  C   UNL     1     110.986 129.130 135.281  0.00  0.00    +0.000 A 
ATOM      8  C   UNL     1     111.537 127.651 135.933  0.00  0.00    +0.000 A 
ATOM      9  C   UNL     1     110.919 127.651 135.387  0.00  0.00    +0.000 A 
ATOM     10  C   UNL     1     110.628 128.385 135.047  0.00  0.00    +0.000 A 
ATOM     11  C   UNL     1     110.571 126.938 135.159  0.00  0.00    +0.000 A 
ATOM     12  C   UNL     1     111.460 126.227 136.023  0.00  0.00    +0.000 A 
ATOM     13  C   UNL     1     110.842 126.226 135.477  0.00  0.00    +0.000 A 
ENDROOT
BRANCH  12  14
ATOM     14  C   UNL     1     111.730 125.516 136.342  0.00  0.00    +0.000 A 
ATOM     15  C   UNL     1     112.444 125.193 136.083  0.00  0.00    +0.000 A 
ATOM     16  C   UNL     1     111.285 125.127 136.918  0.00  0.00    +0.000 A 
ATOM     17  C   UNL     1     112.714 124.482 136.402  0.00  0.00    +0.000 A 
ATOM     18  C   UNL     1     111.556 124.415 137.236  0.00  0.00    +0.000 A 
ATOM     19  C   UNL     1     112.270 124.093 136.978  0.00  0.00    +0.000 A 
BRANCH  19  20
ATOM     20  O   UNL     1     112.540 123.381 137.297  0.00  0.00    +0.000 OA
ATOM     21  C   UNL     1     112.023 122.744 137.382  0.00  0.00    +0.000 C 
ENDBRANCH  19  20
ENDBRANCH  12  14
BRANCH   5  22
ATOM     22  O   UNL     1     111.980 129.843 136.080  0.00  0.00    +0.000 OA
BRANCH  22  31
ATOM     23  O   UNL     1     113.200 129.718 135.346  0.00  0.00    +0.000 OA
ATOM     24  O   UNL     1     114.453 130.634 137.273  0.00  0.00    +0.000 OA
ATOM     25  O   UNL     1     115.255 130.204 135.897  0.00  0.00    +0.000 OA
ATOM     26  O   UNL     1     112.816 130.454 137.365  0.00  0.00    +0.000 OA
ATOM     27  C   UNL     1     114.036 130.329 136.631  0.00  0.00    +0.000 C 
ATOM     28  C   UNL     1     114.436 130.114 135.943  0.00  0.00    +0.000 C 
ATOM     29  C   UNL     1     113.217 130.238 136.676  0.00  0.00    +0.000 C 
ATOM     30  C   UNL     1     114.018 129.808 135.300  0.00  0.00    +0.000 C 
ATOM     31  C   UNL     1     112.799 129.933 136.034  0.00  0.00    +0.000 C 
ATOM     32  C   UNL     1     114.420 129.593 134.612  0.00  0.00    +0.000 C 
ENDBRANCH  22  31
ENDBRANCH   5  22
TORSDOF 4
ENDMDL
MODEL 10
REMARK VINA RESULT:      -8.8     10.541     11.849
REMARK  Name = 44258692
REMARK  4 active torsions:
REMARK  status: ('A' for Active; 'I' for Inactive)
REMARK    1  A    between atoms: O_2  and  C_15
REMARK    2  A    between atoms: O_2  and  C_17
REMARK    3  A    between atoms: O_10  and  C_31
REMARK    4  A    between atoms: C_24  and  C_26
REMARK                            x       y       z     vdW  Elec       q    Type
REMARK                         _______ _______ _______ _____ _____    ______ ____
ROOT
ATOM      1  O   UNL     1     112.848 128.125 138.293  0.00  0.00    +0.000 OA
ATOM      2  O   UNL     1     113.989 126.957 141.226  0.00  0.00    +0.000 OA
ATOM      3  O   UNL     1     113.215 126.415 136.989  0.00  0.00    +0.000 OA
ATOM      4  O   UNL     1     113.777 125.836 138.428  0.00  0.00    +0.000 OA
ATOM      5  C   UNL     1     113.385 128.044 140.461  0.00  0.00    +0.000 A 
ATOM      6  C   UNL     1     113.094 128.339 139.709  0.00  0.00    +0.000 A 
ATOM      7  C   UNL     1     113.707 127.248 140.508  0.00  0.00    +0.000 A 
ATOM      8  C   UNL     1     113.129 127.837 139.013  0.00  0.00    +0.000 A 
ATOM      9  C   UNL     1     113.438 127.074 139.058  0.00  0.00    +0.000 A 
ATOM     10  C   UNL     1     113.734 126.760 139.802  0.00  0.00    +0.000 A 
ATOM     11  C   UNL     1     113.467 126.599 138.383  0.00  0.00    +0.000 A 
ATOM     12  C   UNL     1     112.877 127.652 137.618  0.00  0.00    +0.000 A 
ATOM     13  C   UNL     1     113.186 126.889 137.663  0.00  0.00    +0.000 A 
ENDROOT
BRANCH  12  14
ATOM     14  C   UNL     1     112.596 127.941 136.898  0.00  0.00    +0.000 A 
ATOM     15  C   UNL     1     113.102 128.351 136.393  0.00  0.00    +0.000 A 
ATOM     16  C   UNL     1     111.807 127.820 136.685  0.00  0.00    +0.000 A 
ATOM     17  C   UNL     1     112.821 128.640 135.673  0.00  0.00    +0.000 A 
ATOM     18  C   UNL     1     111.527 128.109 135.965  0.00  0.00    +0.000 A 
ATOM     19  C   UNL     1     112.033 128.519 135.459  0.00  0.00    +0.000 A 
BRANCH  19  20
ATOM     20  O   UNL     1     111.752 128.809 134.739  0.00  0.00    +0.000 OA
ATOM     21  C   UNL     1     111.078 129.283 134.721  0.00  0.00    +0.000 C 
ENDBRANCH  19  20
ENDBRANCH  12  14
BRANCH   5  22
ATOM     22  O   UNL     1     113.355 128.521 141.134  0.00  0.00    +0.000 OA
BRANCH  22  31
ATOM     23  O   UNL     1     114.425 129.395 140.772  0.00  0.00    +0.000 OA
ATOM     24  O   UNL     1     113.205 131.302 141.773  0.00  0.00    +0.000 OA
ATOM     25  O   UNL     1     114.682 131.541 141.077  0.00  0.00    +0.000 OA
ATOM     26  O   UNL     1     112.541 129.792 141.801  0.00  0.00    +0.000 OA
ATOM     27  C   UNL     1     113.612 130.667 141.439  0.00  0.00    +0.000 C 
ATOM     28  C   UNL     1     114.350 130.786 141.091  0.00  0.00    +0.000 C 
ATOM     29  C   UNL     1     113.280 129.911 141.453  0.00  0.00    +0.000 C 
ATOM     30  C   UNL     1     114.757 130.150 140.758  0.00  0.00    +0.000 C 
ATOM     31  C   UNL     1     113.687 129.276 141.120  0.00  0.00    +0.000 C 
ATOM     32  C   UNL     1     115.495 130.270 140.410  0.00  0.00    +0.000 C 
ENDBRANCH  22  31
ENDBRANCH   5  22
TORSDOF 4
ENDMDL
