MODEL 1
REMARK VINA RESULT:      -9.5      0.000      0.000
REMARK  Name = 44259847
REMARK  7 active torsions:
REMARK  status: ('A' for Active; 'I' for Inactive)
REMARK    1  A    between atoms: O_2  and  C_19
REMARK    2  A    between atoms: O_2  and  C_21
REMARK    3  A    between atoms: O_6  and  C_20
REMARK    4  A    between atoms: O_6  and  C_22
REMARK    5  A    between atoms: C_17  and  C_20
REMARK    6  A    between atoms: C_22  and  C_25
REMARK    7  A    between atoms: C_32  and  C_34
REMARK                            x       y       z     vdW  Elec       q    Type
REMARK                         _______ _______ _______ _____ _____    ______ ____
ROOT
ATOM      1  O   UNL     1     111.142 126.654 137.926  0.00  0.00    +0.000 OA
ATOM      2  O   UNL     1     109.812 125.748 134.979  0.00  0.00    +0.000 OA
ATOM      3  O   UNL     1     110.959 124.769 135.743  0.00  0.00    +0.000 OA
ATOM      4  O   UNL     1     111.844 124.534 136.858  0.00  0.00    +0.000 OA
ATOM      5  O   UNL     1     112.494 124.983 138.306  0.00  0.00    +0.000 OA
ATOM      6  C   UNL     1     109.892 126.711 136.074  0.00  0.00    +0.000 A 
ATOM      7  C   UNL     1     110.235 126.939 136.828  0.00  0.00    +0.000 A 
ATOM      8  C   UNL     1     110.136 125.975 135.703  0.00  0.00    +0.000 A 
ATOM      9  C   UNL     1     110.816 126.429 137.201  0.00  0.00    +0.000 A 
ATOM     10  C   UNL     1     111.050 125.723 136.846  0.00  0.00    +0.000 A 
ATOM     11  C   UNL     1     110.719 125.477 136.091  0.00  0.00    +0.000 A 
ATOM     12  C   UNL     1     111.609 125.241 137.213  0.00  0.00    +0.000 A 
ATOM     13  C   UNL     1     111.701 126.172 138.294  0.00  0.00    +0.000 A 
ATOM     14  C   UNL     1     111.935 125.465 137.938  0.00  0.00    +0.000 A 
ENDROOT
BRANCH  13  17
ATOM     15  O   UNL     1     111.533 126.321 141.142  0.00  0.00    +0.000 OA
ATOM     16  O   UNL     1     113.003 127.069 141.190  0.00  0.00    +0.000 OA
ATOM     17  C   UNL     1     112.027 126.396 139.018  0.00  0.00    +0.000 A 
ATOM     18  C   UNL     1     111.617 126.246 139.718  0.00  0.00    +0.000 A 
ATOM     19  C   UNL     1     112.762 126.770 139.042  0.00  0.00    +0.000 A 
ATOM     20  C   UNL     1     111.942 126.470 140.443  0.00  0.00    +0.000 A 
ATOM     21  C   UNL     1     113.087 126.994 139.766  0.00  0.00    +0.000 A 
ATOM     22  C   UNL     1     112.677 126.844 140.466  0.00  0.00    +0.000 A 
ENDBRANCH  13  17
BRANCH   6  23
ATOM     23  O   UNL     1     109.333 127.195 135.708  0.00  0.00    +0.000 OA
BRANCH  23  32
ATOM     24  O   UNL     1     110.263 128.234 135.397  0.00  0.00    +0.000 OA
ATOM     25  O   UNL     1     109.988 130.392 135.215  0.00  0.00    +0.000 OA
ATOM     26  O   UNL     1     108.455 129.913 135.592  0.00  0.00    +0.000 OA
ATOM     27  O   UNL     1     108.127 128.314 135.838  0.00  0.00    +0.000 OA
ATOM     28  C   UNL     1     109.825 129.593 135.338  0.00  0.00    +0.000 C 
ATOM     29  C   UNL     1     109.058 129.353 135.527  0.00  0.00    +0.000 C 
ATOM     30  C   UNL     1     110.428 129.033 135.273  0.00  0.00    +0.000 C 
ATOM     31  C   UNL     1     108.894 128.554 135.650  0.00  0.00    +0.000 C 
ATOM     32  C   UNL     1     109.497 127.994 135.585  0.00  0.00    +0.000 C 
BRANCH  30  33
ATOM     33  C   UNL     1     111.194 129.273 135.085  0.00  0.00    +0.000 C 
BRANCH  33  34
ATOM     34  O   UNL     1     111.806 129.162 135.626  0.00  0.00    +0.000 OA
BRANCH  34  36
ATOM     35  O   UNL     1     112.766 129.468 134.614  0.00  0.00    +0.000 OA
ATOM     36  C   UNL     1     112.591 129.215 135.379  0.00  0.00    +0.000 C 
BRANCH  36  37
ATOM     37  C   UNL     1     113.202 129.014 135.896  0.00  0.00    +0.000 C 
ATOM     38  C   UNL     1     113.343 129.472 136.566  0.00  0.00    +0.000 C 
ATOM     39  C   UNL     1     113.672 128.354 135.742  0.00  0.00    +0.000 C 
ENDBRANCH  36  37
ENDBRANCH  34  36
ENDBRANCH  33  34
ENDBRANCH  30  33
ENDBRANCH  23  32
ENDBRANCH   6  23
TORSDOF 7
ENDMDL
MODEL 2
REMARK VINA RESULT:      -9.3      7.174      9.877
REMARK  Name = 44259847
REMARK  7 active torsions:
REMARK  status: ('A' for Active; 'I' for Inactive)
REMARK    1  A    between atoms: O_2  and  C_19
REMARK    2  A    between atoms: O_2  and  C_21
REMARK    3  A    between atoms: O_6  and  C_20
REMARK    4  A    between atoms: O_6  and  C_22
REMARK    5  A    between atoms: C_17  and  C_20
REMARK    6  A    between atoms: C_22  and  C_25
REMARK    7  A    between atoms: C_32  and  C_34
REMARK                            x       y       z     vdW  Elec       q    Type
REMARK                         _______ _______ _______ _____ _____    ______ ____
ROOT
ATOM      1  O   UNL     1     104.987 127.839 142.442  0.00  0.00    +0.000 OA
ATOM      2  O   UNL     1     107.734 125.910 142.486  0.00  0.00    +0.000 OA
ATOM      3  O   UNL     1     107.779 127.454 141.801  0.00  0.00    +0.000 OA
ATOM      4  O   UNL     1     107.099 128.681 141.464  0.00  0.00    +0.000 OA
ATOM      5  O   UNL     1     105.746 129.625 141.445  0.00  0.00    +0.000 OA
ATOM      6  C   UNL     1     106.323 126.087 142.818  0.00  0.00    +0.000 A 
ATOM      7  C   UNL     1     105.623 126.584 142.804  0.00  0.00    +0.000 A 
ATOM      8  C   UNL     1     107.057 126.380 142.478  0.00  0.00    +0.000 A 
ATOM      9  C   UNL     1     105.664 127.366 142.452  0.00  0.00    +0.000 A 
ATOM     10  C   UNL     1     106.367 127.647 142.126  0.00  0.00    +0.000 A 
ATOM     11  C   UNL     1     107.079 127.165 142.130  0.00  0.00    +0.000 A 
ATOM     12  C   UNL     1     106.395 128.400 141.790  0.00  0.00    +0.000 A 
ATOM     13  C   UNL     1     105.015 128.592 142.107  0.00  0.00    +0.000 A 
ATOM     14  C   UNL     1     105.719 128.872 141.781  0.00  0.00    +0.000 A 
ENDROOT
BRANCH  13  17
ATOM     15  O   UNL     1     102.639 129.484 140.794  0.00  0.00    +0.000 OA
ATOM     16  O   UNL     1     102.310 130.481 142.067  0.00  0.00    +0.000 OA
ATOM     17  C   UNL     1     104.338 129.064 142.097  0.00  0.00    +0.000 A 
ATOM     18  C   UNL     1     103.827 129.038 141.450  0.00  0.00    +0.000 A 
ATOM     19  C   UNL     1     104.174 129.563 142.733  0.00  0.00    +0.000 A 
ATOM     20  C   UNL     1     103.150 129.510 141.440  0.00  0.00    +0.000 A 
ATOM     21  C   UNL     1     103.498 130.035 142.723  0.00  0.00    +0.000 A 
ATOM     22  C   UNL     1     102.986 130.009 142.076  0.00  0.00    +0.000 A 
ENDBRANCH  13  17
BRANCH   6  23
ATOM     23  O   UNL     1     106.293 125.334 143.154  0.00  0.00    +0.000 OA
BRANCH  23  32
ATOM     24  O   UNL     1     106.410 125.737 144.520  0.00  0.00    +0.000 OA
ATOM     25  O   UNL     1     105.442 124.977 146.323  0.00  0.00    +0.000 OA
ATOM     26  O   UNL     1     104.783 123.991 145.175  0.00  0.00    +0.000 OA
ATOM     27  O   UNL     1     105.208 124.170 143.591  0.00  0.00    +0.000 OA
ATOM     28  C   UNL     1     105.655 125.067 145.531  0.00  0.00    +0.000 C 
ATOM     29  C   UNL     1     105.325 124.573 144.957  0.00  0.00    +0.000 C 
ATOM     30  C   UNL     1     106.198 125.649 145.312  0.00  0.00    +0.000 C 
ATOM     31  C   UNL     1     105.538 124.663 144.165  0.00  0.00    +0.000 C 
ATOM     32  C   UNL     1     106.081 125.245 143.947  0.00  0.00    +0.000 C 
BRANCH  30  33
ATOM     33  C   UNL     1     106.527 126.141 145.886  0.00  0.00    +0.000 C 
BRANCH  33  34
ATOM     34  O   UNL     1     106.559 126.956 145.762  0.00  0.00    +0.000 OA
BRANCH  34  36
ATOM     35  O   UNL     1     107.537 127.084 146.795  0.00  0.00    +0.000 OA
ATOM     36  C   UNL     1     107.020 127.431 146.253  0.00  0.00    +0.000 C 
BRANCH  36  37
ATOM     37  C   UNL     1     106.965 128.253 146.204  0.00  0.00    +0.000 C 
ATOM     38  C   UNL     1     106.342 128.648 146.572  0.00  0.00    +0.000 C 
ATOM     39  C   UNL     1     107.535 128.679 145.787  0.00  0.00    +0.000 C 
ENDBRANCH  36  37
ENDBRANCH  34  36
ENDBRANCH  33  34
ENDBRANCH  30  33
ENDBRANCH  23  32
ENDBRANCH   6  23
TORSDOF 7
ENDMDL
MODEL 3
REMARK VINA RESULT:      -9.2      2.030      2.981
REMARK  Name = 44259847
REMARK  7 active torsions:
REMARK  status: ('A' for Active; 'I' for Inactive)
REMARK    1  A    between atoms: O_2  and  C_19
REMARK    2  A    between atoms: O_2  and  C_21
REMARK    3  A    between atoms: O_6  and  C_20
REMARK    4  A    between atoms: O_6  and  C_22
REMARK    5  A    between atoms: C_17  and  C_20
REMARK    6  A    between atoms: C_22  and  C_25
REMARK    7  A    between atoms: C_32  and  C_34
REMARK                            x       y       z     vdW  Elec       q    Type
REMARK                         _______ _______ _______ _____ _____    ______ ____
ROOT
ATOM      1  O   UNL     1     110.839 126.196 136.863  0.00  0.00    +0.000 OA
ATOM      2  O   UNL     1     108.356 128.339 136.147  0.00  0.00    +0.000 OA
ATOM      3  O   UNL     1     108.782 127.121 135.056  0.00  0.00    +0.000 OA
ATOM      4  O   UNL     1     109.618 125.994 134.720  0.00  0.00    +0.000 OA
ATOM      5  O   UNL     1     110.838 124.943 135.076  0.00  0.00    +0.000 OA
ATOM      6  C   UNL     1     109.391 127.886 137.073  0.00  0.00    +0.000 A 
ATOM      7  C   UNL     1     110.025 127.335 137.252  0.00  0.00    +0.000 A 
ATOM      8  C   UNL     1     108.967 127.815 136.328  0.00  0.00    +0.000 A 
ATOM      9  C   UNL     1     110.228 126.722 136.685  0.00  0.00    +0.000 A 
ATOM     10  C   UNL     1     109.821 126.655 135.971  0.00  0.00    +0.000 A 
ATOM     11  C   UNL     1     109.183 127.196 135.773  0.00  0.00    +0.000 A 
ATOM     12  C   UNL     1     110.025 126.062 135.435  0.00  0.00    +0.000 A 
ATOM     13  C   UNL     1     111.042 125.603 136.327  0.00  0.00    +0.000 A 
ATOM     14  C   UNL     1     110.635 125.536 135.612  0.00  0.00    +0.000 A 
ENDROOT
BRANCH  13  17
ATOM     15  O   UNL     1     111.920 123.096 137.378  0.00  0.00    +0.000 OA
ATOM     16  O   UNL     1     113.483 123.500 137.038  0.00  0.00    +0.000 OA
ATOM     17  C   UNL     1     111.653 125.077 136.505  0.00  0.00    +0.000 A 
ATOM     18  C   UNL     1     111.481 124.349 136.853  0.00  0.00    +0.000 A 
ATOM     19  C   UNL     1     112.434 125.280 136.335  0.00  0.00    +0.000 A 
ATOM     20  C   UNL     1     112.091 123.823 137.031  0.00  0.00    +0.000 A 
ATOM     21  C   UNL     1     113.044 124.754 136.513  0.00  0.00    +0.000 A 
ATOM     22  C   UNL     1     112.873 124.026 136.861  0.00  0.00    +0.000 A 
ENDBRANCH  13  17
BRANCH   6  23
ATOM     23  O   UNL     1     109.190 128.478 137.611  0.00  0.00    +0.000 OA
BRANCH  23  32
ATOM     24  O   UNL     1     110.387 129.237 137.432  0.00  0.00    +0.000 OA
ATOM     25  O   UNL     1     111.529 130.456 138.838  0.00  0.00    +0.000 OA
ATOM     26  O   UNL     1     110.304 129.926 139.808  0.00  0.00    +0.000 OA
ATOM     27  O   UNL     1     109.134 128.937 139.195  0.00  0.00    +0.000 OA
ATOM     28  C   UNL     1     110.944 129.961 138.531  0.00  0.00    +0.000 C 
ATOM     29  C   UNL     1     110.332 129.696 139.016  0.00  0.00    +0.000 C 
ATOM     30  C   UNL     1     110.972 129.732 137.739  0.00  0.00    +0.000 C 
ATOM     31  C   UNL     1     109.747 129.202 138.709  0.00  0.00    +0.000 C 
ATOM     32  C   UNL     1     109.775 128.972 137.917  0.00  0.00    +0.000 C 
BRANCH  30  33
ATOM     33  C   UNL     1     111.584 129.997 137.254  0.00  0.00    +0.000 C 
BRANCH  33  34
ATOM     34  O   UNL     1     112.029 129.456 136.817  0.00  0.00    +0.000 OA
BRANCH  34  36
ATOM     35  O   UNL     1     112.681 130.533 136.142  0.00  0.00    +0.000 OA
ATOM     36  C   UNL     1     112.552 129.724 136.239  0.00  0.00    +0.000 C 
BRANCH  36  37
ATOM     37  C   UNL     1     112.946 129.183 135.756  0.00  0.00    +0.000 C 
ATOM     38  C   UNL     1     112.668 129.027 134.996  0.00  0.00    +0.000 C 
ATOM     39  C   UNL     1     113.620 128.797 136.035  0.00  0.00    +0.000 C 
ENDBRANCH  36  37
ENDBRANCH  34  36
ENDBRANCH  33  34
ENDBRANCH  30  33
ENDBRANCH  23  32
ENDBRANCH   6  23
TORSDOF 7
ENDMDL
MODEL 4
REMARK VINA RESULT:      -9.2      2.002      4.377
REMARK  Name = 44259847
REMARK  7 active torsions:
REMARK  status: ('A' for Active; 'I' for Inactive)
REMARK    1  A    between atoms: O_2  and  C_19
REMARK    2  A    between atoms: O_2  and  C_21
REMARK    3  A    between atoms: O_6  and  C_20
REMARK    4  A    between atoms: O_6  and  C_22
REMARK    5  A    between atoms: C_17  and  C_20
REMARK    6  A    between atoms: C_22  and  C_25
REMARK    7  A    between atoms: C_32  and  C_34
REMARK                            x       y       z     vdW  Elec       q    Type
REMARK                         _______ _______ _______ _____ _____    ______ ____
ROOT
ATOM      1  O   UNL     1     112.336 128.710 137.954  0.00  0.00    +0.000 OA
ATOM      2  O   UNL     1     111.262 126.088 139.755  0.00  0.00    +0.000 OA
ATOM      3  O   UNL     1     112.462 127.113 140.360  0.00  0.00    +0.000 OA
ATOM      4  O   UNL     1     113.307 128.270 140.188  0.00  0.00    +0.000 OA
ATOM      5  O   UNL     1     113.832 129.556 139.299  0.00  0.00    +0.000 OA
ATOM      6  C   UNL     1     111.185 126.884 138.533  0.00  0.00    +0.000 A 
ATOM      7  C   UNL     1     111.463 127.556 138.076  0.00  0.00    +0.000 A 
ATOM      8  C   UNL     1     111.522 126.731 139.309  0.00  0.00    +0.000 A 
ATOM      9  C   UNL     1     112.074 128.065 138.399  0.00  0.00    +0.000 A 
ATOM     10  C   UNL     1     112.397 127.919 139.143  0.00  0.00    +0.000 A 
ATOM     11  C   UNL     1     112.132 127.252 139.616  0.00  0.00    +0.000 A 
ATOM     12  C   UNL     1     112.983 128.416 139.443  0.00  0.00    +0.000 A 
ATOM     13  C   UNL     1     112.923 129.207 138.254  0.00  0.00    +0.000 A 
ATOM     14  C   UNL     1     113.246 129.060 138.999  0.00  0.00    +0.000 A 
ENDROOT
BRANCH  13  17
ATOM     15  O   UNL     1     114.676 130.300 136.282  0.00  0.00    +0.000 OA
ATOM     16  O   UNL     1     113.974 131.780 136.477  0.00  0.00    +0.000 OA
ATOM     17  C   UNL     1     113.185 129.850 137.810  0.00  0.00    +0.000 A 
ATOM     18  C   UNL     1     113.800 129.753 137.267  0.00  0.00    +0.000 A 
ATOM     19  C   UNL     1     112.834 130.590 137.908  0.00  0.00    +0.000 A 
ATOM     20  C   UNL     1     114.063 130.397 136.823  0.00  0.00    +0.000 A 
ATOM     21  C   UNL     1     113.097 131.233 137.463  0.00  0.00    +0.000 A 
ATOM     22  C   UNL     1     113.711 131.137 136.921  0.00  0.00    +0.000 A 
ENDBRANCH  13  17
BRANCH   6  23
ATOM     23  O   UNL     1     110.598 126.388 138.230  0.00  0.00    +0.000 OA
BRANCH  23  32
ATOM     24  O   UNL     1     111.382 125.621 137.315  0.00  0.00    +0.000 OA
ATOM     25  O   UNL     1     110.982 125.003 135.260  0.00  0.00    +0.000 OA
ATOM     26  O   UNL     1     109.606 125.845 135.606  0.00  0.00    +0.000 OA
ATOM     27  O   UNL     1     109.414 126.538 137.091  0.00  0.00    +0.000 OA
ATOM     28  C   UNL     1     110.887 125.349 136.003  0.00  0.00    +0.000 C 
ATOM     29  C   UNL     1     110.198 125.770 136.175  0.00  0.00    +0.000 C 
ATOM     30  C   UNL     1     111.479 125.274 136.572  0.00  0.00    +0.000 C 
ATOM     31  C   UNL     1     110.103 126.116 136.918  0.00  0.00    +0.000 C 
ATOM     32  C   UNL     1     110.695 126.042 137.488  0.00  0.00    +0.000 C 
BRANCH  30  33
ATOM     33  C   UNL     1     112.166 124.853 136.399  0.00  0.00    +0.000 C 
BRANCH  33  34
ATOM     34  O   UNL     1     112.904 125.172 136.585  0.00  0.00    +0.000 OA
BRANCH  34  36
ATOM     35  O   UNL     1     113.503 123.886 136.422  0.00  0.00    +0.000 OA
ATOM     36  C   UNL     1     113.572 124.689 136.597  0.00  0.00    +0.000 C 
BRANCH  36  37
ATOM     37  C   UNL     1     114.310 125.008 136.784  0.00  0.00    +0.000 C 
ATOM     38  C   UNL     1     114.778 125.338 136.192  0.00  0.00    +0.000 C 
ATOM     39  C   UNL     1     114.579 124.996 137.564  0.00  0.00    +0.000 C 
ENDBRANCH  36  37
ENDBRANCH  34  36
ENDBRANCH  33  34
ENDBRANCH  30  33
ENDBRANCH  23  32
ENDBRANCH   6  23
TORSDOF 7
ENDMDL
MODEL 5
REMARK VINA RESULT:      -9.1      1.337      5.296
REMARK  Name = 44259847
REMARK  7 active torsions:
REMARK  status: ('A' for Active; 'I' for Inactive)
REMARK    1  A    between atoms: O_2  and  C_19
REMARK    2  A    between atoms: O_2  and  C_21
REMARK    3  A    between atoms: O_6  and  C_20
REMARK    4  A    between atoms: O_6  and  C_22
REMARK    5  A    between atoms: C_17  and  C_20
REMARK    6  A    between atoms: C_22  and  C_25
REMARK    7  A    between atoms: C_32  and  C_34
REMARK                            x       y       z     vdW  Elec       q    Type
REMARK                         _______ _______ _______ _____ _____    ______ ____
ROOT
ATOM      1  O   UNL     1     110.969 129.380 136.744  0.00  0.00    +0.000 OA
ATOM      2  O   UNL     1     114.048 128.041 136.756  0.00  0.00    +0.000 OA
ATOM      3  O   UNL     1     113.326 128.526 135.306  0.00  0.00    +0.000 OA
ATOM      4  O   UNL     1     112.197 129.098 134.613  0.00  0.00    +0.000 OA
ATOM      5  O   UNL     1     110.684 129.755 134.613  0.00  0.00    +0.000 OA
ATOM      6  C   UNL     1     112.865 128.468 137.498  0.00  0.00    +0.000 A 
ATOM      7  C   UNL     1     112.078 128.811 137.490  0.00  0.00    +0.000 A 
ATOM      8  C   UNL     1     113.292 128.370 136.758  0.00  0.00    +0.000 A 
ATOM      9  C   UNL     1     111.727 129.051 136.744  0.00  0.00    +0.000 A 
ATOM     10  C   UNL     1     112.136 128.957 136.035  0.00  0.00    +0.000 A 
ATOM     11  C   UNL     1     112.925 128.616 136.021  0.00  0.00    +0.000 A 
ATOM     12  C   UNL     1     111.788 129.192 135.324  0.00  0.00    +0.000 A 
ATOM     13  C   UNL     1     110.622 129.615 136.033  0.00  0.00    +0.000 A 
ATOM     14  C   UNL     1     111.032 129.521 135.323  0.00  0.00    +0.000 A 
ENDROOT
BRANCH  13  17
ATOM     15  O   UNL     1     107.784 129.292 135.959  0.00  0.00    +0.000 OA
ATOM     16  O   UNL     1     107.595 130.929 136.030  0.00  0.00    +0.000 OA
ATOM     17  C   UNL     1     109.865 129.944 136.032  0.00  0.00    +0.000 A 
ATOM     18  C   UNL     1     109.203 129.453 135.996  0.00  0.00    +0.000 A 
ATOM     19  C   UNL     1     109.771 130.763 136.068  0.00  0.00    +0.000 A 
ATOM     20  C   UNL     1     108.446 129.781 135.995  0.00  0.00    +0.000 A 
ATOM     21  C   UNL     1     109.015 131.090 136.068  0.00  0.00    +0.000 A 
ATOM     22  C   UNL     1     108.352 130.600 136.031  0.00  0.00    +0.000 A 
ENDBRANCH  13  17
BRANCH   6  23
ATOM     23  O   UNL     1     113.210 128.234 138.210  0.00  0.00    +0.000 OA
BRANCH  23  32
ATOM     24  O   UNL     1     112.530 126.991 138.400  0.00  0.00    +0.000 OA
ATOM     25  O   UNL     1     111.637 126.109 140.185  0.00  0.00    +0.000 OA
ATOM     26  O   UNL     1     112.210 127.531 140.794  0.00  0.00    +0.000 OA
ATOM     27  O   UNL     1     112.996 128.594 139.806  0.00  0.00    +0.000 OA
ATOM     28  C   UNL     1     112.030 126.639 139.691  0.00  0.00    +0.000 C 
ATOM     29  C   UNL     1     112.316 127.351 139.996  0.00  0.00    +0.000 C 
ATOM     30  C   UNL     1     112.136 126.459 138.893  0.00  0.00    +0.000 C 
ATOM     31  C   UNL     1     112.710 127.882 139.502  0.00  0.00    +0.000 C 
ATOM     32  C   UNL     1     112.816 127.702 138.704  0.00  0.00    +0.000 C 
BRANCH  30  33
ATOM     33  C   UNL     1     111.850 125.749 138.589  0.00  0.00    +0.000 C 
BRANCH  33  34
ATOM     34  O   UNL     1     111.968 125.562 137.794  0.00  0.00    +0.000 OA
BRANCH  34  36
ATOM     35  O   UNL     1     111.314 124.307 137.991  0.00  0.00    +0.000 OA
ATOM     36  C   UNL     1     111.702 124.841 137.495  0.00  0.00    +0.000 C 
BRANCH  36  37
ATOM     37  C   UNL     1     111.824 124.652 136.701  0.00  0.00    +0.000 C 
ATOM     38  C   UNL     1     112.469 124.189 136.481  0.00  0.00    +0.000 C 
ATOM     39  C   UNL     1     111.299 124.928 136.127  0.00  0.00    +0.000 C 
ENDBRANCH  36  37
ENDBRANCH  34  36
ENDBRANCH  33  34
ENDBRANCH  30  33
ENDBRANCH  23  32
ENDBRANCH   6  23
TORSDOF 7
ENDMDL
MODEL 6
REMARK VINA RESULT:      -9.1      9.128     11.479
REMARK  Name = 44259847
REMARK  7 active torsions:
REMARK  status: ('A' for Active; 'I' for Inactive)
REMARK    1  A    between atoms: O_2  and  C_19
REMARK    2  A    between atoms: O_2  and  C_21
REMARK    3  A    between atoms: O_6  and  C_20
REMARK    4  A    between atoms: O_6  and  C_22
REMARK    5  A    between atoms: C_17  and  C_20
REMARK    6  A    between atoms: C_22  and  C_25
REMARK    7  A    between atoms: C_32  and  C_34
REMARK                            x       y       z     vdW  Elec       q    Type
REMARK                         _______ _______ _______ _____ _____    ______ ____
ROOT
ATOM      1  O   UNL     1     104.240 124.441 145.891  0.00  0.00    +0.000 OA
ATOM      2  O   UNL     1     107.330 125.703 146.253  0.00  0.00    +0.000 OA
ATOM      3  O   UNL     1     106.483 125.107 147.589  0.00  0.00    +0.000 OA
ATOM      4  O   UNL     1     105.291 124.502 148.132  0.00  0.00    +0.000 OA
ATOM      5  O   UNL     1     103.773 123.883 147.949  0.00  0.00    +0.000 OA
ATOM      6  C   UNL     1     106.207 125.373 145.381  0.00  0.00    +0.000 A 
ATOM      7  C   UNL     1     105.416 125.050 145.293  0.00  0.00    +0.000 A 
ATOM      8  C   UNL     1     106.572 125.394 146.159  0.00  0.00    +0.000 A 
ATOM      9  C   UNL     1     105.000 124.751 145.983  0.00  0.00    +0.000 A 
ATOM     10  C   UNL     1     105.350 124.771 146.729  0.00  0.00    +0.000 A 
ATOM     11  C   UNL     1     106.141 125.091 146.838  0.00  0.00    +0.000 A 
ATOM     12  C   UNL     1     104.941 124.482 147.385  0.00  0.00    +0.000 A 
ATOM     13  C   UNL     1     103.831 124.152 146.547  0.00  0.00    +0.000 A 
ATOM     14  C   UNL     1     104.182 124.172 147.294  0.00  0.00    +0.000 A 
ENDROOT
BRANCH  13  17
ATOM     15  O   UNL     1     100.996 124.480 146.665  0.00  0.00    +0.000 OA
ATOM     16  O   UNL     1     100.794 122.914 146.183  0.00  0.00    +0.000 OA
ATOM     17  C   UNL     1     103.072 123.842 146.456  0.00  0.00    +0.000 A 
ATOM     18  C   UNL     1     102.413 124.316 146.606  0.00  0.00    +0.000 A 
ATOM     19  C   UNL     1     102.972 123.060 146.215  0.00  0.00    +0.000 A 
ATOM     20  C   UNL     1     101.654 124.007 146.515  0.00  0.00    +0.000 A 
ATOM     21  C   UNL     1     102.213 122.751 146.124  0.00  0.00    +0.000 A 
ATOM     22  C   UNL     1     101.554 123.224 146.274  0.00  0.00    +0.000 A 
ENDBRANCH  13  17
BRANCH   6  23
ATOM     23  O   UNL     1     106.613 125.662 144.724  0.00  0.00    +0.000 OA
BRANCH  23  32
ATOM     24  O   UNL     1     105.969 126.934 144.629  0.00  0.00    +0.000 OA
ATOM     25  O   UNL     1     105.290 128.066 142.891  0.00  0.00    +0.000 OA
ATOM     26  O   UNL     1     105.918 126.725 142.164  0.00  0.00    +0.000 OA
ATOM     27  O   UNL     1     106.580 125.523 143.080  0.00  0.00    +0.000 OA
ATOM     28  C   UNL     1     105.621 127.466 143.350  0.00  0.00    +0.000 C 
ATOM     29  C   UNL     1     105.935 126.795 142.985  0.00  0.00    +0.000 C 
ATOM     30  C   UNL     1     105.638 127.535 144.172  0.00  0.00    +0.000 C 
ATOM     31  C   UNL     1     106.266 126.194 143.444  0.00  0.00    +0.000 C 
ATOM     32  C   UNL     1     106.282 126.264 144.266  0.00  0.00    +0.000 C 
BRANCH  30  33
ATOM     33  C   UNL     1     105.324 128.206 144.535  0.00  0.00    +0.000 C 
BRANCH  33  34
ATOM     34  O   UNL     1     105.502 128.370 145.324  0.00  0.00    +0.000 OA
BRANCH  34  36
ATOM     35  O   UNL     1     104.606 129.482 145.302  0.00  0.00    +0.000 OA
ATOM     36  C   UNL     1     105.105 128.975 145.719  0.00  0.00    +0.000 C 
BRANCH  36  37
ATOM     37  C   UNL     1     105.208 129.074 146.532  0.00  0.00    +0.000 C 
ATOM     38  C   UNL     1     104.705 128.691 147.061  0.00  0.00    +0.000 C 
ATOM     39  C   UNL     1     105.814 129.556 146.815  0.00  0.00    +0.000 C 
ENDBRANCH  36  37
ENDBRANCH  34  36
ENDBRANCH  33  34
ENDBRANCH  30  33
ENDBRANCH  23  32
ENDBRANCH   6  23
TORSDOF 7
ENDMDL
MODEL 7
REMARK VINA RESULT:      -9.0      1.792      3.608
REMARK  Name = 44259847
REMARK  7 active torsions:
REMARK  status: ('A' for Active; 'I' for Inactive)
REMARK    1  A    between atoms: O_2  and  C_19
REMARK    2  A    between atoms: O_2  and  C_21
REMARK    3  A    between atoms: O_6  and  C_20
REMARK    4  A    between atoms: O_6  and  C_22
REMARK    5  A    between atoms: C_17  and  C_20
REMARK    6  A    between atoms: C_22  and  C_25
REMARK    7  A    between atoms: C_32  and  C_34
REMARK                            x       y       z     vdW  Elec       q    Type
REMARK                         _______ _______ _______ _____ _____    ______ ____
ROOT
ATOM      1  O   UNL     1     111.583 128.000 138.773  0.00  0.00    +0.000 OA
ATOM      2  O   UNL     1     112.876 128.759 135.769  0.00  0.00    +0.000 OA
ATOM      3  O   UNL     1     113.599 129.331 137.186  0.00  0.00    +0.000 OA
ATOM      4  O   UNL     1     113.613 129.409 138.627  0.00  0.00    +0.000 OA
ATOM      5  O   UNL     1     112.975 129.033 140.100  0.00  0.00    +0.000 OA
ATOM      6  C   UNL     1     111.849 128.080 136.555  0.00  0.00    +0.000 A 
ATOM      7  C   UNL     1     111.522 127.889 137.326  0.00  0.00    +0.000 A 
ATOM      8  C   UNL     1     112.555 128.570 136.505  0.00  0.00    +0.000 A 
ATOM      9  C   UNL     1     111.903 128.188 138.035  0.00  0.00    +0.000 A 
ATOM     10  C   UNL     1     112.579 128.657 137.987  0.00  0.00    +0.000 A 
ATOM     11  C   UNL     1     112.922 128.860 137.225  0.00  0.00    +0.000 A 
ATOM     12  C   UNL     1     112.936 128.939 138.675  0.00  0.00    +0.000 A 
ATOM     13  C   UNL     1     111.941 128.282 139.461  0.00  0.00    +0.000 A 
ATOM     14  C   UNL     1     112.617 128.751 139.412  0.00  0.00    +0.000 A 
ENDROOT
BRANCH  13  17
ATOM     15  O   UNL     1     111.550 126.410 141.584  0.00  0.00    +0.000 OA
ATOM     16  O   UNL     1     110.664 127.530 142.410  0.00  0.00    +0.000 OA
ATOM     17  C   UNL     1     111.621 128.094 140.199  0.00  0.00    +0.000 A 
ATOM     18  C   UNL     1     111.746 127.345 140.523  0.00  0.00    +0.000 A 
ATOM     19  C   UNL     1     111.178 128.655 140.611  0.00  0.00    +0.000 A 
ATOM     20  C   UNL     1     111.427 127.157 141.260  0.00  0.00    +0.000 A 
ATOM     21  C   UNL     1     110.860 128.466 141.348  0.00  0.00    +0.000 A 
ATOM     22  C   UNL     1     110.983 127.718 141.673  0.00  0.00    +0.000 A 
ENDBRANCH  13  17
BRANCH   6  23
ATOM     23  O   UNL     1     111.490 127.797 135.869  0.00  0.00    +0.000 OA
BRANCH  23  32
ATOM     24  O   UNL     1     111.889 126.435 136.035  0.00  0.00    +0.000 OA
ATOM     25  O   UNL     1     110.858 124.574 135.547  0.00  0.00    +0.000 OA
ATOM     26  O   UNL     1     109.744 125.687 135.054  0.00  0.00    +0.000 OA
ATOM     27  O   UNL     1     110.060 127.298 135.215  0.00  0.00    +0.000 OA
ATOM     28  C   UNL     1     111.016 125.380 135.628  0.00  0.00    +0.000 C 
ATOM     29  C   UNL     1     110.459 125.936 135.381  0.00  0.00    +0.000 C 
ATOM     30  C   UNL     1     111.731 125.629 135.955  0.00  0.00    +0.000 C 
ATOM     31  C   UNL     1     110.617 126.742 135.462  0.00  0.00    +0.000 C 
ATOM     32  C   UNL     1     111.333 126.991 135.789  0.00  0.00    +0.000 C 
BRANCH  30  33
ATOM     33  C   UNL     1     112.288 125.073 136.202  0.00  0.00    +0.000 C 
BRANCH  33  34
ATOM     34  O   UNL     1     113.076 125.295 136.306  0.00  0.00    +0.000 OA
BRANCH  34  36
ATOM     35  O   UNL     1     113.408 123.978 136.749  0.00  0.00    +0.000 OA
ATOM     36  C   UNL     1     113.609 124.774 136.658  0.00  0.00    +0.000 C 
BRANCH  36  37
ATOM     37  C   UNL     1     114.343 125.046 136.919  0.00  0.00    +0.000 C 
ATOM     38  C   UNL     1     114.464 125.204 137.718  0.00  0.00    +0.000 C 
ATOM     39  C   UNL     1     114.956 125.159 136.378  0.00  0.00    +0.000 C 
ENDBRANCH  36  37
ENDBRANCH  34  36
ENDBRANCH  33  34
ENDBRANCH  30  33
ENDBRANCH  23  32
ENDBRANCH   6  23
TORSDOF 7
ENDMDL
MODEL 8
REMARK VINA RESULT:      -9.0      8.936     11.854
REMARK  Name = 44259847
REMARK  7 active torsions:
REMARK  status: ('A' for Active; 'I' for Inactive)
REMARK    1  A    between atoms: O_2  and  C_19
REMARK    2  A    between atoms: O_2  and  C_21
REMARK    3  A    between atoms: O_6  and  C_20
REMARK    4  A    between atoms: O_6  and  C_22
REMARK    5  A    between atoms: C_17  and  C_20
REMARK    6  A    between atoms: C_22  and  C_25
REMARK    7  A    between atoms: C_32  and  C_34
REMARK                            x       y       z     vdW  Elec       q    Type
REMARK                         _______ _______ _______ _____ _____    ______ ____
ROOT
ATOM      1  O   UNL     1     105.405 126.331 144.236  0.00  0.00    +0.000 OA
ATOM      2  O   UNL     1     106.595 124.788 146.970  0.00  0.00    +0.000 OA
ATOM      3  O   UNL     1     107.334 126.190 146.383  0.00  0.00    +0.000 OA
ATOM      4  O   UNL     1     107.383 127.251 145.407  0.00  0.00    +0.000 OA
ATOM      5  O   UNL     1     106.794 128.006 144.063  0.00  0.00    +0.000 OA
ATOM      6  C   UNL     1     105.612 124.843 145.891  0.00  0.00    +0.000 A 
ATOM      7  C   UNL     1     105.311 125.241 145.192  0.00  0.00    +0.000 A 
ATOM      8  C   UNL     1     106.299 125.163 146.298  0.00  0.00    +0.000 A 
ATOM      9  C   UNL     1     105.700 125.953 144.909  0.00  0.00    +0.000 A 
ATOM     10  C   UNL     1     106.358 126.260 145.298  0.00  0.00    +0.000 A 
ATOM     11  C   UNL     1     106.675 125.876 146.000  0.00  0.00    +0.000 A 
ATOM     12  C   UNL     1     106.723 126.944 145.017  0.00  0.00    +0.000 A 
ATOM     13  C   UNL     1     105.770 127.015 143.954  0.00  0.00    +0.000 A 
ATOM     14  C   UNL     1     106.429 127.321 144.345  0.00  0.00    +0.000 A 
ENDROOT
BRANCH  13  17
ATOM     15  O   UNL     1     105.492 127.148 141.114  0.00  0.00    +0.000 OA
ATOM     16  O   UNL     1     104.595 128.525 141.266  0.00  0.00    +0.000 OA
ATOM     17  C   UNL     1     105.476 127.393 143.282  0.00  0.00    +0.000 A 
ATOM     18  C   UNL     1     105.632 127.081 142.533  0.00  0.00    +0.000 A 
ATOM     19  C   UNL     1     105.028 128.081 143.358  0.00  0.00    +0.000 A 
ATOM     20  C   UNL     1     105.338 127.459 141.861  0.00  0.00    +0.000 A 
ATOM     21  C   UNL     1     104.734 128.458 142.686  0.00  0.00    +0.000 A 
ATOM     22  C   UNL     1     104.889 128.147 141.938  0.00  0.00    +0.000 A 
ENDBRANCH  13  17
BRANCH   6  23
ATOM     23  O   UNL     1     105.245 124.159 146.171  0.00  0.00    +0.000 OA
BRANCH  23  32
ATOM     24  O   UNL     1     104.194 124.736 146.948  0.00  0.00    +0.000 OA
ATOM     25  O   UNL     1     102.071 124.241 147.070  0.00  0.00    +0.000 OA
ATOM     26  O   UNL     1     102.587 123.129 145.966  0.00  0.00    +0.000 OA
ATOM     27  O   UNL     1     104.174 123.088 145.516  0.00  0.00    +0.000 OA
ATOM     28  C   UNL     1     102.865 124.221 146.846  0.00  0.00    +0.000 C 
ATOM     29  C   UNL     1     103.123 123.664 146.293  0.00  0.00    +0.000 C 
ATOM     30  C   UNL     1     103.400 124.756 147.173  0.00  0.00    +0.000 C 
ATOM     31  C   UNL     1     103.916 123.645 146.069  0.00  0.00    +0.000 C 
ATOM     32  C   UNL     1     104.452 124.180 146.396  0.00  0.00    +0.000 C 
BRANCH  30  33
ATOM     33  C   UNL     1     103.142 125.312 147.725  0.00  0.00    +0.000 C 
BRANCH  33  34
ATOM     34  O   UNL     1     103.513 126.047 147.776  0.00  0.00    +0.000 OA
BRANCH  34  36
ATOM     35  O   UNL     1     103.051 126.232 149.115  0.00  0.00    +0.000 OA
ATOM     36  C   UNL     1     103.360 126.544 148.416  0.00  0.00    +0.000 C 
BRANCH  36  37
ATOM     37  C   UNL     1     103.516 127.352 148.359  0.00  0.00    +0.000 C 
ATOM     38  C   UNL     1     102.897 127.896 148.399  0.00  0.00    +0.000 C 
ATOM     39  C   UNL     1     104.291 127.616 148.262  0.00  0.00    +0.000 C 
ENDBRANCH  36  37
ENDBRANCH  34  36
ENDBRANCH  33  34
ENDBRANCH  30  33
ENDBRANCH  23  32
ENDBRANCH   6  23
TORSDOF 7
ENDMDL
MODEL 9
REMARK VINA RESULT:      -8.9      2.373      3.700
REMARK  Name = 44259847
REMARK  7 active torsions:
REMARK  status: ('A' for Active; 'I' for Inactive)
REMARK    1  A    between atoms: O_2  and  C_19
REMARK    2  A    between atoms: O_2  and  C_21
REMARK    3  A    between atoms: O_6  and  C_20
REMARK    4  A    between atoms: O_6  and  C_22
REMARK    5  A    between atoms: C_17  and  C_20
REMARK    6  A    between atoms: C_22  and  C_25
REMARK    7  A    between atoms: C_32  and  C_34
REMARK                            x       y       z     vdW  Elec       q    Type
REMARK                         _______ _______ _______ _____ _____    ______ ____
ROOT
ATOM      1  O   UNL     1     112.249 129.368 138.018  0.00  0.00    +0.000 OA
ATOM      2  O   UNL     1     112.209 129.422 134.661  0.00  0.00    +0.000 OA
ATOM      3  O   UNL     1     113.526 130.047 135.516  0.00  0.00    +0.000 OA
ATOM      4  O   UNL     1     114.164 130.331 136.779  0.00  0.00    +0.000 OA
ATOM      5  O   UNL     1     114.179 130.302 138.428  0.00  0.00    +0.000 OA
ATOM      6  C   UNL     1     111.549 129.071 135.916  0.00  0.00    +0.000 A 
ATOM      7  C   UNL     1     111.564 129.060 136.775  0.00  0.00    +0.000 A 
ATOM      8  C   UNL     1     112.214 129.406 135.486  0.00  0.00    +0.000 A 
ATOM      9  C   UNL     1     112.242 129.382 137.192  0.00  0.00    +0.000 A 
ATOM     10  C   UNL     1     112.879 129.703 136.780  0.00  0.00    +0.000 A 
ATOM     11  C   UNL     1     112.883 129.724 135.920  0.00  0.00    +0.000 A 
ATOM     12  C   UNL     1     113.525 130.010 137.191  0.00  0.00    +0.000 A 
ATOM     13  C   UNL     1     112.895 129.674 138.430  0.00  0.00    +0.000 A 
ATOM     14  C   UNL     1     113.533 129.995 138.016  0.00  0.00    +0.000 A 
ENDROOT
BRANCH  13  17
ATOM     15  O   UNL     1     112.126 130.820 140.931  0.00  0.00    +0.000 OA
ATOM     16  O   UNL     1     112.927 129.618 141.729  0.00  0.00    +0.000 OA
ATOM     17  C   UNL     1     112.903 129.660 139.254  0.00  0.00    +0.000 A 
ATOM     18  C   UNL     1     112.510 130.248 139.681  0.00  0.00    +0.000 A 
ATOM     19  C   UNL     1     113.304 129.059 139.653  0.00  0.00    +0.000 A 
ATOM     20  C   UNL     1     112.518 130.234 140.505  0.00  0.00    +0.000 A 
ATOM     21  C   UNL     1     113.311 129.046 140.477  0.00  0.00    +0.000 A 
ATOM     22  C   UNL     1     112.919 129.633 140.904  0.00  0.00    +0.000 A 
ENDBRANCH  13  17
BRANCH   6  23
ATOM     23  O   UNL     1     110.902 128.764 135.507  0.00  0.00    +0.000 OA
BRANCH  23  32
ATOM     24  O   UNL     1     110.051 129.891 135.726  0.00  0.00    +0.000 OA
ATOM     25  O   UNL     1     107.890 130.017 136.004  0.00  0.00    +0.000 OA
ATOM     26  O   UNL     1     108.085 128.389 135.814  0.00  0.00    +0.000 OA
ATOM     27  O   UNL     1     109.591 127.763 135.566  0.00  0.00    +0.000 OA
ATOM     28  C   UNL     1     108.643 129.704 135.880  0.00  0.00    +0.000 C 
ATOM     29  C   UNL     1     108.740 128.890 135.785  0.00  0.00    +0.000 C 
ATOM     30  C   UNL     1     109.298 130.205 135.851  0.00  0.00    +0.000 C 
ATOM     31  C   UNL     1     109.494 128.577 135.661  0.00  0.00    +0.000 C 
ATOM     32  C   UNL     1     110.149 129.078 135.631  0.00  0.00    +0.000 C 
BRANCH  30  33
ATOM     33  C   UNL     1     109.200 131.018 135.946  0.00  0.00    +0.000 C 
BRANCH  33  34
ATOM     34  O   UNL     1     109.619 131.419 136.532  0.00  0.00    +0.000 OA
BRANCH  34  36
ATOM     35  O   UNL     1     109.282 132.667 135.926  0.00  0.00    +0.000 OA
ATOM     36  C   UNL     1     109.687 132.240 136.504  0.00  0.00    +0.000 C 
BRANCH  36  37
ATOM     37  C   UNL     1     110.160 132.635 137.052  0.00  0.00    +0.000 C 
ATOM     38  C   UNL     1     110.804 133.081 136.797  0.00  0.00    +0.000 C 
ATOM     39  C   UNL     1     109.987 132.584 137.857  0.00  0.00    +0.000 C 
ENDBRANCH  36  37
ENDBRANCH  34  36
ENDBRANCH  33  34
ENDBRANCH  30  33
ENDBRANCH  23  32
ENDBRANCH   6  23
TORSDOF 7
ENDMDL
MODEL 10
REMARK VINA RESULT:      -8.9      1.395      2.584
REMARK  Name = 44259847
REMARK  7 active torsions:
REMARK  status: ('A' for Active; 'I' for Inactive)
REMARK    1  A    between atoms: O_2  and  C_19
REMARK    2  A    between atoms: O_2  and  C_21
REMARK    3  A    between atoms: O_6  and  C_20
REMARK    4  A    between atoms: O_6  and  C_22
REMARK    5  A    between atoms: C_17  and  C_20
REMARK    6  A    between atoms: C_22  and  C_25
REMARK    7  A    between atoms: C_32  and  C_34
REMARK                            x       y       z     vdW  Elec       q    Type
REMARK                         _______ _______ _______ _____ _____    ______ ____
ROOT
ATOM      1  O   UNL     1     112.130 126.477 138.812  0.00  0.00    +0.000 OA
ATOM      2  O   UNL     1     113.680 124.964 136.247  0.00  0.00    +0.000 OA
ATOM      3  O   UNL     1     114.549 125.442 137.616  0.00  0.00    +0.000 OA
ATOM      4  O   UNL     1     114.567 126.056 138.922  0.00  0.00    +0.000 OA
ATOM      5  O   UNL     1     113.801 126.800 140.179  0.00  0.00    +0.000 OA
ATOM      6  C   UNL     1     112.449 125.481 136.837  0.00  0.00    +0.000 A 
ATOM      7  C   UNL     1     112.056 125.869 137.495  0.00  0.00    +0.000 A 
ATOM      8  C   UNL     1     113.295 125.335 136.875  0.00  0.00    +0.000 A 
ATOM      9  C   UNL     1     112.514 126.105 138.183  0.00  0.00    +0.000 A 
ATOM     10  C   UNL     1     113.325 125.965 138.219  0.00  0.00    +0.000 A 
ATOM     11  C   UNL     1     113.737 125.579 137.570  0.00  0.00    +0.000 A 
ATOM     12  C   UNL     1     113.755 126.196 138.885  0.00  0.00    +0.000 A 
ATOM     13  C   UNL     1     112.560 126.709 139.478  0.00  0.00    +0.000 A 
ATOM     14  C   UNL     1     113.372 126.568 139.514  0.00  0.00    +0.000 A 
ENDROOT
BRANCH  13  17
ATOM     15  O   UNL     1     110.923 126.558 141.814  0.00  0.00    +0.000 OA
ATOM     16  O   UNL     1     111.029 128.195 141.995  0.00  0.00    +0.000 OA
ATOM     17  C   UNL     1     112.177 127.080 140.107  0.00  0.00    +0.000 A 
ATOM     18  C   UNL     1     111.741 126.633 140.646  0.00  0.00    +0.000 A 
ATOM     19  C   UNL     1     112.230 127.899 140.197  0.00  0.00    +0.000 A 
ATOM     20  C   UNL     1     111.358 127.005 141.276  0.00  0.00    +0.000 A 
ATOM     21  C   UNL     1     111.847 128.270 140.826  0.00  0.00    +0.000 A 
ATOM     22  C   UNL     1     111.411 127.823 141.365  0.00  0.00    +0.000 A 
ENDBRANCH  13  17
BRANCH   6  23
ATOM     23  O   UNL     1     112.017 125.251 136.172  0.00  0.00    +0.000 OA
BRANCH  23  32
ATOM     24  O   UNL     1     111.790 126.578 135.693  0.00  0.00    +0.000 OA
ATOM     25  O   UNL     1     110.099 127.437 134.612  0.00  0.00    +0.000 OA
ATOM     26  O   UNL     1     109.595 125.876 134.791  0.00  0.00    +0.000 OA
ATOM     27  O   UNL     1     110.553 124.783 135.571  0.00  0.00    +0.000 OA
ATOM     28  C   UNL     1     110.579 126.891 135.002  0.00  0.00    +0.000 C 
ATOM     29  C   UNL     1     110.326 126.110 135.091  0.00  0.00    +0.000 C 
ATOM     30  C   UNL     1     111.311 127.125 135.303  0.00  0.00    +0.000 C 
ATOM     31  C   UNL     1     110.806 125.564 135.482  0.00  0.00    +0.000 C 
ATOM     32  C   UNL     1     111.538 125.798 135.782  0.00  0.00    +0.000 C 
BRANCH  30  33
ATOM     33  C   UNL     1     111.563 127.905 135.214  0.00  0.00    +0.000 C 
BRANCH  33  34
ATOM     34  O   UNL     1     112.328 128.120 135.435  0.00  0.00    +0.000 OA
BRANCH  34  36
ATOM     35  O   UNL     1     112.102 129.473 135.039  0.00  0.00    +0.000 OA
ATOM     36  C   UNL     1     112.544 128.915 135.456  0.00  0.00    +0.000 C 
BRANCH  36  37
ATOM     37  C   UNL     1     113.202 129.154 135.894  0.00  0.00    +0.000 C 
ATOM     38  C   UNL     1     113.960 129.059 135.585  0.00  0.00    +0.000 C 
ATOM     39  C   UNL     1     113.100 129.487 136.641  0.00  0.00    +0.000 C 
ENDBRANCH  36  37
ENDBRANCH  34  36
ENDBRANCH  33  34
ENDBRANCH  30  33
ENDBRANCH  23  32
ENDBRANCH   6  23
TORSDOF 7
ENDMDL
