MODEL 1
REMARK VINA RESULT:     -10.5      0.000      0.000
REMARK  Name = 44259476
REMARK  7 active torsions:
REMARK  status: ('A' for Active; 'I' for Inactive)
REMARK    1  A    between atoms: O_2  and  C_23
REMARK    2  A    between atoms: O_2  and  C_27
REMARK    3  A    between atoms: O_6  and  C_26
REMARK    4  A    between atoms: O_6  and  C_30
REMARK    5  A    between atoms: O_15  and  C_42
REMARK    6  A    between atoms: C_18  and  C_27
REMARK    7  A    between atoms: C_31  and  C_34
REMARK                            x       y       z     vdW  Elec       q    Type
REMARK                         _______ _______ _______ _____ _____    ______ ____
ROOT
ATOM      1  O   UNL     1     113.392 127.338 136.089  0.00  0.00    +0.000 OA
ATOM      2  O   UNL     1     113.211 128.505 138.264  0.00  0.00    +0.000 OA
ATOM      3  O   UNL     1     113.626 129.749 137.664  0.00  0.00    +0.000 OA
ATOM      4  O   UNL     1     114.236 129.813 134.808  0.00  0.00    +0.000 OA
ATOM      5  C   UNL     1     113.095 127.312 137.487  0.00  0.00    +0.000 A 
ATOM      6  C   UNL     1     113.155 126.923 136.762  0.00  0.00    +0.000 A 
ATOM      7  C   UNL     1     113.271 128.116 137.539  0.00  0.00    +0.000 A 
ATOM      8  C   UNL     1     113.508 128.531 136.867  0.00  0.00    +0.000 A 
ATOM      9  C   UNL     1     113.568 128.142 136.142  0.00  0.00    +0.000 A 
ATOM     10  C   UNL     1     113.689 129.369 136.934  0.00  0.00    +0.000 A 
ATOM     11  C   UNL     1     113.814 128.563 135.435  0.00  0.00    +0.000 A 
ATOM     12  C   UNL     1     113.936 129.806 136.238  0.00  0.00    +0.000 A 
ATOM     13  C   UNL     1     113.999 129.400 135.482  0.00  0.00    +0.000 A 
ENDROOT
BRANCH   6  16
ATOM     14  O   UNL     1     113.910 124.193 137.150  0.00  0.00    +0.000 OA
ATOM     15  O   UNL     1     112.452 123.705 136.551  0.00  0.00    +0.000 OA
ATOM     16  C   UNL     1     112.979 126.118 136.709  0.00  0.00    +0.000 A 
ATOM     17  C   UNL     1     112.250 125.874 136.410  0.00  0.00    +0.000 A 
ATOM     18  C   UNL     1     113.533 125.558 136.956  0.00  0.00    +0.000 A 
ATOM     19  C   UNL     1     112.075 125.070 136.358  0.00  0.00    +0.000 A 
ATOM     20  C   UNL     1     113.356 124.754 136.903  0.00  0.00    +0.000 A 
ATOM     21  C   UNL     1     112.627 124.510 136.604  0.00  0.00    +0.000 A 
BRANCH  19  22
ATOM     22  O   UNL     1     111.346 124.825 136.058  0.00  0.00    +0.000 OA
ATOM     23  C   UNL     1     110.986 125.251 135.448  0.00  0.00    +0.000 C 
ENDBRANCH  19  22
ENDBRANCH   6  16
BRANCH   5  24
ATOM     24  O   UNL     1     112.858 126.897 138.159  0.00  0.00    +0.000 OA
BRANCH  24  33
ATOM     25  O   UNL     1     111.579 127.534 138.194  0.00  0.00    +0.000 OA
ATOM     26  O   UNL     1     110.195 127.872 139.847  0.00  0.00    +0.000 OA
ATOM     27  O   UNL     1     111.420 127.085 140.622  0.00  0.00    +0.000 OA
ATOM     28  O   UNL     1     112.752 126.597 139.778  0.00  0.00    +0.000 OA
ATOM     29  C   UNL     1     110.913 127.778 138.616  0.00  0.00    +0.000 C 
ATOM     30  C   UNL     1     110.861 127.628 139.425  0.00  0.00    +0.000 C 
ATOM     31  C   UNL     1     111.473 127.235 139.813  0.00  0.00    +0.000 C 
ATOM     32  C   UNL     1     112.139 126.991 139.391  0.00  0.00    +0.000 C 
ATOM     33  C   UNL     1     112.192 127.141 138.581  0.00  0.00    +0.000 C 
BRANCH  29  34
ATOM     34  C   UNL     1     110.301 128.172 138.228  0.00  0.00    +0.000 C 
BRANCH  34  35
ATOM     35  O   UNL     1     110.038 127.902 137.494  0.00  0.00    +0.000 OA
BRANCH  35  41
ATOM     36  O   UNL     1     110.038 129.168 136.830  0.00  0.00    +0.000 OA
ATOM     37  O   UNL     1     108.665 127.477 136.683  0.00  0.00    +0.000 OA
ATOM     38  O   UNL     1     107.978 128.530 135.615  0.00  0.00    +0.000 OA
ATOM     39  O   UNL     1     108.665 130.008 135.356  0.00  0.00    +0.000 OA
ATOM     40  C   UNL     1     109.008 128.216 136.554  0.00  0.00    +0.000 C 
ATOM     41  C   UNL     1     109.694 128.428 136.959  0.00  0.00    +0.000 C 
ATOM     42  C   UNL     1     108.665 128.743 136.020  0.00  0.00    +0.000 C 
ATOM     43  C   UNL     1     109.008 129.481 135.890  0.00  0.00    +0.000 C 
ATOM     44  C   UNL     1     109.694 129.694 136.295  0.00  0.00    +0.000 C 
ATOM     45  C   UNL     1     110.038 130.433 136.166  0.00  0.00    +0.000 C 
ENDBRANCH  35  41
ENDBRANCH  34  35
ENDBRANCH  29  34
ENDBRANCH  24  33
ENDBRANCH   5  24
TORSDOF 7
ENDMDL
MODEL 2
REMARK VINA RESULT:     -10.5      1.410      4.365
REMARK  Name = 44259476
REMARK  7 active torsions:
REMARK  status: ('A' for Active; 'I' for Inactive)
REMARK    1  A    between atoms: O_2  and  C_23
REMARK    2  A    between atoms: O_2  and  C_27
REMARK    3  A    between atoms: O_6  and  C_26
REMARK    4  A    between atoms: O_6  and  C_30
REMARK    5  A    between atoms: O_15  and  C_42
REMARK    6  A    between atoms: C_18  and  C_27
REMARK    7  A    between atoms: C_31  and  C_34
REMARK                            x       y       z     vdW  Elec       q    Type
REMARK                         _______ _______ _______ _____ _____    ______ ____
ROOT
ATOM      1  O   UNL     1     113.627 126.795 136.814  0.00  0.00    +0.000 OA
ATOM      2  O   UNL     1     111.646 125.550 136.008  0.00  0.00    +0.000 OA
ATOM      3  O   UNL     1     112.253 124.292 136.370  0.00  0.00    +0.000 OA
ATOM      4  O   UNL     1     114.915 124.295 137.571  0.00  0.00    +0.000 OA
ATOM      5  C   UNL     1     112.324 126.788 136.227  0.00  0.00    +0.000 A 
ATOM      6  C   UNL     1     112.984 127.203 136.495  0.00  0.00    +0.000 A 
ATOM      7  C   UNL     1     112.306 125.965 136.277  0.00  0.00    +0.000 A 
ATOM      8  C   UNL     1     112.948 125.557 136.595  0.00  0.00    +0.000 A 
ATOM      9  C   UNL     1     113.609 125.972 136.863  0.00  0.00    +0.000 A 
ATOM     10  C   UNL     1     112.917 124.699 136.641  0.00  0.00    +0.000 A 
ATOM     11  C   UNL     1     114.284 125.557 137.197  0.00  0.00    +0.000 A 
ATOM     12  C   UNL     1     113.583 124.268 136.972  0.00  0.00    +0.000 A 
ATOM     13  C   UNL     1     114.272 124.701 137.252  0.00  0.00    +0.000 A 
ENDROOT
BRANCH   6  16
ATOM     14  O   UNL     1     113.280 129.582 134.939  0.00  0.00    +0.000 OA
ATOM     15  O   UNL     1     113.060 130.496 136.294  0.00  0.00    +0.000 OA
ATOM     16  C   UNL     1     113.003 128.026 136.446  0.00  0.00    +0.000 A 
ATOM     17  C   UNL     1     112.893 128.484 137.124  0.00  0.00    +0.000 A 
ATOM     18  C   UNL     1     113.132 128.393 135.717  0.00  0.00    +0.000 A 
ATOM     19  C   UNL     1     112.912 129.307 137.073  0.00  0.00    +0.000 A 
ATOM     20  C   UNL     1     113.151 129.216 135.667  0.00  0.00    +0.000 A 
ATOM     21  C   UNL     1     113.041 129.673 136.345  0.00  0.00    +0.000 A 
BRANCH  19  22
ATOM     22  O   UNL     1     112.802 129.764 137.750  0.00  0.00    +0.000 OA
ATOM     23  C   UNL     1     112.998 129.458 138.492  0.00  0.00    +0.000 C 
ENDBRANCH  19  22
ENDBRANCH   6  16
BRANCH   5  24
ATOM     24  O   UNL     1     111.682 127.196 135.909  0.00  0.00    +0.000 OA
BRANCH  24  33
ATOM     25  O   UNL     1     110.830 127.107 137.052  0.00  0.00    +0.000 OA
ATOM     26  O   UNL     1     108.673 126.809 137.207  0.00  0.00    +0.000 OA
ATOM     27  O   UNL     1     108.873 126.794 135.570  0.00  0.00    +0.000 OA
ATOM     28  O   UNL     1     110.378 126.988 134.920  0.00  0.00    +0.000 OA
ATOM     29  C   UNL     1     110.077 127.010 137.377  0.00  0.00    +0.000 C 
ATOM     30  C   UNL     1     109.426 126.906 136.883  0.00  0.00    +0.000 C 
ATOM     31  C   UNL     1     109.525 126.898 136.063  0.00  0.00    +0.000 C 
ATOM     32  C   UNL     1     110.277 126.995 135.739  0.00  0.00    +0.000 C 
ATOM     33  C   UNL     1     110.930 127.100 136.233  0.00  0.00    +0.000 C 
BRANCH  29  34
ATOM     34  C   UNL     1     109.978 127.018 138.196  0.00  0.00    +0.000 C 
BRANCH  34  35
ATOM     35  O   UNL     1     110.599 126.789 138.688  0.00  0.00    +0.000 OA
BRANCH  35  41
ATOM     36  O   UNL     1     110.039 127.481 139.805  0.00  0.00    +0.000 OA
ATOM     37  O   UNL     1     111.495 125.858 139.714  0.00  0.00    +0.000 OA
ATOM     38  O   UNL     1     111.382 126.085 141.345  0.00  0.00    +0.000 OA
ATOM     39  O   UNL     1     110.373 127.242 141.949  0.00  0.00    +0.000 OA
ATOM     40  C   UNL     1     110.991 126.436 140.016  0.00  0.00    +0.000 C 
ATOM     41  C   UNL     1     110.543 126.902 139.503  0.00  0.00    +0.000 C 
ATOM     42  C   UNL     1     110.934 126.550 140.832  0.00  0.00    +0.000 C 
ATOM     43  C   UNL     1     110.430 127.128 141.134  0.00  0.00    +0.000 C 
ATOM     44  C   UNL     1     109.982 127.594 140.621  0.00  0.00    +0.000 C 
ATOM     45  C   UNL     1     109.478 128.173 140.923  0.00  0.00    +0.000 C 
ENDBRANCH  35  41
ENDBRANCH  34  35
ENDBRANCH  29  34
ENDBRANCH  24  33
ENDBRANCH   5  24
TORSDOF 7
ENDMDL
MODEL 3
REMARK VINA RESULT:     -10.4      9.723     12.461
REMARK  Name = 44259476
REMARK  7 active torsions:
REMARK  status: ('A' for Active; 'I' for Inactive)
REMARK    1  A    between atoms: O_2  and  C_23
REMARK    2  A    between atoms: O_2  and  C_27
REMARK    3  A    between atoms: O_6  and  C_26
REMARK    4  A    between atoms: O_6  and  C_30
REMARK    5  A    between atoms: O_15  and  C_42
REMARK    6  A    between atoms: C_18  and  C_27
REMARK    7  A    between atoms: C_31  and  C_34
REMARK                            x       y       z     vdW  Elec       q    Type
REMARK                         _______ _______ _______ _____ _____    ______ ____
ROOT
ATOM      1  O   UNL     1     105.595 124.410 147.754  0.00  0.00    +0.000 OA
ATOM      2  O   UNL     1     106.983 125.563 146.060  0.00  0.00    +0.000 OA
ATOM      3  O   UNL     1     108.115 125.575 146.953  0.00  0.00    +0.000 OA
ATOM      4  O   UNL     1     107.838 124.397 149.612  0.00  0.00    +0.000 OA
ATOM      5  C   UNL     1     105.736 124.987 146.454  0.00  0.00    +0.000 A 
ATOM      6  C   UNL     1     105.274 124.603 147.018  0.00  0.00    +0.000 A 
ATOM      7  C   UNL     1     106.521 125.179 146.625  0.00  0.00    +0.000 A 
ATOM      8  C   UNL     1     106.842 124.986 147.359  0.00  0.00    +0.000 A 
ATOM      9  C   UNL     1     106.379 124.601 147.923  0.00  0.00    +0.000 A 
ATOM     10  C   UNL     1     107.660 125.191 147.524  0.00  0.00    +0.000 A 
ATOM     11  C   UNL     1     106.703 124.395 148.692  0.00  0.00    +0.000 A 
ATOM     12  C   UNL     1     108.001 124.992 148.288  0.00  0.00    +0.000 A 
ATOM     13  C   UNL     1     107.519 124.591 148.876  0.00  0.00    +0.000 A 
ENDROOT
BRANCH   6  16
ATOM     14  O   UNL     1     103.366 122.967 145.658  0.00  0.00    +0.000 OA
ATOM     15  O   UNL     1     102.137 123.834 146.338  0.00  0.00    +0.000 OA
ATOM     16  C   UNL     1     104.490 124.411 146.849  0.00  0.00    +0.000 A 
ATOM     17  C   UNL     1     103.875 124.845 147.188  0.00  0.00    +0.000 A 
ATOM     18  C   UNL     1     104.320 123.785 146.338  0.00  0.00    +0.000 A 
ATOM     19  C   UNL     1     103.091 124.652 147.018  0.00  0.00    +0.000 A 
ATOM     20  C   UNL     1     103.535 123.593 146.168  0.00  0.00    +0.000 A 
ATOM     21  C   UNL     1     102.921 124.027 146.508  0.00  0.00    +0.000 A 
BRANCH  19  22
ATOM     22  O   UNL     1     102.477 125.085 147.358  0.00  0.00    +0.000 OA
ATOM     23  C   UNL     1     102.565 125.401 148.116  0.00  0.00    +0.000 C 
ENDBRANCH  19  22
ENDBRANCH   6  16
BRANCH   5  24
ATOM     24  O   UNL     1     105.415 125.180 145.719  0.00  0.00    +0.000 OA
BRANCH  24  33
ATOM     25  O   UNL     1     105.292 126.579 145.985  0.00  0.00    +0.000 OA
ATOM     26  O   UNL     1     105.472 128.306 144.663  0.00  0.00    +0.000 OA
ATOM     27  O   UNL     1     105.747 127.072 143.603  0.00  0.00    +0.000 OA
ATOM     28  O   UNL     1     105.718 125.509 144.131  0.00  0.00    +0.000 OA
ATOM     29  C   UNL     1     105.306 127.361 145.721  0.00  0.00    +0.000 C 
ATOM     30  C   UNL     1     105.458 127.525 144.927  0.00  0.00    +0.000 C 
ATOM     31  C   UNL     1     105.595 126.908 144.397  0.00  0.00    +0.000 C 
ATOM     32  C   UNL     1     105.581 126.126 144.661  0.00  0.00    +0.000 C 
ATOM     33  C   UNL     1     105.429 125.962 145.455  0.00  0.00    +0.000 C 
BRANCH  29  34
ATOM     34  C   UNL     1     105.169 127.977 146.251  0.00  0.00    +0.000 C 
BRANCH  34  35
ATOM     35  O   UNL     1     104.854 127.817 146.997  0.00  0.00    +0.000 OA
BRANCH  35  41
ATOM     36  O   UNL     1     104.169 129.060 147.165  0.00  0.00    +0.000 OA
ATOM     37  O   UNL     1     105.232 127.808 148.603  0.00  0.00    +0.000 OA
ATOM     38  O   UNL     1     104.737 129.047 149.574  0.00  0.00    +0.000 OA
ATOM     39  O   UNL     1     103.863 130.294 148.939  0.00  0.00    +0.000 OA
ATOM     40  C   UNL     1     104.796 128.431 148.286  0.00  0.00    +0.000 C 
ATOM     41  C   UNL     1     104.607 128.436 147.483  0.00  0.00    +0.000 C 
ATOM     42  C   UNL     1     104.548 129.051 148.771  0.00  0.00    +0.000 C 
ATOM     43  C   UNL     1     104.111 129.674 148.454  0.00  0.00    +0.000 C 
ATOM     44  C   UNL     1     103.922 129.679 147.651  0.00  0.00    +0.000 C 
ATOM     45  C   UNL     1     103.485 130.303 147.333  0.00  0.00    +0.000 C 
ENDBRANCH  35  41
ENDBRANCH  34  35
ENDBRANCH  29  34
ENDBRANCH  24  33
ENDBRANCH   5  24
TORSDOF 7
ENDMDL
MODEL 4
REMARK VINA RESULT:     -10.4      1.380      4.211
REMARK  Name = 44259476
REMARK  7 active torsions:
REMARK  status: ('A' for Active; 'I' for Inactive)
REMARK    1  A    between atoms: O_2  and  C_23
REMARK    2  A    between atoms: O_2  and  C_27
REMARK    3  A    between atoms: O_6  and  C_26
REMARK    4  A    between atoms: O_6  and  C_30
REMARK    5  A    between atoms: O_15  and  C_42
REMARK    6  A    between atoms: C_18  and  C_27
REMARK    7  A    between atoms: C_31  and  C_34
REMARK                            x       y       z     vdW  Elec       q    Type
REMARK                         _______ _______ _______ _____ _____    ______ ____
ROOT
ATOM      1  O   UNL     1     113.497 126.117 138.789  0.00  0.00    +0.000 OA
ATOM      2  O   UNL     1     111.689 125.900 137.112  0.00  0.00    +0.000 OA
ATOM      3  O   UNL     1     112.577 125.222 136.200  0.00  0.00    +0.000 OA
ATOM      4  O   UNL     1     115.347 124.754 136.999  0.00  0.00    +0.000 OA
ATOM      5  C   UNL     1     112.142 126.343 138.393  0.00  0.00    +0.000 A 
ATOM      6  C   UNL     1     112.745 126.415 138.952  0.00  0.00    +0.000 A 
ATOM      7  C   UNL     1     112.292 125.972 137.671  0.00  0.00    +0.000 A 
ATOM      8  C   UNL     1     113.043 125.674 137.508  0.00  0.00    +0.000 A 
ATOM      9  C   UNL     1     113.645 125.746 138.067  0.00  0.00    +0.000 A 
ATOM     10  C   UNL     1     113.186 125.289 136.752  0.00  0.00    +0.000 A 
ATOM     11  C   UNL     1     114.433 125.439 137.909  0.00  0.00    +0.000 A 
ATOM     12  C   UNL     1     113.966 124.976 136.577  0.00  0.00    +0.000 A 
ATOM     13  C   UNL     1     114.594 125.052 137.160  0.00  0.00    +0.000 A 
ENDROOT
BRANCH   6  16
ATOM     14  O   UNL     1     111.567 126.379 141.556  0.00  0.00    +0.000 OA
ATOM     15  O   UNL     1     112.151 127.896 141.840  0.00  0.00    +0.000 OA
ATOM     16  C   UNL     1     112.597 126.786 139.673  0.00  0.00    +0.000 A 
ATOM     17  C   UNL     1     112.889 127.545 139.816  0.00  0.00    +0.000 A 
ATOM     18  C   UNL     1     112.156 126.397 140.254  0.00  0.00    +0.000 A 
ATOM     19  C   UNL     1     112.740 127.914 140.538  0.00  0.00    +0.000 A 
ATOM     20  C   UNL     1     112.008 126.768 140.975  0.00  0.00    +0.000 A 
ATOM     21  C   UNL     1     112.300 127.526 141.118  0.00  0.00    +0.000 A 
BRANCH  19  22
ATOM     22  O   UNL     1     113.031 128.673 140.681  0.00  0.00    +0.000 OA
ATOM     23  C   UNL     1     113.777 128.888 140.399  0.00  0.00    +0.000 C 
ENDBRANCH  19  22
ENDBRANCH   6  16
BRANCH   5  24
ATOM     24  O   UNL     1     111.391 126.642 138.556  0.00  0.00    +0.000 OA
BRANCH  24  33
ATOM     25  O   UNL     1     111.539 127.753 137.669  0.00  0.00    +0.000 OA
ATOM     26  O   UNL     1     110.053 128.913 136.571  0.00  0.00    +0.000 OA
ATOM     27  O   UNL     1     109.087 127.827 137.351  0.00  0.00    +0.000 OA
ATOM     28  O   UNL     1     109.756 126.691 138.344  0.00  0.00    +0.000 OA
ATOM     29  C   UNL     1     111.205 128.321 137.173  0.00  0.00    +0.000 C 
ATOM     30  C   UNL     1     110.387 128.345 137.067  0.00  0.00    +0.000 C 
ATOM     31  C   UNL     1     109.904 127.802 137.457  0.00  0.00    +0.000 C 
ATOM     32  C   UNL     1     110.238 127.234 137.953  0.00  0.00    +0.000 C 
ATOM     33  C   UNL     1     111.057 127.210 138.060  0.00  0.00    +0.000 C 
BRANCH  29  34
ATOM     34  C   UNL     1     111.688 128.864 136.783  0.00  0.00    +0.000 C 
BRANCH  34  35
ATOM     35  O   UNL     1     112.234 129.311 137.211  0.00  0.00    +0.000 OA
BRANCH  35  41
ATOM     36  O   UNL     1     113.338 129.133 136.322  0.00  0.00    +0.000 OA
ATOM     37  O   UNL     1     112.712 130.865 137.494  0.00  0.00    +0.000 OA
ATOM     38  O   UNL     1     114.056 131.464 136.747  0.00  0.00    +0.000 OA
ATOM     39  O   UNL     1     114.921 130.509 135.717  0.00  0.00    +0.000 OA
ATOM     40  C   UNL     1     113.144 130.388 136.980  0.00  0.00    +0.000 C 
ATOM     41  C   UNL     1     112.905 129.611 136.838  0.00  0.00    +0.000 C 
ATOM     42  C   UNL     1     113.817 130.687 136.606  0.00  0.00    +0.000 C 
ATOM     43  C   UNL     1     114.249 130.210 136.091  0.00  0.00    +0.000 C 
ATOM     44  C   UNL     1     114.010 129.433 135.949  0.00  0.00    +0.000 C 
ATOM     45  C   UNL     1     114.443 128.955 135.434  0.00  0.00    +0.000 C 
ENDBRANCH  35  41
ENDBRANCH  34  35
ENDBRANCH  29  34
ENDBRANCH  24  33
ENDBRANCH   5  24
TORSDOF 7
ENDMDL
MODEL 5
REMARK VINA RESULT:     -10.3      0.928      2.831
REMARK  Name = 44259476
REMARK  7 active torsions:
REMARK  status: ('A' for Active; 'I' for Inactive)
REMARK    1  A    between atoms: O_2  and  C_23
REMARK    2  A    between atoms: O_2  and  C_27
REMARK    3  A    between atoms: O_6  and  C_26
REMARK    4  A    between atoms: O_6  and  C_30
REMARK    5  A    between atoms: O_15  and  C_42
REMARK    6  A    between atoms: C_18  and  C_27
REMARK    7  A    between atoms: C_31  and  C_34
REMARK                            x       y       z     vdW  Elec       q    Type
REMARK                         _______ _______ _______ _____ _____    ______ ____
ROOT
ATOM      1  O   UNL     1     112.845 128.508 138.204  0.00  0.00    +0.000 OA
ATOM      2  O   UNL     1     113.419 126.967 136.353  0.00  0.00    +0.000 OA
ATOM      3  O   UNL     1     114.024 128.043 135.607  0.00  0.00    +0.000 OA
ATOM      4  O   UNL     1     114.049 130.728 136.755  0.00  0.00    +0.000 OA
ATOM      5  C   UNL     1     112.836 127.195 137.638  0.00  0.00    +0.000 A 
ATOM      6  C   UNL     1     112.644 127.708 138.254  0.00  0.00    +0.000 A 
ATOM      7  C   UNL     1     113.228 127.481 136.970  0.00  0.00    +0.000 A 
ATOM      8  C   UNL     1     113.428 128.279 136.919  0.00  0.00    +0.000 A 
ATOM      9  C   UNL     1     113.237 128.792 137.536  0.00  0.00    +0.000 A 
ATOM     10  C   UNL     1     113.837 128.564 136.218  0.00  0.00    +0.000 A 
ATOM     11  C   UNL     1     113.441 129.626 137.495  0.00  0.00    +0.000 A 
ATOM     12  C   UNL     1     114.048 129.394 136.160  0.00  0.00    +0.000 A 
ATOM     13  C   UNL     1     113.849 129.929 136.803  0.00  0.00    +0.000 A 
ENDROOT
BRANCH   6  16
ATOM     14  O   UNL     1     112.694 126.292 140.736  0.00  0.00    +0.000 OA
ATOM     15  O   UNL     1     111.079 126.569 140.927  0.00  0.00    +0.000 OA
ATOM     16  C   UNL     1     112.252 127.424 138.922  0.00  0.00    +0.000 A 
ATOM     17  C   UNL     1     111.445 127.563 139.017  0.00  0.00    +0.000 A 
ATOM     18  C   UNL     1     112.669 127.000 139.495  0.00  0.00    +0.000 A 
ATOM     19  C   UNL     1     111.054 127.278 139.686  0.00  0.00    +0.000 A 
ATOM     20  C   UNL     1     112.277 126.716 140.163  0.00  0.00    +0.000 A 
ATOM     21  C   UNL     1     111.470 126.854 140.258  0.00  0.00    +0.000 A 
BRANCH  19  22
ATOM     22  O   UNL     1     110.246 127.416 139.781  0.00  0.00    +0.000 OA
ATOM     23  C   UNL     1     109.931 128.158 139.603  0.00  0.00    +0.000 C 
ENDBRANCH  19  22
ENDBRANCH   6  16
BRANCH   5  24
ATOM     24  O   UNL     1     112.635 126.397 137.689  0.00  0.00    +0.000 OA
BRANCH  24  33
ATOM     25  O   UNL     1     111.585 126.526 136.727  0.00  0.00    +0.000 OA
ATOM     26  O   UNL     1     110.653 125.047 135.421  0.00  0.00    +0.000 OA
ATOM     27  O   UNL     1     111.762 124.112 136.210  0.00  0.00    +0.000 OA
ATOM     28  O   UNL     1     112.752 124.788 137.343  0.00  0.00    +0.000 OA
ATOM     29  C   UNL     1     111.090 126.188 136.160  0.00  0.00    +0.000 C 
ATOM     30  C   UNL     1     111.149 125.384 135.988  0.00  0.00    +0.000 C 
ATOM     31  C   UNL     1     111.703 124.916 136.382  0.00  0.00    +0.000 C 
ATOM     32  C   UNL     1     112.198 125.254 136.949  0.00  0.00    +0.000 C 
ATOM     33  C   UNL     1     112.139 126.059 137.122  0.00  0.00    +0.000 C 
BRANCH  29  34
ATOM     34  C   UNL     1     110.536 126.656 135.766  0.00  0.00    +0.000 C 
BRANCH  34  35
ATOM     35  O   UNL     1     109.998 127.109 136.198  0.00  0.00    +0.000 OA
BRANCH  35  41
ATOM     36  O   UNL     1     110.245 128.323 135.485  0.00  0.00    +0.000 OA
ATOM     37  O   UNL     1     108.425 127.557 136.415  0.00  0.00    +0.000 OA
ATOM     38  O   UNL     1     107.886 128.994 135.811  0.00  0.00    +0.000 OA
ATOM     39  O   UNL     1     108.919 129.984 134.989  0.00  0.00    +0.000 OA
ATOM     40  C   UNL     1     108.941 128.051 136.005  0.00  0.00    +0.000 C 
ATOM     41  C   UNL     1     109.728 127.827 135.896  0.00  0.00    +0.000 C 
ATOM     42  C   UNL     1     108.672 128.771 135.702  0.00  0.00    +0.000 C 
ATOM     43  C   UNL     1     109.188 129.265 135.291  0.00  0.00    +0.000 C 
ATOM     44  C   UNL     1     109.975 129.041 135.183  0.00  0.00    +0.000 C 
ATOM     45  C   UNL     1     110.492 129.536 134.772  0.00  0.00    +0.000 C 
ENDBRANCH  35  41
ENDBRANCH  34  35
ENDBRANCH  29  34
ENDBRANCH  24  33
ENDBRANCH   5  24
TORSDOF 7
ENDMDL
MODEL 6
REMARK VINA RESULT:     -10.2      1.639      4.978
REMARK  Name = 44259476
REMARK  7 active torsions:
REMARK  status: ('A' for Active; 'I' for Inactive)
REMARK    1  A    between atoms: O_2  and  C_23
REMARK    2  A    between atoms: O_2  and  C_27
REMARK    3  A    between atoms: O_6  and  C_26
REMARK    4  A    between atoms: O_6  and  C_30
REMARK    5  A    between atoms: O_15  and  C_42
REMARK    6  A    between atoms: C_18  and  C_27
REMARK    7  A    between atoms: C_31  and  C_34
REMARK                            x       y       z     vdW  Elec       q    Type
REMARK                         _______ _______ _______ _____ _____    ______ ____
ROOT
ATOM      1  O   UNL     1     112.482 130.700 136.713  0.00  0.00    +0.000 OA
ATOM      2  O   UNL     1     111.210 129.263 135.150  0.00  0.00    +0.000 OA
ATOM      3  O   UNL     1     112.432 128.717 134.612  0.00  0.00    +0.000 OA
ATOM      4  O   UNL     1     114.990 129.643 135.676  0.00  0.00    +0.000 OA
ATOM      5  C   UNL     1     111.233 130.243 136.189  0.00  0.00    +0.000 A 
ATOM      6  C   UNL     1     111.657 130.722 136.710  0.00  0.00    +0.000 A 
ATOM      7  C   UNL     1     111.634 129.742 135.671  0.00  0.00    +0.000 A 
ATOM      8  C   UNL     1     112.458 129.719 135.674  0.00  0.00    +0.000 A 
ATOM      9  C   UNL     1     112.882 130.198 136.195  0.00  0.00    +0.000 A 
ATOM     10  C   UNL     1     112.865 129.192 135.130  0.00  0.00    +0.000 A 
ATOM     11  C   UNL     1     113.742 130.183 136.208  0.00  0.00    +0.000 A 
ATOM     12  C   UNL     1     113.723 129.164 135.128  0.00  0.00    +0.000 A 
ATOM     13  C   UNL     1     114.165 129.663 135.671  0.00  0.00    +0.000 A 
ENDROOT
BRANCH   6  16
ATOM     14  O   UNL     1     110.711 131.319 139.340  0.00  0.00    +0.000 OA
ATOM     15  O   UNL     1     110.057 132.728 138.786  0.00  0.00    +0.000 OA
ATOM     16  C   UNL     1     111.257 131.224 137.228  0.00  0.00    +0.000 A 
ATOM     17  C   UNL     1     110.930 131.929 136.951  0.00  0.00    +0.000 A 
ATOM     18  C   UNL     1     111.184 131.020 138.025  0.00  0.00    +0.000 A 
ATOM     19  C   UNL     1     110.530 132.430 137.471  0.00  0.00    +0.000 A 
ATOM     20  C   UNL     1     110.784 131.522 138.544  0.00  0.00    +0.000 A 
ATOM     21  C   UNL     1     110.457 132.227 138.266  0.00  0.00    +0.000 A 
BRANCH  19  22
ATOM     22  O   UNL     1     110.203 133.135 137.193  0.00  0.00    +0.000 OA
ATOM     23  C   UNL     1     110.620 133.600 136.653  0.00  0.00    +0.000 C 
ENDBRANCH  19  22
ENDBRANCH   6  16
BRANCH   5  24
ATOM     24  O   UNL     1     110.409 130.266 136.187  0.00  0.00    +0.000 OA
BRANCH  24  33
ATOM     25  O   UNL     1     110.280 128.981 136.799  0.00  0.00    +0.000 OA
ATOM     26  O   UNL     1     108.681 127.500 136.690  0.00  0.00    +0.000 OA
ATOM     27  O   UNL     1     108.074 128.686 135.717  0.00  0.00    +0.000 OA
ATOM     28  O   UNL     1     108.938 130.069 135.465  0.00  0.00    +0.000 OA
ATOM     29  C   UNL     1     109.848 128.290 136.925  0.00  0.00    +0.000 C 
ATOM     30  C   UNL     1     109.113 128.192 136.564  0.00  0.00    +0.000 C 
ATOM     31  C   UNL     1     108.809 128.784 136.077  0.00  0.00    +0.000 C 
ATOM     32  C   UNL     1     109.241 129.476 135.951  0.00  0.00    +0.000 C 
ATOM     33  C   UNL     1     109.977 129.575 136.312  0.00  0.00    +0.000 C 
BRANCH  29  34
ATOM     34  C   UNL     1     110.152 127.697 137.412  0.00  0.00    +0.000 C 
BRANCH  34  35
ATOM     35  O   UNL     1     110.386 127.876 138.182  0.00  0.00    +0.000 OA
BRANCH  35  41
ATOM     36  O   UNL     1     111.691 127.296 138.174  0.00  0.00    +0.000 OA
ATOM     37  O   UNL     1     110.110 127.235 139.677  0.00  0.00    +0.000 OA
ATOM     38  O   UNL     1     111.278 126.334 140.417  0.00  0.00    +0.000 OA
ATOM     39  O   UNL     1     112.722 126.074 139.661  0.00  0.00    +0.000 OA
ATOM     40  C   UNL     1     110.832 127.105 139.300  0.00  0.00    +0.000 C 
ATOM     41  C   UNL     1     110.969 127.426 138.552  0.00  0.00    +0.000 C 
ATOM     42  C   UNL     1     111.416 126.655 139.669  0.00  0.00    +0.000 C 
ATOM     43  C   UNL     1     112.137 126.525 139.291  0.00  0.00    +0.000 C 
ATOM     44  C   UNL     1     112.275 126.846 138.544  0.00  0.00    +0.000 C 
ATOM     45  C   UNL     1     112.997 126.716 138.165  0.00  0.00    +0.000 C 
ENDBRANCH  35  41
ENDBRANCH  34  35
ENDBRANCH  29  34
ENDBRANCH  24  33
ENDBRANCH   5  24
TORSDOF 7
ENDMDL
MODEL 7
REMARK VINA RESULT:     -10.2      1.395      4.901
REMARK  Name = 44259476
REMARK  7 active torsions:
REMARK  status: ('A' for Active; 'I' for Inactive)
REMARK    1  A    between atoms: O_2  and  C_23
REMARK    2  A    between atoms: O_2  and  C_27
REMARK    3  A    between atoms: O_6  and  C_26
REMARK    4  A    between atoms: O_6  and  C_30
REMARK    5  A    between atoms: O_15  and  C_42
REMARK    6  A    between atoms: C_18  and  C_27
REMARK    7  A    between atoms: C_31  and  C_34
REMARK                            x       y       z     vdW  Elec       q    Type
REMARK                         _______ _______ _______ _____ _____    ______ ____
ROOT
ATOM      1  O   UNL     1     110.340 129.303 137.510  0.00  0.00    +0.000 OA
ATOM      2  O   UNL     1     111.677 129.910 135.518  0.00  0.00    +0.000 OA
ATOM      3  O   UNL     1     110.543 129.690 134.654  0.00  0.00    +0.000 OA
ATOM      4  O   UNL     1     108.008 128.839 135.829  0.00  0.00    +0.000 OA
ATOM      5  C   UNL     1     111.579 129.719 136.930  0.00  0.00    +0.000 A 
ATOM      6  C   UNL     1     111.133 129.517 137.595  0.00  0.00    +0.000 A 
ATOM      7  C   UNL     1     111.231 129.708 136.182  0.00  0.00    +0.000 A 
ATOM      8  C   UNL     1     110.439 129.494 136.098  0.00  0.00    +0.000 A 
ATOM      9  C   UNL     1     109.994 129.292 136.762  0.00  0.00    +0.000 A 
ATOM     10  C   UNL     1     110.089 129.486 135.312  0.00  0.00    +0.000 A 
ATOM     11  C   UNL     1     109.167 129.067 136.687  0.00  0.00    +0.000 A 
ATOM     12  C   UNL     1     109.265 129.264 135.218  0.00  0.00    +0.000 A 
ATOM     13  C   UNL     1     108.800 129.053 135.911  0.00  0.00    +0.000 A 
ENDROOT
BRANCH   6  16
ATOM     14  O   UNL     1     112.098 130.979 139.853  0.00  0.00    +0.000 OA
ATOM     15  O   UNL     1     112.518 129.564 140.590  0.00  0.00    +0.000 OA
ATOM     16  C   UNL     1     111.479 129.528 138.343  0.00  0.00    +0.000 A 
ATOM     17  C   UNL     1     111.689 128.820 138.712  0.00  0.00    +0.000 A 
ATOM     18  C   UNL     1     111.615 130.248 138.724  0.00  0.00    +0.000 A 
ATOM     19  C   UNL     1     112.035 128.833 139.461  0.00  0.00    +0.000 A 
ATOM     20  C   UNL     1     111.962 130.259 139.472  0.00  0.00    +0.000 A 
ATOM     21  C   UNL     1     112.171 129.551 139.841  0.00  0.00    +0.000 A 
BRANCH  19  22
ATOM     22  O   UNL     1     112.245 128.125 139.829  0.00  0.00    +0.000 OA
ATOM     23  C   UNL     1     111.767 127.457 139.743  0.00  0.00    +0.000 C 
ENDBRANCH  19  22
ENDBRANCH   6  16
BRANCH   5  24
ATOM     24  O   UNL     1     112.370 129.933 137.015  0.00  0.00    +0.000 OA
BRANCH  24  33
ATOM     25  O   UNL     1     112.870 128.702 136.488  0.00  0.00    +0.000 OA
ATOM     26  O   UNL     1     114.712 128.252 135.409  0.00  0.00    +0.000 OA
ATOM     27  O   UNL     1     114.885 129.874 135.659  0.00  0.00    +0.000 OA
ATOM     28  O   UNL     1     113.714 130.714 136.462  0.00  0.00    +0.000 OA
ATOM     29  C   UNL     1     113.456 128.281 136.087  0.00  0.00    +0.000 C 
ATOM     30  C   UNL     1     114.127 128.672 135.811  0.00  0.00    +0.000 C 
ATOM     31  C   UNL     1     114.214 129.483 135.935  0.00  0.00    +0.000 C 
ATOM     32  C   UNL     1     113.628 129.903 136.337  0.00  0.00    +0.000 C 
ATOM     33  C   UNL     1     112.956 129.512 136.614  0.00  0.00    +0.000 C 
BRANCH  29  34
ATOM     34  C   UNL     1     113.368 127.470 135.962  0.00  0.00    +0.000 C 
BRANCH  34  35
ATOM     35  O   UNL     1     113.252 126.965 136.604  0.00  0.00    +0.000 OA
BRANCH  35  41
ATOM     36  O   UNL     1     112.107 126.262 136.119  0.00  0.00    +0.000 OA
ATOM     37  O   UNL     1     113.880 125.550 137.173  0.00  0.00    +0.000 OA
ATOM     38  O   UNL     1     113.049 124.138 136.973  0.00  0.00    +0.000 OA
ATOM     39  O   UNL     1     111.590 124.143 136.203  0.00  0.00    +0.000 OA
ATOM     40  C   UNL     1     113.151 125.552 136.789  0.00  0.00    +0.000 C 
ATOM     41  C   UNL     1     112.837 126.259 136.504  0.00  0.00    +0.000 C 
ATOM     42  C   UNL     1     112.735 124.846 136.688  0.00  0.00    +0.000 C 
ATOM     43  C   UNL     1     112.006 124.848 136.304  0.00  0.00    +0.000 C 
ATOM     44  C   UNL     1     111.692 125.556 136.019  0.00  0.00    +0.000 C 
ATOM     45  C   UNL     1     110.961 125.558 135.634  0.00  0.00    +0.000 C 
ENDBRANCH  35  41
ENDBRANCH  34  35
ENDBRANCH  29  34
ENDBRANCH  24  33
ENDBRANCH   5  24
TORSDOF 7
ENDMDL
MODEL 8
REMARK VINA RESULT:     -10.1      1.777      3.472
REMARK  Name = 44259476
REMARK  7 active torsions:
REMARK  status: ('A' for Active; 'I' for Inactive)
REMARK    1  A    between atoms: O_2  and  C_23
REMARK    2  A    between atoms: O_2  and  C_27
REMARK    3  A    between atoms: O_6  and  C_26
REMARK    4  A    between atoms: O_6  and  C_30
REMARK    5  A    between atoms: O_15  and  C_42
REMARK    6  A    between atoms: C_18  and  C_27
REMARK    7  A    between atoms: C_31  and  C_34
REMARK                            x       y       z     vdW  Elec       q    Type
REMARK                         _______ _______ _______ _____ _____    ______ ____
ROOT
ATOM      1  O   UNL     1     113.879 126.384 138.287  0.00  0.00    +0.000 OA
ATOM      2  O   UNL     1     111.841 124.987 138.153  0.00  0.00    +0.000 OA
ATOM      3  O   UNL     1     112.369 124.274 137.016  0.00  0.00    +0.000 OA
ATOM      4  O   UNL     1     115.010 124.989 135.995  0.00  0.00    +0.000 OA
ATOM      5  C   UNL     1     112.586 126.030 138.783  0.00  0.00    +0.000 A 
ATOM      6  C   UNL     1     113.265 126.496 138.828  0.00  0.00    +0.000 A 
ATOM      7  C   UNL     1     112.520 125.452 138.198  0.00  0.00    +0.000 A 
ATOM      8  C   UNL     1     113.133 125.340 137.658  0.00  0.00    +0.000 A 
ATOM      9  C   UNL     1     113.812 125.806 137.702  0.00  0.00    +0.000 A 
ATOM     10  C   UNL     1     113.052 124.735 137.053  0.00  0.00    +0.000 A 
ATOM     11  C   UNL     1     114.458 125.699 137.145  0.00  0.00    +0.000 A 
ATOM     12  C   UNL     1     113.687 124.614 136.487  0.00  0.00    +0.000 A 
ATOM     13  C   UNL     1     114.395 125.099 136.534  0.00  0.00    +0.000 A 
ENDROOT
BRANCH   6  16
ATOM     14  O   UNL     1     113.788 127.221 141.542  0.00  0.00    +0.000 OA
ATOM     15  O   UNL     1     113.533 128.807 141.168  0.00  0.00    +0.000 OA
ATOM     16  C   UNL     1     113.332 127.074 139.412  0.00  0.00    +0.000 A 
ATOM     17  C   UNL     1     113.204 127.868 139.225  0.00  0.00    +0.000 A 
ATOM     18  C   UNL     1     113.526 126.858 140.185  0.00  0.00    +0.000 A 
ATOM     19  C   UNL     1     113.271 128.445 139.811  0.00  0.00    +0.000 A 
ATOM     20  C   UNL     1     113.593 127.437 140.770  0.00  0.00    +0.000 A 
ATOM     21  C   UNL     1     113.466 128.230 140.583  0.00  0.00    +0.000 A 
BRANCH  19  22
ATOM     22  O   UNL     1     113.144 129.238 139.624  0.00  0.00    +0.000 OA
ATOM     23  C   UNL     1     113.471 129.558 138.936  0.00  0.00    +0.000 C 
ENDBRANCH  19  22
ENDBRANCH   6  16
BRANCH   5  24
ATOM     24  O   UNL     1     111.973 126.143 139.323  0.00  0.00    +0.000 OA
BRANCH  24  33
ATOM     25  O   UNL     1     111.102 126.789 138.392  0.00  0.00    +0.000 OA
ATOM     26  O   UNL     1     108.925 126.806 138.246  0.00  0.00    +0.000 OA
ATOM     27  O   UNL     1     109.141 125.845 139.569  0.00  0.00    +0.000 OA
ATOM     28  O   UNL     1     110.665 125.513 140.108  0.00  0.00    +0.000 OA
ATOM     29  C   UNL     1     110.340 126.955 138.123  0.00  0.00    +0.000 C 
ATOM     30  C   UNL     1     109.687 126.640 138.515  0.00  0.00    +0.000 C 
ATOM     31  C   UNL     1     109.795 126.159 139.177  0.00  0.00    +0.000 C 
ATOM     32  C   UNL     1     110.557 125.994 139.446  0.00  0.00    +0.000 C 
ATOM     33  C   UNL     1     111.211 126.308 139.054  0.00  0.00    +0.000 C 
BRANCH  29  34
ATOM     34  C   UNL     1     110.233 127.436 137.461  0.00  0.00    +0.000 C 
BRANCH  34  35
ATOM     35  O   UNL     1     110.528 128.206 137.459  0.00  0.00    +0.000 OA
BRANCH  35  41
ATOM     36  O   UNL     1     110.800 128.210 136.056  0.00  0.00    +0.000 OA
ATOM     37  O   UNL     1     110.299 129.840 137.419  0.00  0.00    +0.000 OA
ATOM     38  O   UNL     1     110.456 130.660 135.996  0.00  0.00    +0.000 OA
ATOM     39  O   UNL     1     110.842 129.847 134.613  0.00  0.00    +0.000 OA
ATOM     40  C   UNL     1     110.492 129.434 136.728  0.00  0.00    +0.000 C 
ATOM     41  C   UNL     1     110.607 128.617 136.748  0.00  0.00    +0.000 C 
ATOM     42  C   UNL     1     110.571 129.843 136.016  0.00  0.00    +0.000 C 
ATOM     43  C   UNL     1     110.764 129.437 135.325  0.00  0.00    +0.000 C 
ATOM     44  C   UNL     1     110.878 128.620 135.345  0.00  0.00    +0.000 C 
ATOM     45  C   UNL     1     111.071 128.213 134.653  0.00  0.00    +0.000 C 
ENDBRANCH  35  41
ENDBRANCH  34  35
ENDBRANCH  29  34
ENDBRANCH  24  33
ENDBRANCH   5  24
TORSDOF 7
ENDMDL
MODEL 9
REMARK VINA RESULT:     -10.1      1.389      4.448
REMARK  Name = 44259476
REMARK  7 active torsions:
REMARK  status: ('A' for Active; 'I' for Inactive)
REMARK    1  A    between atoms: O_2  and  C_23
REMARK    2  A    between atoms: O_2  and  C_27
REMARK    3  A    between atoms: O_6  and  C_26
REMARK    4  A    between atoms: O_6  and  C_30
REMARK    5  A    between atoms: O_15  and  C_42
REMARK    6  A    between atoms: C_18  and  C_27
REMARK    7  A    between atoms: C_31  and  C_34
REMARK                            x       y       z     vdW  Elec       q    Type
REMARK                         _______ _______ _______ _____ _____    ______ ____
ROOT
ATOM      1  O   UNL     1     111.912 129.711 136.425  0.00  0.00    +0.000 OA
ATOM      2  O   UNL     1     112.696 127.586 135.429  0.00  0.00    +0.000 OA
ATOM      3  O   UNL     1     114.070 128.009 135.535  0.00  0.00    +0.000 OA
ATOM      4  O   UNL     1     114.663 130.633 136.672  0.00  0.00    +0.000 OA
ATOM      5  C   UNL     1     111.627 128.426 135.868  0.00  0.00    +0.000 A 
ATOM      6  C   UNL     1     111.366 129.135 136.200  0.00  0.00    +0.000 A 
ATOM      7  C   UNL     1     112.435 128.294 135.761  0.00  0.00    +0.000 A 
ATOM      8  C   UNL     1     112.980 128.870 135.985  0.00  0.00    +0.000 A 
ATOM      9  C   UNL     1     112.719 129.578 136.317  0.00  0.00    +0.000 A 
ATOM     10  C   UNL     1     113.819 128.720 135.868  0.00  0.00    +0.000 A 
ATOM     11  C   UNL     1     113.278 130.186 136.555  0.00  0.00    +0.000 A 
ATOM     12  C   UNL     1     114.392 129.316 136.100  0.00  0.00    +0.000 A 
ATOM     13  C   UNL     1     114.120 130.055 136.446  0.00  0.00    +0.000 A 
ENDROOT
BRANCH   6  16
ATOM     14  O   UNL     1     108.804 129.807 135.125  0.00  0.00    +0.000 OA
ATOM     15  O   UNL     1     108.137 129.667 136.628  0.00  0.00    +0.000 OA
ATOM     16  C   UNL     1     110.559 129.268 136.308  0.00  0.00    +0.000 A 
ATOM     17  C   UNL     1     110.225 129.198 137.059  0.00  0.00    +0.000 A 
ATOM     18  C   UNL     1     110.085 129.471 135.663  0.00  0.00    +0.000 A 
ATOM     19  C   UNL     1     109.418 129.331 137.165  0.00  0.00    +0.000 A 
ATOM     20  C   UNL     1     109.278 129.604 135.770  0.00  0.00    +0.000 A 
ATOM     21  C   UNL     1     108.945 129.534 136.522  0.00  0.00    +0.000 A 
BRANCH  19  22
ATOM     22  O   UNL     1     109.084 129.262 137.917  0.00  0.00    +0.000 OA
ATOM     23  C   UNL     1     109.517 129.487 138.583  0.00  0.00    +0.000 C 
ENDBRANCH  19  22
ENDBRANCH   6  16
BRANCH   5  24
ATOM     24  O   UNL     1     111.081 127.850 135.644  0.00  0.00    +0.000 OA
BRANCH  24  33
ATOM     25  O   UNL     1     111.410 126.977 136.726  0.00  0.00    +0.000 OA
ATOM     26  O   UNL     1     111.284 124.806 136.901  0.00  0.00    +0.000 OA
ATOM     27  O   UNL     1     110.728 125.028 135.363  0.00  0.00    +0.000 OA
ATOM     28  O   UNL     1     110.627 126.550 134.735  0.00  0.00    +0.000 OA
ATOM     29  C   UNL     1     111.461 126.216 137.041  0.00  0.00    +0.000 C 
ATOM     30  C   UNL     1     111.234 125.567 136.586  0.00  0.00    +0.000 C 
ATOM     31  C   UNL     1     110.955 125.678 135.818  0.00  0.00    +0.000 C 
ATOM     32  C   UNL     1     110.905 126.439 135.503  0.00  0.00    +0.000 C 
ATOM     33  C   UNL     1     111.132 127.089 135.958  0.00  0.00    +0.000 C 
BRANCH  29  34
ATOM     34  C   UNL     1     111.739 126.106 137.810  0.00  0.00    +0.000 C 
BRANCH  34  35
ATOM     35  O   UNL     1     111.367 126.485 138.441  0.00  0.00    +0.000 OA
BRANCH  35  41
ATOM     36  O   UNL     1     112.534 126.880 139.165  0.00  0.00    +0.000 OA
ATOM     37  O   UNL     1     110.624 126.080 139.858  0.00  0.00    +0.000 OA
ATOM     38  O   UNL     1     111.420 126.272 141.290  0.00  0.00    +0.000 OA
ATOM     39  O   UNL     1     112.958 126.869 141.306  0.00  0.00    +0.000 OA
ATOM     40  C   UNL     1     111.393 126.378 139.866  0.00  0.00    +0.000 C 
ATOM     41  C   UNL     1     111.764 126.581 139.157  0.00  0.00    +0.000 C 
ATOM     42  C   UNL     1     111.791 126.475 140.582  0.00  0.00    +0.000 C 
ATOM     43  C   UNL     1     112.560 126.773 140.590  0.00  0.00    +0.000 C 
ATOM     44  C   UNL     1     112.931 126.975 139.882  0.00  0.00    +0.000 C 
ATOM     45  C   UNL     1     113.701 127.274 139.889  0.00  0.00    +0.000 C 
ENDBRANCH  35  41
ENDBRANCH  34  35
ENDBRANCH  29  34
ENDBRANCH  24  33
ENDBRANCH   5  24
TORSDOF 7
ENDMDL
MODEL 10
REMARK VINA RESULT:     -10.1      1.100      3.880
REMARK  Name = 44259476
REMARK  7 active torsions:
REMARK  status: ('A' for Active; 'I' for Inactive)
REMARK    1  A    between atoms: O_2  and  C_23
REMARK    2  A    between atoms: O_2  and  C_27
REMARK    3  A    between atoms: O_6  and  C_26
REMARK    4  A    between atoms: O_6  and  C_30
REMARK    5  A    between atoms: O_15  and  C_42
REMARK    6  A    between atoms: C_18  and  C_27
REMARK    7  A    between atoms: C_31  and  C_34
REMARK                            x       y       z     vdW  Elec       q    Type
REMARK                         _______ _______ _______ _____ _____    ______ ____
ROOT
ATOM      1  O   UNL     1     111.815 129.241 135.648  0.00  0.00    +0.000 OA
ATOM      2  O   UNL     1     112.600 129.698 137.950  0.00  0.00    +0.000 OA
ATOM      3  O   UNL     1     113.939 129.948 137.475  0.00  0.00    +0.000 OA
ATOM      4  O   UNL     1     114.494 129.730 134.615  0.00  0.00    +0.000 OA
ATOM      5  C   UNL     1     111.549 129.349 137.048  0.00  0.00    +0.000 A 
ATOM      6  C   UNL     1     111.287 129.196 136.281  0.00  0.00    +0.000 A 
ATOM      7  C   UNL     1     112.339 129.546 137.183  0.00  0.00    +0.000 A 
ATOM      8  C   UNL     1     112.866 129.590 136.551  0.00  0.00    +0.000 A 
ATOM      9  C   UNL     1     112.604 129.438 135.783  0.00  0.00    +0.000 A 
ATOM     10  C   UNL     1     113.687 129.797 136.704  0.00  0.00    +0.000 A 
ATOM     11  C   UNL     1     113.145 129.481 135.116  0.00  0.00    +0.000 A 
ATOM     12  C   UNL     1     114.241 129.845 136.050  0.00  0.00    +0.000 A 
ATOM     13  C   UNL     1     113.968 129.686 135.250  0.00  0.00    +0.000 A 
ENDROOT
BRANCH   6  16
ATOM     14  O   UNL     1     108.545 129.973 136.061  0.00  0.00    +0.000 OA
ATOM     15  O   UNL     1     108.128 128.410 135.739  0.00  0.00    +0.000 OA
ATOM     16  C   UNL     1     110.497 128.999 136.145  0.00  0.00    +0.000 A 
ATOM     17  C   UNL     1     110.289 128.217 135.984  0.00  0.00    +0.000 A 
ATOM     18  C   UNL     1     109.916 129.585 136.171  0.00  0.00    +0.000 A 
ATOM     19  C   UNL     1     109.499 128.021 135.849  0.00  0.00    +0.000 A 
ATOM     20  C   UNL     1     109.127 129.387 136.035  0.00  0.00    +0.000 A 
ATOM     21  C   UNL     1     108.918 128.606 135.874  0.00  0.00    +0.000 A 
BRANCH  19  22
ATOM     22  O   UNL     1     109.290 127.239 135.688  0.00  0.00    +0.000 OA
ATOM     23  C   UNL     1     109.708 126.808 135.121  0.00  0.00    +0.000 C 
ENDBRANCH  19  22
ENDBRANCH   6  16
BRANCH   5  24
ATOM     24  O   UNL     1     111.021 129.304 137.680  0.00  0.00    +0.000 OA
BRANCH  24  33
ATOM     25  O   UNL     1     111.535 128.062 138.165  0.00  0.00    +0.000 OA
ATOM     26  O   UNL     1     111.618 127.241 140.185  0.00  0.00    +0.000 OA
ATOM     27  O   UNL     1     110.889 128.693 140.469  0.00  0.00    +0.000 OA
ATOM     28  O   UNL     1     110.590 129.725 139.216  0.00  0.00    +0.000 OA
ATOM     29  C   UNL     1     111.684 127.546 138.791  0.00  0.00    +0.000 C 
ATOM     30  C   UNL     1     111.469 127.756 139.559  0.00  0.00    +0.000 C 
ATOM     31  C   UNL     1     111.104 128.483 139.701  0.00  0.00    +0.000 C 
ATOM     32  C   UNL     1     110.955 128.999 139.075  0.00  0.00    +0.000 C 
ATOM     33  C   UNL     1     111.170 128.788 138.306  0.00  0.00    +0.000 C 
BRANCH  29  34
ATOM     34  C   UNL     1     112.049 126.819 138.649  0.00  0.00    +0.000 C 
BRANCH  34  35
ATOM     35  O   UNL     1     111.708 126.284 138.121  0.00  0.00    +0.000 OA
BRANCH  35  41
ATOM     36  O   UNL     1     112.979 125.775 137.710  0.00  0.00    +0.000 OA
ATOM     37  O   UNL     1     110.991 124.876 137.649  0.00  0.00    +0.000 OA
ATOM     38  O   UNL     1     111.902 123.662 137.003  0.00  0.00    +0.000 OA
ATOM     39  O   UNL     1     113.532 123.856 136.828  0.00  0.00    +0.000 OA
ATOM     40  C   UNL     1     111.805 124.973 137.562  0.00  0.00    +0.000 C 
ATOM     41  C   UNL     1     112.164 125.677 137.798  0.00  0.00    +0.000 C 
ATOM     42  C   UNL     1     112.261 124.366 137.239  0.00  0.00    +0.000 C 
ATOM     43  C   UNL     1     113.075 124.463 137.151  0.00  0.00    +0.000 C 
ATOM     44  C   UNL     1     113.434 125.168 137.387  0.00  0.00    +0.000 C 
ATOM     45  C   UNL     1     114.249 125.265 137.300  0.00  0.00    +0.000 C 
ENDBRANCH  35  41
ENDBRANCH  34  35
ENDBRANCH  29  34
ENDBRANCH  24  33
ENDBRANCH   5  24
TORSDOF 7
ENDMDL
