MODEL 1
REMARK VINA RESULT:     -10.1      0.000      0.000
REMARK  Name = 44257780
REMARK  5 active torsions:
REMARK  status: ('A' for Active; 'I' for Inactive)
REMARK    1  A    between atoms: O_5  and  C_23
REMARK    2  A    between atoms: O_5  and  C_32
REMARK    3  A    between atoms: C_15  and  C_24
REMARK    4  A    between atoms: C_21  and  C_26
REMARK    5  A    between atoms: C_34  and  C_35
REMARK                            x       y       z     vdW  Elec       q    Type
REMARK                         _______ _______ _______ _____ _____    ______ ____
ROOT
ATOM      1  O   UNL     1     112.002 127.936 139.904  0.00  0.00    +0.000 OA
ATOM      2  O   UNL     1     112.750 126.917 137.300  0.00  0.00    +0.000 OA
ATOM      3  O   UNL     1     111.046 125.374 138.998  0.00  0.00    +0.000 OA
ATOM      4  O   UNL     1     113.250 128.204 137.717  0.00  0.00    +0.000 OA
ATOM      5  C   UNL     1     111.898 126.146 138.150  0.00  0.00    +0.000 A 
ATOM      6  C   UNL     1     112.342 126.827 138.012  0.00  0.00    +0.000 A 
ATOM      7  C   UNL     1     111.490 126.055 138.861  0.00  0.00    +0.000 A 
ATOM      8  C   UNL     1     112.379 127.418 138.587  0.00  0.00    +0.000 A 
ATOM      9  C   UNL     1     111.972 127.328 139.299  0.00  0.00    +0.000 A 
ATOM     10  C   UNL     1     111.527 126.646 139.436  0.00  0.00    +0.000 A 
ATOM     11  C   UNL     1     112.845 128.123 138.432  0.00  0.00    +0.000 A 
ATOM     12  C   UNL     1     112.464 128.649 139.767  0.00  0.00    +0.000 A 
ATOM     13  C   UNL     1     112.888 128.742 139.026  0.00  0.00    +0.000 A 
ENDROOT
BRANCH   5  18
ATOM     14  O   UNL     1     112.414 124.943 137.575  0.00  0.00    +0.000 OA
ATOM     15  O   UNL     1     110.643 125.005 135.849  0.00  0.00    +0.000 OA
ATOM     16  O   UNL     1     111.750 123.782 135.851  0.00  0.00    +0.000 OA
ATOM     17  C   UNL     1     111.233 124.985 136.424  0.00  0.00    +0.000 C 
ATOM     18  C   UNL     1     111.861 125.555 137.575  0.00  0.00    +0.000 C 
ATOM     19  C   UNL     1     111.787 124.373 136.426  0.00  0.00    +0.000 C 
ATOM     20  C   UNL     1     111.271 125.575 136.999  0.00  0.00    +0.000 C 
ATOM     21  C   UNL     1     112.377 124.353 137.002  0.00  0.00    +0.000 C 
ATOM     22  C   UNL     1     112.931 123.740 137.002  0.00  0.00    +0.000 C 
ENDBRANCH   5  18
BRANCH  12  24
ATOM     23  C   UNL     1     112.569 130.417 141.496  0.00  0.00    +0.000 A 
ATOM     24  C   UNL     1     112.499 129.238 140.344  0.00  0.00    +0.000 A 
ATOM     25  C   UNL     1     113.176 129.860 141.437  0.00  0.00    +0.000 A 
ATOM     26  C   UNL     1     111.927 130.383 140.979  0.00  0.00    +0.000 A 
ATOM     27  C   UNL     1     113.141 129.271 140.861  0.00  0.00    +0.000 A 
ATOM     28  C   UNL     1     111.892 129.793 140.402  0.00  0.00    +0.000 A 
BRANCH  23  29
ATOM     29  O   UNL     1     112.604 131.006 142.072  0.00  0.00    +0.000 OA
BRANCH  29  38
ATOM     30  O   UNL     1     112.116 130.245 143.179  0.00  0.00    +0.000 OA
ATOM     31  O   UNL     1     110.732 130.779 144.780  0.00  0.00    +0.000 OA
ATOM     32  O   UNL     1     110.772 132.187 143.921  0.00  0.00    +0.000 OA
ATOM     33  O   UNL     1     111.708 132.300 142.567  0.00  0.00    +0.000 OA
ATOM     34  C   UNL     1     111.200 130.836 144.103  0.00  0.00    +0.000 C 
ATOM     35  C   UNL     1     111.220 131.540 143.674  0.00  0.00    +0.000 C 
ATOM     36  C   UNL     1     111.649 130.188 143.856  0.00  0.00    +0.000 C 
ATOM     37  C   UNL     1     111.688 131.596 142.996  0.00  0.00    +0.000 C 
ATOM     38  C   UNL     1     112.136 130.949 142.749  0.00  0.00    +0.000 C 
BRANCH  36  40
ATOM     39  O   UNL     1     111.348 128.793 143.933  0.00  0.00    +0.000 OA
ATOM     40  C   UNL     1     111.629 129.485 144.286  0.00  0.00    +0.000 C 
ENDBRANCH  36  40
ENDBRANCH  29  38
ENDBRANCH  23  29
ENDBRANCH  12  24
TORSDOF 5
ENDMDL
MODEL 2
REMARK VINA RESULT:     -10.1      7.761     10.550
REMARK  Name = 44257780
REMARK  5 active torsions:
REMARK  status: ('A' for Active; 'I' for Inactive)
REMARK    1  A    between atoms: O_5  and  C_23
REMARK    2  A    between atoms: O_5  and  C_32
REMARK    3  A    between atoms: C_15  and  C_24
REMARK    4  A    between atoms: C_21  and  C_26
REMARK    5  A    between atoms: C_34  and  C_35
REMARK                            x       y       z     vdW  Elec       q    Type
REMARK                         _______ _______ _______ _____ _____    ______ ____
ROOT
ATOM      1  O   UNL     1     104.232 131.083 141.768  0.00  0.00    +0.000 OA
ATOM      2  O   UNL     1     102.003 132.905 141.472  0.00  0.00    +0.000 OA
ATOM      3  O   UNL     1     104.680 133.892 141.311  0.00  0.00    +0.000 OA
ATOM      4  O   UNL     1     101.737 131.505 141.699  0.00  0.00    +0.000 OA
ATOM      5  C   UNL     1     103.341 133.398 141.391  0.00  0.00    +0.000 A 
ATOM      6  C   UNL     1     102.816 132.770 141.494  0.00  0.00    +0.000 A 
ATOM      7  C   UNL     1     104.155 133.263 141.413  0.00  0.00    +0.000 A 
ATOM      8  C   UNL     1     103.105 132.007 141.618  0.00  0.00    +0.000 A 
ATOM      9  C   UNL     1     103.919 131.872 141.640  0.00  0.00    +0.000 A 
ATOM     10  C   UNL     1     104.444 132.501 141.538  0.00  0.00    +0.000 A 
ATOM     11  C   UNL     1     102.549 131.361 141.723  0.00  0.00    +0.000 A 
ATOM     12  C   UNL     1     103.690 130.424 141.875  0.00  0.00    +0.000 A 
ATOM     13  C   UNL     1     102.843 130.564 141.852  0.00  0.00    +0.000 A 
ENDROOT
BRANCH   5  18
ATOM     14  O   UNL     1     102.873 134.644 141.911  0.00  0.00    +0.000 OA
ATOM     15  O   UNL     1     102.544 135.482 139.605  0.00  0.00    +0.000 OA
ATOM     16  O   UNL     1     102.186 136.449 140.894  0.00  0.00    +0.000 OA
ATOM     17  C   UNL     1     102.654 135.203 140.374  0.00  0.00    +0.000 C 
ATOM     18  C   UNL     1     103.052 134.160 141.267  0.00  0.00    +0.000 C 
ATOM     19  C   UNL     1     102.475 135.686 141.018  0.00  0.00    +0.000 C 
ATOM     20  C   UNL     1     102.942 134.440 140.499  0.00  0.00    +0.000 C 
ATOM     21  C   UNL     1     102.585 135.406 141.787  0.00  0.00    +0.000 C 
ATOM     22  C   UNL     1     102.405 135.890 142.431  0.00  0.00    +0.000 C 
ENDBRANCH   5  18
BRANCH  12  24
ATOM     23  C   UNL     1     104.566 128.139 142.247  0.00  0.00    +0.000 A 
ATOM     24  C   UNL     1     103.982 129.662 141.999  0.00  0.00    +0.000 A 
ATOM     25  C   UNL     1     104.506 128.666 142.880  0.00  0.00    +0.000 A 
ATOM     26  C   UNL     1     104.333 128.374 141.492  0.00  0.00    +0.000 A 
ATOM     27  C   UNL     1     104.214 129.428 142.756  0.00  0.00    +0.000 A 
ATOM     28  C   UNL     1     104.041 129.136 141.368  0.00  0.00    +0.000 A 
BRANCH  23  29
ATOM     29  O   UNL     1     104.857 127.377 142.371  0.00  0.00    +0.000 OA
BRANCH  29  38
ATOM     30  O   UNL     1     106.227 127.679 142.099  0.00  0.00    +0.000 OA
ATOM     31  O   UNL     1     108.063 126.921 143.003  0.00  0.00    +0.000 OA
ATOM     32  O   UNL     1     106.928 126.089 143.862  0.00  0.00    +0.000 OA
ATOM     33  O   UNL     1     105.324 126.317 143.546  0.00  0.00    +0.000 OA
ATOM     34  C   UNL     1     107.262 127.035 142.844  0.00  0.00    +0.000 C 
ATOM     35  C   UNL     1     106.694 126.619 143.274  0.00  0.00    +0.000 C 
ATOM     36  C   UNL     1     107.028 127.565 142.257  0.00  0.00    +0.000 C 
ATOM     37  C   UNL     1     105.892 126.733 143.116  0.00  0.00    +0.000 C 
ATOM     38  C   UNL     1     105.658 127.263 142.529  0.00  0.00    +0.000 C 
BRANCH  36  40
ATOM     39  O   UNL     1     107.619 127.919 141.005  0.00  0.00    +0.000 OA
ATOM     40  C   UNL     1     107.596 127.981 141.827  0.00  0.00    +0.000 C 
ENDBRANCH  36  40
ENDBRANCH  29  38
ENDBRANCH  23  29
ENDBRANCH  12  24
TORSDOF 5
ENDMDL
MODEL 3
REMARK VINA RESULT:     -10.0      0.898      1.573
REMARK  Name = 44257780
REMARK  5 active torsions:
REMARK  status: ('A' for Active; 'I' for Inactive)
REMARK    1  A    between atoms: O_5  and  C_23
REMARK    2  A    between atoms: O_5  and  C_32
REMARK    3  A    between atoms: C_15  and  C_24
REMARK    4  A    between atoms: C_21  and  C_26
REMARK    5  A    between atoms: C_34  and  C_35
REMARK                            x       y       z     vdW  Elec       q    Type
REMARK                         _______ _______ _______ _____ _____    ______ ____
ROOT
ATOM      1  O   UNL     1     112.829 128.549 139.594  0.00  0.00    +0.000 OA
ATOM      2  O   UNL     1     112.464 125.696 139.269  0.00  0.00    +0.000 OA
ATOM      3  O   UNL     1     113.441 127.265 137.089  0.00  0.00    +0.000 OA
ATOM      4  O   UNL     1     112.146 126.301 140.539  0.00  0.00    +0.000 OA
ATOM      5  C   UNL     1     112.953 126.481 138.179  0.00  0.00    +0.000 A 
ATOM      6  C   UNL     1     112.688 126.427 138.958  0.00  0.00    +0.000 A 
ATOM      7  C   UNL     1     113.176 127.212 137.868  0.00  0.00    +0.000 A 
ATOM      8  C   UNL     1     112.645 127.106 139.427  0.00  0.00    +0.000 A 
ATOM      9  C   UNL     1     112.868 127.836 139.116  0.00  0.00    +0.000 A 
ATOM     10  C   UNL     1     113.134 127.890 138.337  0.00  0.00    +0.000 A 
ATOM     11  C   UNL     1     112.367 127.037 140.237  0.00  0.00    +0.000 A 
ATOM     12  C   UNL     1     112.553 128.500 140.407  0.00  0.00    +0.000 A 
ATOM     13  C   UNL     1     112.321 127.739 140.730  0.00  0.00    +0.000 A 
ENDROOT
BRANCH   5  18
ATOM     14  O   UNL     1     112.337 125.558 137.279  0.00  0.00    +0.000 OA
ATOM     15  O   UNL     1     114.441 124.259 137.169  0.00  0.00    +0.000 OA
ATOM     16  O   UNL     1     113.123 123.770 136.305  0.00  0.00    +0.000 OA
ATOM     17  C   UNL     1     113.740 124.692 137.206  0.00  0.00    +0.000 C 
ATOM     18  C   UNL     1     112.995 125.803 137.711  0.00  0.00    +0.000 C 
ATOM     19  C   UNL     1     113.080 124.448 136.774  0.00  0.00    +0.000 C 
ATOM     20  C   UNL     1     113.696 125.370 137.674  0.00  0.00    +0.000 C 
ATOM     21  C   UNL     1     112.379 124.881 136.811  0.00  0.00    +0.000 C 
ATOM     22  C   UNL     1     111.720 124.635 136.378  0.00  0.00    +0.000 C 
ENDBRANCH   5  18
BRANCH  12  24
ATOM     23  C   UNL     1     112.429 130.538 141.806  0.00  0.00    +0.000 A 
ATOM     24  C   UNL     1     112.512 129.180 140.873  0.00  0.00    +0.000 A 
ATOM     25  C   UNL     1     113.125 130.094 141.784  0.00  0.00    +0.000 A 
ATOM     26  C   UNL     1     111.776 130.303 141.361  0.00  0.00    +0.000 A 
ATOM     27  C   UNL     1     113.166 129.415 141.318  0.00  0.00    +0.000 A 
ATOM     28  C   UNL     1     111.817 129.623 140.895  0.00  0.00    +0.000 A 
BRANCH  23  29
ATOM     29  O   UNL     1     112.388 131.218 142.272  0.00  0.00    +0.000 OA
BRANCH  29  38
ATOM     30  O   UNL     1     112.030 130.522 143.468  0.00  0.00    +0.000 OA
ATOM     31  O   UNL     1     110.810 131.138 145.168  0.00  0.00    +0.000 OA
ATOM     32  O   UNL     1     110.736 132.490 144.227  0.00  0.00    +0.000 OA
ATOM     33  O   UNL     1     111.525 132.530 142.778  0.00  0.00    +0.000 OA
ATOM     34  C   UNL     1     111.205 131.157 144.444  0.00  0.00    +0.000 C 
ATOM     35  C   UNL     1     111.167 131.834 143.974  0.00  0.00    +0.000 C 
ATOM     36  C   UNL     1     111.636 130.501 144.191  0.00  0.00    +0.000 C 
ATOM     37  C   UNL     1     111.562 131.854 143.249  0.00  0.00    +0.000 C 
ATOM     38  C   UNL     1     111.994 131.198 142.996  0.00  0.00    +0.000 C 
BRANCH  36  40
ATOM     39  O   UNL     1     111.327 129.123 144.404  0.00  0.00    +0.000 OA
ATOM     40  C   UNL     1     111.673 129.826 144.662  0.00  0.00    +0.000 C 
ENDBRANCH  36  40
ENDBRANCH  29  38
ENDBRANCH  23  29
ENDBRANCH  12  24
TORSDOF 5
ENDMDL
MODEL 4
REMARK VINA RESULT:      -9.9      8.188      9.663
REMARK  Name = 44257780
REMARK  5 active torsions:
REMARK  status: ('A' for Active; 'I' for Inactive)
REMARK    1  A    between atoms: O_5  and  C_23
REMARK    2  A    between atoms: O_5  and  C_32
REMARK    3  A    between atoms: C_15  and  C_24
REMARK    4  A    between atoms: C_21  and  C_26
REMARK    5  A    between atoms: C_34  and  C_35
REMARK                            x       y       z     vdW  Elec       q    Type
REMARK                         _______ _______ _______ _____ _____    ______ ____
ROOT
ATOM      1  O   UNL     1     105.370 127.764 143.583  0.00  0.00    +0.000 OA
ATOM      2  O   UNL     1     103.929 130.274 143.568  0.00  0.00    +0.000 OA
ATOM      3  O   UNL     1     104.390 128.882 141.115  0.00  0.00    +0.000 OA
ATOM      4  O   UNL     1     104.403 129.748 144.825  0.00  0.00    +0.000 OA
ATOM      5  C   UNL     1     104.159 129.578 142.342  0.00  0.00    +0.000 A 
ATOM      6  C   UNL     1     104.242 129.629 143.161  0.00  0.00    +0.000 A 
ATOM      7  C   UNL     1     104.473 128.933 141.935  0.00  0.00    +0.000 A 
ATOM      8  C   UNL     1     104.640 129.034 143.573  0.00  0.00    +0.000 A 
ATOM      9  C   UNL     1     104.954 128.389 143.166  0.00  0.00    +0.000 A 
ATOM     10  C   UNL     1     104.871 128.338 142.347  0.00  0.00    +0.000 A 
ATOM     11  C   UNL     1     104.720 129.099 144.426  0.00  0.00    +0.000 A 
ATOM     12  C   UNL     1     105.460 127.811 144.437  0.00  0.00    +0.000 A 
ATOM     13  C   UNL     1     105.133 128.484 144.861  0.00  0.00    +0.000 A 
ENDROOT
BRANCH   5  18
ATOM     14  O   UNL     1     104.170 130.841 141.674  0.00  0.00    +0.000 OA
ATOM     15  O   UNL     1     101.750 130.616 141.206  0.00  0.00    +0.000 OA
ATOM     16  O   UNL     1     102.569 131.954 140.695  0.00  0.00    +0.000 OA
ATOM     17  C   UNL     1     102.557 130.691 141.362  0.00  0.00    +0.000 C 
ATOM     18  C   UNL     1     103.762 130.172 141.930  0.00  0.00    +0.000 C 
ATOM     19  C   UNL     1     102.966 131.360 141.106  0.00  0.00    +0.000 C 
ATOM     20  C   UNL     1     102.955 130.097 141.774  0.00  0.00    +0.000 C 
ATOM     21  C   UNL     1     103.773 131.435 141.263  0.00  0.00    +0.000 C 
ATOM     22  C   UNL     1     104.182 132.105 141.007  0.00  0.00    +0.000 C 
ENDBRANCH   5  18
BRANCH  12  24
ATOM     23  C   UNL     1     106.654 126.024 145.665  0.00  0.00    +0.000 A 
ATOM     24  C   UNL     1     105.858 127.216 144.847  0.00  0.00    +0.000 A 
ATOM     25  C   UNL     1     106.138 125.830 145.051  0.00  0.00    +0.000 A 
ATOM     26  C   UNL     1     106.771 126.815 145.869  0.00  0.00    +0.000 A 
ATOM     27  C   UNL     1     105.740 126.425 144.641  0.00  0.00    +0.000 A 
ATOM     28  C   UNL     1     106.373 127.411 145.460  0.00  0.00    +0.000 A 
BRANCH  23  29
ATOM     29  O   UNL     1     107.052 125.429 146.074  0.00  0.00    +0.000 OA
BRANCH  29  38
ATOM     30  O   UNL     1     105.999 125.057 146.966  0.00  0.00    +0.000 OA
ATOM     31  O   UNL     1     106.040 124.537 149.085  0.00  0.00    +0.000 OA
ATOM     32  O   UNL     1     107.638 124.834 148.808  0.00  0.00    +0.000 OA
ATOM     33  O   UNL     1     108.144 125.281 147.302  0.00  0.00    +0.000 OA
ATOM     34  C   UNL     1     106.292 124.760 148.332  0.00  0.00    +0.000 C 
ATOM     35  C   UNL     1     107.092 124.909 148.194  0.00  0.00    +0.000 C 
ATOM     36  C   UNL     1     105.746 124.834 147.719  0.00  0.00    +0.000 C 
ATOM     37  C   UNL     1     107.345 125.132 147.440  0.00  0.00    +0.000 C 
ATOM     38  C   UNL     1     106.799 125.206 146.827  0.00  0.00    +0.000 C 
BRANCH  36  40
ATOM     39  O   UNL     1     104.524 124.190 147.351  0.00  0.00    +0.000 OA
ATOM     40  C   UNL     1     104.947 124.685 147.858  0.00  0.00    +0.000 C 
ENDBRANCH  36  40
ENDBRANCH  29  38
ENDBRANCH  23  29
ENDBRANCH  12  24
TORSDOF 5
ENDMDL
MODEL 5
REMARK VINA RESULT:      -9.9      1.350      7.362
REMARK  Name = 44257780
REMARK  5 active torsions:
REMARK  status: ('A' for Active; 'I' for Inactive)
REMARK    1  A    between atoms: O_5  and  C_23
REMARK    2  A    between atoms: O_5  and  C_32
REMARK    3  A    between atoms: C_15  and  C_24
REMARK    4  A    between atoms: C_21  and  C_26
REMARK    5  A    between atoms: C_34  and  C_35
REMARK                            x       y       z     vdW  Elec       q    Type
REMARK                         _______ _______ _______ _____ _____    ______ ____
ROOT
ATOM      1  O   UNL     1     112.572 129.178 141.503  0.00  0.00    +0.000 OA
ATOM      2  O   UNL     1     113.601 131.760 142.309  0.00  0.00    +0.000 OA
ATOM      3  O   UNL     1     111.237 130.723 143.536  0.00  0.00    +0.000 OA
ATOM      4  O   UNL     1     114.298 131.018 141.288  0.00  0.00    +0.000 OA
ATOM      5  C   UNL     1     112.419 131.241 142.922  0.00  0.00    +0.000 A 
ATOM      6  C   UNL     1     113.037 131.163 142.382  0.00  0.00    +0.000 A 
ATOM      7  C   UNL     1     111.855 130.644 142.995  0.00  0.00    +0.000 A 
ATOM      8  C   UNL     1     113.091 130.485 141.913  0.00  0.00    +0.000 A 
ATOM      9  C   UNL     1     112.527 129.888 141.985  0.00  0.00    +0.000 A 
ATOM     10  C   UNL     1     111.909 129.967 142.526  0.00  0.00    +0.000 A 
ATOM     11  C   UNL     1     113.739 130.415 141.353  0.00  0.00    +0.000 A 
ATOM     12  C   UNL     1     113.213 129.089 140.937  0.00  0.00    +0.000 A 
ATOM     13  C   UNL     1     113.800 129.712 140.863  0.00  0.00    +0.000 A 
ENDROOT
BRANCH   5  18
ATOM     14  O   UNL     1     112.664 131.914 144.159  0.00  0.00    +0.000 OA
ATOM     15  O   UNL     1     111.606 133.961 143.257  0.00  0.00    +0.000 OA
ATOM     16  O   UNL     1     112.204 133.950 144.795  0.00  0.00    +0.000 OA
ATOM     17  C   UNL     1     111.959 133.279 143.558  0.00  0.00    +0.000 C 
ATOM     18  C   UNL     1     112.365 131.918 143.391  0.00  0.00    +0.000 C 
ATOM     19  C   UNL     1     112.257 133.273 144.327  0.00  0.00    +0.000 C 
ATOM     20  C   UNL     1     112.013 132.601 143.090  0.00  0.00    +0.000 C 
ATOM     21  C   UNL     1     112.610 132.590 144.627  0.00  0.00    +0.000 C 
ATOM     22  C   UNL     1     112.909 132.585 145.397  0.00  0.00    +0.000 C 
ENDBRANCH   5  18
BRANCH  12  24
ATOM     23  C   UNL     1     113.367 127.055 139.536  0.00  0.00    +0.000 A 
ATOM     24  C   UNL     1     113.265 128.411 140.470  0.00  0.00    +0.000 A 
ATOM     25  C   UNL     1     113.431 126.997 140.357  0.00  0.00    +0.000 A 
ATOM     26  C   UNL     1     113.252 127.792 139.183  0.00  0.00    +0.000 A 
ATOM     27  C   UNL     1     113.380 127.675 140.824  0.00  0.00    +0.000 A 
ATOM     28  C   UNL     1     113.201 128.470 139.651  0.00  0.00    +0.000 A 
BRANCH  23  29
ATOM     29  O   UNL     1     113.419 126.377 139.069  0.00  0.00    +0.000 OA
BRANCH  29  38
ATOM     30  O   UNL     1     112.019 126.095 139.009  0.00  0.00    +0.000 OA
ATOM     31  O   UNL     1     110.784 125.335 137.378  0.00  0.00    +0.000 OA
ATOM     32  O   UNL     1     112.264 125.378 136.653  0.00  0.00    +0.000 OA
ATOM     33  O   UNL     1     113.582 125.899 137.498  0.00  0.00    +0.000 OA
ATOM     34  C   UNL     1     111.442 125.596 137.801  0.00  0.00    +0.000 C 
ATOM     35  C   UNL     1     112.182 125.617 137.438  0.00  0.00    +0.000 C 
ATOM     36  C   UNL     1     111.360 125.835 138.587  0.00  0.00    +0.000 C 
ATOM     37  C   UNL     1     112.842 125.878 137.861  0.00  0.00    +0.000 C 
ATOM     38  C   UNL     1     112.760 126.117 138.647  0.00  0.00    +0.000 C 
BRANCH  36  40
ATOM     39  O   UNL     1     110.520 125.408 139.661  0.00  0.00    +0.000 OA
ATOM     40  C   UNL     1     110.620 125.814 138.949  0.00  0.00    +0.000 C 
ENDBRANCH  36  40
ENDBRANCH  29  38
ENDBRANCH  23  29
ENDBRANCH  12  24
TORSDOF 5
ENDMDL
MODEL 6
REMARK VINA RESULT:      -9.8      1.237      7.224
REMARK  Name = 44257780
REMARK  5 active torsions:
REMARK  status: ('A' for Active; 'I' for Inactive)
REMARK    1  A    between atoms: O_5  and  C_23
REMARK    2  A    between atoms: O_5  and  C_32
REMARK    3  A    between atoms: C_15  and  C_24
REMARK    4  A    between atoms: C_21  and  C_26
REMARK    5  A    between atoms: C_34  and  C_35
REMARK                            x       y       z     vdW  Elec       q    Type
REMARK                         _______ _______ _______ _____ _____    ______ ____
ROOT
ATOM      1  O   UNL     1     112.177 127.636 140.546  0.00  0.00    +0.000 OA
ATOM      2  O   UNL     1     112.735 129.766 142.425  0.00  0.00    +0.000 OA
ATOM      3  O   UNL     1     110.495 128.042 142.850  0.00  0.00    +0.000 OA
ATOM      4  O   UNL     1     113.600 129.596 141.284  0.00  0.00    +0.000 OA
ATOM      5  C   UNL     1     111.615 128.904 142.637  0.00  0.00    +0.000 A 
ATOM      6  C   UNL     1     112.269 129.128 142.187  0.00  0.00    +0.000 A 
ATOM      7  C   UNL     1     111.149 128.266 142.399  0.00  0.00    +0.000 A 
ATOM      8  C   UNL     1     112.457 128.713 141.498  0.00  0.00    +0.000 A 
ATOM      9  C   UNL     1     111.991 128.075 141.261  0.00  0.00    +0.000 A 
ATOM     10  C   UNL     1     111.337 127.852 141.711  0.00  0.00    +0.000 A 
ATOM     11  C   UNL     1     113.140 128.956 141.038  0.00  0.00    +0.000 A 
ATOM     12  C   UNL     1     112.857 127.865 140.072  0.00  0.00    +0.000 A 
ATOM     13  C   UNL     1     113.342 128.529 140.320  0.00  0.00    +0.000 A 
ENDROOT
BRANCH   5  18
ATOM     14  O   UNL     1     111.742 129.081 144.050  0.00  0.00    +0.000 OA
ATOM     15  O   UNL     1     110.229 131.037 143.942  0.00  0.00    +0.000 OA
ATOM     16  O   UNL     1     110.862 130.561 145.390  0.00  0.00    +0.000 OA
ATOM     17  C   UNL     1     110.734 130.385 143.977  0.00  0.00    +0.000 C 
ATOM     18  C   UNL     1     111.427 129.318 143.325  0.00  0.00    +0.000 C 
ATOM     19  C   UNL     1     111.050 130.147 144.701  0.00  0.00    +0.000 C 
ATOM     20  C   UNL     1     110.922 129.970 143.290  0.00  0.00    +0.000 C 
ATOM     21  C   UNL     1     111.554 129.495 144.737  0.00  0.00    +0.000 C 
ATOM     22  C   UNL     1     111.870 129.258 145.462  0.00  0.00    +0.000 C 
ENDBRANCH   5  18
BRANCH  12  24
ATOM     23  C   UNL     1     113.414 126.617 138.009  0.00  0.00    +0.000 A 
ATOM     24  C   UNL     1     113.043 127.449 139.384  0.00  0.00    +0.000 A 
ATOM     25  C   UNL     1     113.088 127.374 137.958  0.00  0.00    +0.000 A 
ATOM     26  C   UNL     1     113.554 126.277 138.747  0.00  0.00    +0.000 A 
ATOM     27  C   UNL     1     112.902 127.790 138.646  0.00  0.00    +0.000 A 
ATOM     28  C   UNL     1     113.368 126.693 139.435  0.00  0.00    +0.000 A 
BRANCH  23  29
ATOM     29  O   UNL     1     113.600 126.201 137.321  0.00  0.00    +0.000 OA
BRANCH  29  38
ATOM     30  O   UNL     1     112.291 125.779 136.931  0.00  0.00    +0.000 OA
ATOM     31  O   UNL     1     111.567 123.848 136.216  0.00  0.00    +0.000 OA
ATOM     32  O   UNL     1     113.167 123.516 136.443  0.00  0.00    +0.000 OA
ATOM     33  O   UNL     1     114.183 124.692 136.996  0.00  0.00    +0.000 OA
ATOM     34  C   UNL     1     112.075 124.437 136.492  0.00  0.00    +0.000 C 
ATOM     35  C   UNL     1     112.875 124.270 136.606  0.00  0.00    +0.000 C 
ATOM     36  C   UNL     1     111.783 125.191 136.655  0.00  0.00    +0.000 C 
ATOM     37  C   UNL     1     113.383 124.859 136.882  0.00  0.00    +0.000 C 
ATOM     38  C   UNL     1     113.092 125.613 137.045  0.00  0.00    +0.000 C 
BRANCH  36  40
ATOM     39  O   UNL     1     110.757 125.981 136.051  0.00  0.00    +0.000 OA
ATOM     40  C   UNL     1     110.984 125.357 136.541  0.00  0.00    +0.000 C 
ENDBRANCH  36  40
ENDBRANCH  29  38
ENDBRANCH  23  29
ENDBRANCH  12  24
TORSDOF 5
ENDMDL
MODEL 7
REMARK VINA RESULT:      -9.8      1.408      2.594
REMARK  Name = 44257780
REMARK  5 active torsions:
REMARK  status: ('A' for Active; 'I' for Inactive)
REMARK    1  A    between atoms: O_5  and  C_23
REMARK    2  A    between atoms: O_5  and  C_32
REMARK    3  A    between atoms: C_15  and  C_24
REMARK    4  A    between atoms: C_21  and  C_26
REMARK    5  A    between atoms: C_34  and  C_35
REMARK                            x       y       z     vdW  Elec       q    Type
REMARK                         _______ _______ _______ _____ _____    ______ ____
ROOT
ATOM      1  O   UNL     1     112.097 128.415 140.956  0.00  0.00    +0.000 OA
ATOM      2  O   UNL     1     112.062 125.827 139.661  0.00  0.00    +0.000 OA
ATOM      3  O   UNL     1     113.448 128.010 138.444  0.00  0.00    +0.000 OA
ATOM      4  O   UNL     1     111.374 125.989 140.918  0.00  0.00    +0.000 OA
ATOM      5  C   UNL     1     112.755 126.918 139.053  0.00  0.00    +0.000 A 
ATOM      6  C   UNL     1     112.299 126.617 139.671  0.00  0.00    +0.000 A 
ATOM      7  C   UNL     1     112.993 127.708 139.063  0.00  0.00    +0.000 A 
ATOM      8  C   UNL     1     112.081 127.106 140.299  0.00  0.00    +0.000 A 
ATOM      9  C   UNL     1     112.318 127.896 140.308  0.00  0.00    +0.000 A 
ATOM     10  C   UNL     1     112.774 128.197 139.690  0.00  0.00    +0.000 A 
ATOM     11  C   UNL     1     111.606 126.781 140.937  0.00  0.00    +0.000 A 
ATOM     12  C   UNL     1     111.622 128.107 141.604  0.00  0.00    +0.000 A 
ATOM     13  C   UNL     1     111.376 127.284 141.593  0.00  0.00    +0.000 A 
ENDROOT
BRANCH   5  18
ATOM     14  O   UNL     1     112.468 126.334 137.781  0.00  0.00    +0.000 OA
ATOM     15  O   UNL     1     114.642 125.152 137.832  0.00  0.00    +0.000 OA
ATOM     16  O   UNL     1     113.629 124.963 136.543  0.00  0.00    +0.000 OA
ATOM     17  C   UNL     1     113.917 125.546 137.815  0.00  0.00    +0.000 C 
ATOM     18  C   UNL     1     112.973 126.430 138.425  0.00  0.00    +0.000 C 
ATOM     19  C   UNL     1     113.411 125.452 137.171  0.00  0.00    +0.000 C 
ATOM     20  C   UNL     1     113.698 126.035 138.442  0.00  0.00    +0.000 C 
ATOM     21  C   UNL     1     112.686 125.846 137.154  0.00  0.00    +0.000 C 
ATOM     22  C   UNL     1     112.180 125.751 136.508  0.00  0.00    +0.000 C 
ENDBRANCH   5  18
BRANCH  12  24
ATOM     23  C   UNL     1     110.972 129.580 143.483  0.00  0.00    +0.000 A 
ATOM     24  C   UNL     1     111.405 128.598 142.230  0.00  0.00    +0.000 A 
ATOM     25  C   UNL     1     110.540 129.594 142.779  0.00  0.00    +0.000 A 
ATOM     26  C   UNL     1     111.620 129.076 143.559  0.00  0.00    +0.000 A 
ATOM     27  C   UNL     1     110.757 129.102 142.153  0.00  0.00    +0.000 A 
ATOM     28  C   UNL     1     111.837 128.585 142.933  0.00  0.00    +0.000 A 
BRANCH  23  29
ATOM     29  O   UNL     1     110.755 130.072 144.109  0.00  0.00    +0.000 OA
BRANCH  29  38
ATOM     30  O   UNL     1     111.472 131.239 143.701  0.00  0.00    +0.000 OA
ATOM     31  O   UNL     1     112.604 132.698 144.863  0.00  0.00    +0.000 OA
ATOM     32  O   UNL     1     112.096 131.678 146.056  0.00  0.00    +0.000 OA
ATOM     33  O   UNL     1     111.171 130.364 145.679  0.00  0.00    +0.000 OA
ATOM     34  C   UNL     1     112.142 132.041 144.674  0.00  0.00    +0.000 C 
ATOM     35  C   UNL     1     111.888 131.531 145.271  0.00  0.00    +0.000 C 
ATOM     36  C   UNL     1     111.934 131.895 143.890  0.00  0.00    +0.000 C 
ATOM     37  C   UNL     1     111.425 130.874 145.082  0.00  0.00    +0.000 C 
ATOM     38  C   UNL     1     111.217 130.728 144.297  0.00  0.00    +0.000 C 
BRANCH  36  40
ATOM     39  O   UNL     1     111.645 132.714 142.755  0.00  0.00    +0.000 OA
ATOM     40  C   UNL     1     112.188 132.405 143.294  0.00  0.00    +0.000 C 
ENDBRANCH  36  40
ENDBRANCH  29  38
ENDBRANCH  23  29
ENDBRANCH  12  24
TORSDOF 5
ENDMDL
MODEL 8
REMARK VINA RESULT:      -9.7      1.918      8.114
REMARK  Name = 44257780
REMARK  5 active torsions:
REMARK  status: ('A' for Active; 'I' for Inactive)
REMARK    1  A    between atoms: O_5  and  C_23
REMARK    2  A    between atoms: O_5  and  C_32
REMARK    3  A    between atoms: C_15  and  C_24
REMARK    4  A    between atoms: C_21  and  C_26
REMARK    5  A    between atoms: C_34  and  C_35
REMARK                            x       y       z     vdW  Elec       q    Type
REMARK                         _______ _______ _______ _____ _____    ______ ____
ROOT
ATOM      1  O   UNL     1     112.465 131.521 142.620  0.00  0.00    +0.000 OA
ATOM      2  O   UNL     1     111.272 131.083 145.220  0.00  0.00    +0.000 OA
ATOM      3  O   UNL     1     112.247 133.676 144.518  0.00  0.00    +0.000 OA
ATOM      4  O   UNL     1     111.363 129.978 144.298  0.00  0.00    +0.000 OA
ATOM      5  C   UNL     1     111.759 132.380 144.869  0.00  0.00    +0.000 A 
ATOM      6  C   UNL     1     111.631 131.588 144.676  0.00  0.00    +0.000 A 
ATOM      7  C   UNL     1     112.118 132.885 144.324  0.00  0.00    +0.000 A 
ATOM      8  C   UNL     1     111.862 131.302 143.936  0.00  0.00    +0.000 A 
ATOM      9  C   UNL     1     112.221 131.807 143.392  0.00  0.00    +0.000 A 
ATOM     10  C   UNL     1     112.349 132.598 143.586  0.00  0.00    +0.000 A 
ATOM     11  C   UNL     1     111.722 130.476 143.746  0.00  0.00    +0.000 A 
ATOM     12  C   UNL     1     112.334 130.696 142.411  0.00  0.00    +0.000 A 
ATOM     13  C   UNL     1     111.960 130.171 142.979  0.00  0.00    +0.000 A 
ENDROOT
BRANCH   5  18
ATOM     14  O   UNL     1     112.047 132.622 146.248  0.00  0.00    +0.000 OA
ATOM     15  O   UNL     1     109.799 133.614 146.543  0.00  0.00    +0.000 OA
ATOM     16  O   UNL     1     110.837 133.525 147.823  0.00  0.00    +0.000 OA
ATOM     17  C   UNL     1     110.548 133.283 146.444  0.00  0.00    +0.000 C 
ATOM     18  C   UNL     1     111.529 132.666 145.607  0.00  0.00    +0.000 C 
ATOM     19  C   UNL     1     111.067 133.239 147.084  0.00  0.00    +0.000 C 
ATOM     20  C   UNL     1     110.780 132.997 145.706  0.00  0.00    +0.000 C 
ATOM     21  C   UNL     1     111.816 132.908 146.985  0.00  0.00    +0.000 C 
ATOM     22  C   UNL     1     112.335 132.864 147.626  0.00  0.00    +0.000 C 
ENDBRANCH   5  18
BRANCH  12  24
ATOM     23  C   UNL     1     113.028 129.845 140.194  0.00  0.00    +0.000 A 
ATOM     24  C   UNL     1     112.565 130.413 141.672  0.00  0.00    +0.000 A 
ATOM     25  C   UNL     1     113.598 130.019 140.766  0.00  0.00    +0.000 A 
ATOM     26  C   UNL     1     112.228 129.956 140.362  0.00  0.00    +0.000 A 
ATOM     27  C   UNL     1     113.366 130.303 141.505  0.00  0.00    +0.000 A 
ATOM     28  C   UNL     1     111.997 130.239 141.101  0.00  0.00    +0.000 A 
BRANCH  23  29
ATOM     29  O   UNL     1     113.260 129.562 139.454  0.00  0.00    +0.000 OA
BRANCH  29  38
ATOM     30  O   UNL     1     113.467 128.200 139.833  0.00  0.00    +0.000 OA
ATOM     31  O   UNL     1     113.029 126.341 138.777  0.00  0.00    +0.000 OA
ATOM     32  O   UNL     1     112.500 127.454 137.681  0.00  0.00    +0.000 OA
ATOM     33  O   UNL     1     112.615 129.065 138.019  0.00  0.00    +0.000 OA
ATOM     34  C   UNL     1     113.087 127.146 138.947  0.00  0.00    +0.000 C 
ATOM     35  C   UNL     1     112.822 127.702 138.398  0.00  0.00    +0.000 C 
ATOM     36  C   UNL     1     113.409 127.395 139.664  0.00  0.00    +0.000 C 
ATOM     37  C   UNL     1     112.880 128.508 138.568  0.00  0.00    +0.000 C 
ATOM     38  C   UNL     1     113.202 128.757 139.285  0.00  0.00    +0.000 C 
BRANCH  36  40
ATOM     39  O   UNL     1     114.452 126.864 140.484  0.00  0.00    +0.000 OA
ATOM     40  C   UNL     1     113.674 126.838 140.212  0.00  0.00    +0.000 C 
ENDBRANCH  36  40
ENDBRANCH  29  38
ENDBRANCH  23  29
ENDBRANCH  12  24
TORSDOF 5
ENDMDL
MODEL 9
REMARK VINA RESULT:      -9.6      1.491      7.771
REMARK  Name = 44257780
REMARK  5 active torsions:
REMARK  status: ('A' for Active; 'I' for Inactive)
REMARK    1  A    between atoms: O_5  and  C_23
REMARK    2  A    between atoms: O_5  and  C_32
REMARK    3  A    between atoms: C_15  and  C_24
REMARK    4  A    between atoms: C_21  and  C_26
REMARK    5  A    between atoms: C_34  and  C_35
REMARK                            x       y       z     vdW  Elec       q    Type
REMARK                         _______ _______ _______ _____ _____    ______ ____
ROOT
ATOM      1  O   UNL     1     111.680 129.521 142.157  0.00  0.00    +0.000 OA
ATOM      2  O   UNL     1     111.539 130.468 144.888  0.00  0.00    +0.000 OA
ATOM      3  O   UNL     1     111.599 132.343 142.732  0.00  0.00    +0.000 OA
ATOM      4  O   UNL     1     111.578 129.048 144.642  0.00  0.00    +0.000 OA
ATOM      5  C   UNL     1     111.569 131.405 143.810  0.00  0.00    +0.000 A 
ATOM      6  C   UNL     1     111.572 130.626 144.079  0.00  0.00    +0.000 A 
ATOM      7  C   UNL     1     111.603 131.563 143.001  0.00  0.00    +0.000 A 
ATOM      8  C   UNL     1     111.609 130.003 143.538  0.00  0.00    +0.000 A 
ATOM      9  C   UNL     1     111.642 130.160 142.729  0.00  0.00    +0.000 A 
ATOM     10  C   UNL     1     111.639 130.940 142.460  0.00  0.00    +0.000 A 
ATOM     11  C   UNL     1     111.611 129.195 143.831  0.00  0.00    +0.000 A 
ATOM     12  C   UNL     1     111.684 128.706 142.431  0.00  0.00    +0.000 A 
ATOM     13  C   UNL     1     111.649 128.543 143.274  0.00  0.00    +0.000 A 
ENDROOT
BRANCH   5  18
ATOM     14  O   UNL     1     110.802 132.304 144.614  0.00  0.00    +0.000 OA
ATOM     15  O   UNL     1     112.888 133.344 145.445  0.00  0.00    +0.000 OA
ATOM     16  O   UNL     1     111.424 133.895 145.971  0.00  0.00    +0.000 OA
ATOM     17  C   UNL     1     112.193 132.997 145.168  0.00  0.00    +0.000 C 
ATOM     18  C   UNL     1     111.533 132.028 144.350  0.00  0.00    +0.000 C 
ATOM     19  C   UNL     1     111.461 133.273 145.430  0.00  0.00    +0.000 C 
ATOM     20  C   UNL     1     112.228 132.375 144.627  0.00  0.00    +0.000 C 
ATOM     21  C   UNL     1     110.765 132.926 145.153  0.00  0.00    +0.000 C 
ATOM     22  C   UNL     1     110.034 133.202 145.417  0.00  0.00    +0.000 C 
ENDBRANCH   5  18
BRANCH  12  24
ATOM     23  C   UNL     1     111.794 126.844 140.803  0.00  0.00    +0.000 A 
ATOM     24  C   UNL     1     111.721 128.085 141.888  0.00  0.00    +0.000 A 
ATOM     25  C   UNL     1     112.490 127.174 141.101  0.00  0.00    +0.000 A 
ATOM     26  C   UNL     1     111.062 127.136 141.049  0.00  0.00    +0.000 A 
ATOM     27  C   UNL     1     112.453 127.794 141.644  0.00  0.00    +0.000 A 
ATOM     28  C   UNL     1     111.026 127.756 141.591  0.00  0.00    +0.000 A 
BRANCH  23  29
ATOM     29  O   UNL     1     111.830 126.224 140.261  0.00  0.00    +0.000 OA
BRANCH  29  38
ATOM     30  O   UNL     1     112.119 126.982 139.085  0.00  0.00    +0.000 OA
ATOM     31  O   UNL     1     111.350 126.810 137.050  0.00  0.00    +0.000 OA
ATOM     32  O   UNL     1     110.533 125.586 137.796  0.00  0.00    +0.000 OA
ATOM     33  O   UNL     1     110.773 125.293 139.402  0.00  0.00    +0.000 OA
ATOM     34  C   UNL     1     111.470 126.664 137.853  0.00  0.00    +0.000 C 
ATOM     35  C   UNL     1     111.061 126.052 138.225  0.00  0.00    +0.000 C 
ATOM     36  C   UNL     1     111.999 127.129 138.282  0.00  0.00    +0.000 C 
ATOM     37  C   UNL     1     111.182 125.905 139.029  0.00  0.00    +0.000 C 
ATOM     38  C   UNL     1     111.710 126.370 139.459  0.00  0.00    +0.000 C 
BRANCH  36  40
ATOM     39  O   UNL     1     113.231 127.766 137.940  0.00  0.00    +0.000 OA
ATOM     40  C   UNL     1     112.407 127.740 137.909  0.00  0.00    +0.000 C 
ENDBRANCH  36  40
ENDBRANCH  29  38
ENDBRANCH  23  29
ENDBRANCH  12  24
TORSDOF 5
ENDMDL
