MODEL 1
REMARK VINA RESULT:      -9.2      0.000      0.000
REMARK  Name = 42608121
REMARK  2 active torsions:
REMARK  status: ('A' for Active; 'I' for Inactive)
REMARK    1  A    between atoms: O_6  and  C_22
REMARK    2  A    between atoms: C_8  and  C_10
REMARK                            x       y       z     vdW  Elec       q    Type
REMARK                         _______ _______ _______ _____ _____    ______ ____
ROOT
ATOM      1  O   UNL     1     105.582 124.414 147.810  0.00  0.00    +0.000 OA
ATOM      2  O   UNL     1     107.013 125.560 146.064  0.00  0.00    +0.000 OA
ATOM      3  O   UNL     1     108.116 125.548 146.993  0.00  0.00    +0.000 OA
ATOM      4  O   UNL     1     106.261 124.055 149.277  0.00  0.00    +0.000 OA
ATOM      5  O   UNL     1     107.833 124.429 149.607  0.00  0.00    +0.000 OA
ATOM      6  C   UNL     1     105.240 124.605 147.045  0.00  0.00    +0.000 C 
ATOM      7  C   UNL     1     105.724 124.994 146.450  0.00  0.00    +0.000 C 
ATOM      8  C   UNL     1     106.867 124.988 147.399  0.00  0.00    +0.000 A 
ATOM      9  C   UNL     1     106.541 125.187 146.629  0.00  0.00    +0.000 C 
ATOM     10  C   UNL     1     106.402 124.614 147.970  0.00  0.00    +0.000 A 
ATOM     11  C   UNL     1     107.652 125.175 147.564  0.00  0.00    +0.000 A 
ATOM     12  C   UNL     1     106.725 124.428 148.706  0.00  0.00    +0.000 A 
ATOM     13  C   UNL     1     107.510 124.615 148.871  0.00  0.00    +0.000 A 
ATOM     14  C   UNL     1     107.975 124.989 148.299  0.00  0.00    +0.000 A 
ENDROOT
BRANCH   6  16
ATOM     15  O   UNL     1     103.308 122.891 145.824  0.00  0.00    +0.000 OA
ATOM     16  C   UNL     1     104.454 124.417 146.883  0.00  0.00    +0.000 A 
ATOM     17  C   UNL     1     104.274 123.748 146.435  0.00  0.00    +0.000 A 
ATOM     18  C   UNL     1     103.847 124.897 147.168  0.00  0.00    +0.000 A 
ATOM     19  C   UNL     1     103.488 123.560 146.272  0.00  0.00    +0.000 A 
ATOM     20  C   UNL     1     103.060 124.708 147.005  0.00  0.00    +0.000 A 
ATOM     21  C   UNL     1     102.881 124.040 146.558  0.00  0.00    +0.000 A 
BRANCH  21  22
ATOM     22  O   UNL     1     102.094 123.851 146.394  0.00  0.00    +0.000 OA
ATOM     23  C   UNL     1     101.486 124.239 146.794  0.00  0.00    +0.000 C 
ENDBRANCH  21  22
ENDBRANCH   6  16
TORSDOF 2
ENDMDL
MODEL 2
REMARK VINA RESULT:      -8.4      0.914      4.535
REMARK  Name = 42608121
REMARK  2 active torsions:
REMARK  status: ('A' for Active; 'I' for Inactive)
REMARK    1  A    between atoms: O_6  and  C_22
REMARK    2  A    between atoms: C_8  and  C_10
REMARK                            x       y       z     vdW  Elec       q    Type
REMARK                         _______ _______ _______ _____ _____    ______ ____
ROOT
ATOM      1  O   UNL     1     104.591 124.028 146.788  0.00  0.00    +0.000 OA
ATOM      2  O   UNL     1     102.816 125.357 148.011  0.00  0.00    +0.000 OA
ATOM      3  O   UNL     1     101.807 124.691 147.224  0.00  0.00    +0.000 OA
ATOM      4  O   UNL     1     104.111 122.953 145.623  0.00  0.00    +0.000 OA
ATOM      5  O   UNL     1     102.516 122.743 145.257  0.00  0.00    +0.000 OA
ATOM      6  C   UNL     1     104.827 124.589 147.394  0.00  0.00    +0.000 C 
ATOM      7  C   UNL     1     104.227 125.041 147.811  0.00  0.00    +0.000 C 
ATOM      8  C   UNL     1     103.180 124.362 147.007  0.00  0.00    +0.000 A 
ATOM      9  C   UNL     1     103.399 124.927 147.616  0.00  0.00    +0.000 C 
ATOM     10  C   UNL     1     103.756 123.927 146.606  0.00  0.00    +0.000 A 
ATOM     11  C   UNL     1     102.383 124.257 146.824  0.00  0.00    +0.000 A 
ATOM     12  C   UNL     1     103.535 123.388 146.023  0.00  0.00    +0.000 A 
ATOM     13  C   UNL     1     102.738 123.282 145.840  0.00  0.00    +0.000 A 
ATOM     14  C   UNL     1     102.161 123.717 146.241  0.00  0.00    +0.000 A 
ENDROOT
BRANCH   6  16
ATOM     15  O   UNL     1     107.459 125.385 146.614  0.00  0.00    +0.000 OA
ATOM     16  C   UNL     1     105.626 124.692 147.575  0.00  0.00    +0.000 A 
ATOM     17  C   UNL     1     106.143 124.987 147.004  0.00  0.00    +0.000 A 
ATOM     18  C   UNL     1     105.906 124.501 148.327  0.00  0.00    +0.000 A 
ATOM     19  C   UNL     1     106.941 125.090 147.185  0.00  0.00    +0.000 A 
ATOM     20  C   UNL     1     106.705 124.604 148.507  0.00  0.00    +0.000 A 
ATOM     21  C   UNL     1     107.222 124.899 147.937  0.00  0.00    +0.000 A 
BRANCH  21  22
ATOM     22  O   UNL     1     108.021 125.003 148.117  0.00  0.00    +0.000 OA
ATOM     23  C   UNL     1     108.350 124.614 148.766  0.00  0.00    +0.000 C 
ENDBRANCH  21  22
ENDBRANCH   6  16
TORSDOF 2
ENDMDL
MODEL 3
REMARK VINA RESULT:      -8.1      1.284      2.527
REMARK  Name = 42608121
REMARK  2 active torsions:
REMARK  status: ('A' for Active; 'I' for Inactive)
REMARK    1  A    between atoms: O_6  and  C_22
REMARK    2  A    between atoms: C_8  and  C_10
REMARK                            x       y       z     vdW  Elec       q    Type
REMARK                         _______ _______ _______ _____ _____    ______ ____
ROOT
ATOM      1  O   UNL     1     104.401 124.735 145.973  0.00  0.00    +0.000 OA
ATOM      2  O   UNL     1     105.543 124.369 148.203  0.00  0.00    +0.000 OA
ATOM      3  O   UNL     1     106.718 125.025 147.684  0.00  0.00    +0.000 OA
ATOM      4  O   UNL     1     105.240 125.508 144.773  0.00  0.00    +0.000 OA
ATOM      5  O   UNL     1     106.786 126.034 145.010  0.00  0.00    +0.000 OA
ATOM      6  C   UNL     1     103.976 124.335 146.603  0.00  0.00    +0.000 C 
ATOM      7  C   UNL     1     104.361 124.209 147.362  0.00  0.00    +0.000 C 
ATOM      8  C   UNL     1     105.576 124.883 146.837  0.00  0.00    +0.000 A 
ATOM      9  C   UNL     1     105.166 124.485 147.479  0.00  0.00    +0.000 C 
ATOM     10  C   UNL     1     105.206 125.004 146.109  0.00  0.00    +0.000 A 
ATOM     11  C   UNL     1     106.348 125.146 146.956  0.00  0.00    +0.000 A 
ATOM     12  C   UNL     1     105.610 125.387 145.501  0.00  0.00    +0.000 A 
ATOM     13  C   UNL     1     106.382 125.650 145.619  0.00  0.00    +0.000 A 
ATOM     14  C   UNL     1     106.752 125.529 146.348  0.00  0.00    +0.000 A 
ENDROOT
BRANCH   6  16
ATOM     15  O   UNL     1     101.166 124.634 147.028  0.00  0.00    +0.000 OA
ATOM     16  C   UNL     1     103.203 124.073 146.482  0.00  0.00    +0.000 A 
ATOM     17  C   UNL     1     102.571 124.484 146.816  0.00  0.00    +0.000 A 
ATOM     18  C   UNL     1     103.063 123.400 146.026  0.00  0.00    +0.000 A 
ATOM     19  C   UNL     1     101.798 124.223 146.694  0.00  0.00    +0.000 A 
ATOM     20  C   UNL     1     102.289 123.138 145.905  0.00  0.00    +0.000 A 
ATOM     21  C   UNL     1     101.658 123.549 146.238  0.00  0.00    +0.000 A 
BRANCH  21  22
ATOM     22  O   UNL     1     100.884 123.288 146.117  0.00  0.00    +0.000 OA
ATOM     23  C   UNL     1     100.723 122.739 145.522  0.00  0.00    +0.000 C 
ENDBRANCH  21  22
ENDBRANCH   6  16
TORSDOF 2
ENDMDL
MODEL 4
REMARK VINA RESULT:      -8.0      1.744      2.931
REMARK  Name = 42608121
REMARK  2 active torsions:
REMARK  status: ('A' for Active; 'I' for Inactive)
REMARK    1  A    between atoms: O_6  and  C_22
REMARK    2  A    between atoms: C_8  and  C_10
REMARK                            x       y       z     vdW  Elec       q    Type
REMARK                         _______ _______ _______ _____ _____    ______ ____
ROOT
ATOM      1  O   UNL     1     106.859 125.234 146.850  0.00  0.00    +0.000 OA
ATOM      2  O   UNL     1     104.834 124.621 148.240  0.00  0.00    +0.000 OA
ATOM      3  O   UNL     1     105.711 124.322 149.345  0.00  0.00    +0.000 OA
ATOM      4  O   UNL     1     108.358 125.119 147.544  0.00  0.00    +0.000 OA
ATOM      5  O   UNL     1     108.543 124.617 149.104  0.00  0.00    +0.000 OA
ATOM      6  C   UNL     1     106.076 125.290 146.501  0.00  0.00    +0.000 C 
ATOM      7  C   UNL     1     105.386 125.083 146.970  0.00  0.00    +0.000 C 
ATOM      8  C   UNL     1     106.280 124.772 148.115  0.00  0.00    +0.000 A 
ATOM      9  C   UNL     1     105.490 124.822 147.782  0.00  0.00    +0.000 C 
ATOM     10  C   UNL     1     106.943 124.971 147.664  0.00  0.00    +0.000 A 
ATOM     11  C   UNL     1     106.372 124.521 148.895  0.00  0.00    +0.000 A 
ATOM     12  C   UNL     1     107.696 124.920 147.994  0.00  0.00    +0.000 A 
ATOM     13  C   UNL     1     107.789 124.669 148.774  0.00  0.00    +0.000 A 
ATOM     14  C   UNL     1     107.126 124.469 149.225  0.00  0.00    +0.000 A 
ENDROOT
BRANCH   6  16
ATOM     15  O   UNL     1     105.990 124.702 143.706  0.00  0.00    +0.000 OA
ATOM     16  C   UNL     1     105.987 125.542 145.720  0.00  0.00    +0.000 A 
ATOM     17  C   UNL     1     106.033 124.996 145.103  0.00  0.00    +0.000 A 
ATOM     18  C   UNL     1     105.851 126.339 145.556  0.00  0.00    +0.000 A 
ATOM     19  C   UNL     1     105.944 125.248 144.322  0.00  0.00    +0.000 A 
ATOM     20  C   UNL     1     105.761 126.590 144.775  0.00  0.00    +0.000 A 
ATOM     21  C   UNL     1     105.808 126.045 144.159  0.00  0.00    +0.000 A 
BRANCH  21  22
ATOM     22  O   UNL     1     105.718 126.296 143.377  0.00  0.00    +0.000 OA
ATOM     23  C   UNL     1     105.654 127.100 143.208  0.00  0.00    +0.000 C 
ENDBRANCH  21  22
ENDBRANCH   6  16
TORSDOF 2
ENDMDL
MODEL 5
REMARK VINA RESULT:      -8.0     11.233     12.575
REMARK  Name = 42608121
REMARK  2 active torsions:
REMARK  status: ('A' for Active; 'I' for Inactive)
REMARK    1  A    between atoms: O_6  and  C_22
REMARK    2  A    between atoms: C_8  and  C_10
REMARK                            x       y       z     vdW  Elec       q    Type
REMARK                         _______ _______ _______ _____ _____    ______ ____
ROOT
ATOM      1  O   UNL     1     112.049 125.927 136.552  0.00  0.00    +0.000 OA
ATOM      2  O   UNL     1     111.912 123.443 137.027  0.00  0.00    +0.000 OA
ATOM      3  O   UNL     1     113.353 123.389 137.040  0.00  0.00    +0.000 OA
ATOM      4  O   UNL     1     113.545 126.625 136.421  0.00  0.00    +0.000 OA
ATOM      5  O   UNL     1     114.924 125.735 136.594  0.00  0.00    +0.000 OA
ATOM      6  C   UNL     1     111.279 125.553 136.623  0.00  0.00    +0.000 C 
ATOM      7  C   UNL     1     111.229 124.710 136.784  0.00  0.00    +0.000 C 
ATOM      8  C   UNL     1     112.712 124.642 136.799  0.00  0.00    +0.000 A 
ATOM      9  C   UNL     1     111.950 124.253 136.873  0.00  0.00    +0.000 C 
ATOM     10  C   UNL     1     112.760 125.452 136.644  0.00  0.00    +0.000 A 
ATOM     11  C   UNL     1     113.401 124.198 136.886  0.00  0.00    +0.000 A 
ATOM     12  C   UNL     1     113.497 125.816 136.576  0.00  0.00    +0.000 A 
ATOM     13  C   UNL     1     114.186 125.371 136.662  0.00  0.00    +0.000 A 
ATOM     14  C   UNL     1     114.138 124.561 136.817  0.00  0.00    +0.000 A 
ENDROOT
BRANCH   6  16
ATOM     15  O   UNL     1     109.096 126.986 137.783  0.00  0.00    +0.000 OA
ATOM     16  C   UNL     1     110.591 126.000 136.536  0.00  0.00    +0.000 A 
ATOM     17  C   UNL     1     110.187 126.269 137.203  0.00  0.00    +0.000 A 
ATOM     18  C   UNL     1     110.307 126.179 135.782  0.00  0.00    +0.000 A 
ATOM     19  C   UNL     1     109.500 126.717 137.116  0.00  0.00    +0.000 A 
ATOM     20  C   UNL     1     109.619 126.627 135.696  0.00  0.00    +0.000 A 
ATOM     21  C   UNL     1     109.216 126.895 136.362  0.00  0.00    +0.000 A 
BRANCH  21  22
ATOM     22  O   UNL     1     108.528 127.343 136.276  0.00  0.00    +0.000 OA
ATOM     23  C   UNL     1     108.491 127.936 135.704  0.00  0.00    +0.000 C 
ENDBRANCH  21  22
ENDBRANCH   6  16
TORSDOF 2
ENDMDL
MODEL 6
REMARK VINA RESULT:      -8.0     10.246     10.833
REMARK  Name = 42608121
REMARK  2 active torsions:
REMARK  status: ('A' for Active; 'I' for Inactive)
REMARK    1  A    between atoms: O_6  and  C_22
REMARK    2  A    between atoms: C_8  and  C_10
REMARK                            x       y       z     vdW  Elec       q    Type
REMARK                         _______ _______ _______ _____ _____    ______ ____
ROOT
ATOM      1  O   UNL     1     111.447 132.906 146.398  0.00  0.00    +0.000 OA
ATOM      2  O   UNL     1     113.584 132.106 147.495  0.00  0.00    +0.000 OA
ATOM      3  O   UNL     1     113.098 132.606 148.757  0.00  0.00    +0.000 OA
ATOM      4  O   UNL     1     110.308 133.654 147.339  0.00  0.00    +0.000 OA
ATOM      5  O   UNL     1     110.547 133.879 148.957  0.00  0.00    +0.000 OA
ATOM      6  C   UNL     1     112.045 132.517 145.921  0.00  0.00    +0.000 C 
ATOM      7  C   UNL     1     112.772 132.244 146.290  0.00  0.00    +0.000 C 
ATOM      8  C   UNL     1     112.281 132.755 147.595  0.00  0.00    +0.000 A 
ATOM      9  C   UNL     1     112.890 132.364 147.132  0.00  0.00    +0.000 C 
ATOM     10  C   UNL     1     111.583 133.018 147.240  0.00  0.00    +0.000 A 
ATOM     11  C   UNL     1     112.400 132.868 148.403  0.00  0.00    +0.000 A 
ATOM     12  C   UNL     1     111.005 133.392 147.694  0.00  0.00    +0.000 A 
ATOM     13  C   UNL     1     111.124 133.504 148.502  0.00  0.00    +0.000 A 
ATOM     14  C   UNL     1     111.823 133.242 148.857  0.00  0.00    +0.000 A 
ENDROOT
BRANCH   6  16
ATOM     15  O   UNL     1     111.990 133.558 143.260  0.00  0.00    +0.000 OA
ATOM     16  C   UNL     1     111.924 132.406 145.112  0.00  0.00    +0.000 A 
ATOM     17  C   UNL     1     112.018 133.038 144.590  0.00  0.00    +0.000 A 
ATOM     18  C   UNL     1     111.707 131.663 144.826  0.00  0.00    +0.000 A 
ATOM     19  C   UNL     1     111.896 132.926 143.782  0.00  0.00    +0.000 A 
ATOM     20  C   UNL     1     111.586 131.552 144.017  0.00  0.00    +0.000 A 
ATOM     21  C   UNL     1     111.680 132.183 143.496  0.00  0.00    +0.000 A 
BRANCH  21  22
ATOM     22  O   UNL     1     111.558 132.073 142.687  0.00  0.00    +0.000 OA
ATOM     23  C   UNL     1     111.391 131.320 142.394  0.00  0.00    +0.000 C 
ENDBRANCH  21  22
ENDBRANCH   6  16
TORSDOF 2
ENDMDL
MODEL 7
REMARK VINA RESULT:      -8.0     11.292     12.775
REMARK  Name = 42608121
REMARK  2 active torsions:
REMARK  status: ('A' for Active; 'I' for Inactive)
REMARK    1  A    between atoms: O_6  and  C_22
REMARK    2  A    between atoms: C_8  and  C_10
REMARK                            x       y       z     vdW  Elec       q    Type
REMARK                         _______ _______ _______ _____ _____    ______ ____
ROOT
ATOM      1  O   UNL     1     110.562 127.434 136.268  0.00  0.00    +0.000 OA
ATOM      2  O   UNL     1     108.042 127.332 136.048  0.00  0.00    +0.000 OA
ATOM      3  O   UNL     1     108.039 128.729 135.690  0.00  0.00    +0.000 OA
ATOM      4  O   UNL     1     111.323 128.875 135.973  0.00  0.00    +0.000 OA
ATOM      5  O   UNL     1     110.472 130.222 135.546  0.00  0.00    +0.000 OA
ATOM      6  C   UNL     1     110.156 126.692 136.418  0.00  0.00    +0.000 C 
ATOM      7  C   UNL     1     109.300 126.654 136.344  0.00  0.00    +0.000 C 
ATOM      8  C   UNL     1     109.285 128.092 135.975  0.00  0.00    +0.000 A 
ATOM      9  C   UNL     1     108.863 127.359 136.121  0.00  0.00    +0.000 C 
ATOM     10  C   UNL     1     110.107 128.129 136.045  0.00  0.00    +0.000 A 
ATOM     11  C   UNL     1     108.860 128.765 135.761  0.00  0.00    +0.000 A 
ATOM     12  C   UNL     1     110.502 128.838 135.903  0.00  0.00    +0.000 A 
ATOM     13  C   UNL     1     110.077 129.511 135.689  0.00  0.00    +0.000 A 
ATOM     14  C   UNL     1     109.255 129.475 135.618  0.00  0.00    +0.000 A 
ENDROOT
BRANCH   6  16
ATOM     15  O   UNL     1     111.261 125.001 138.439  0.00  0.00    +0.000 OA
ATOM     16  C   UNL     1     110.584 126.020 136.632  0.00  0.00    +0.000 A 
ATOM     17  C   UNL     1     110.709 125.847 137.429  0.00  0.00    +0.000 A 
ATOM     18  C   UNL     1     110.888 125.522 136.048  0.00  0.00    +0.000 A 
ATOM     19  C   UNL     1     111.137 125.175 137.642  0.00  0.00    +0.000 A 
ATOM     20  C   UNL     1     111.317 124.850 136.263  0.00  0.00    +0.000 A 
ATOM     21  C   UNL     1     111.441 124.676 137.059  0.00  0.00    +0.000 A 
BRANCH  21  22
ATOM     22  O   UNL     1     111.870 124.004 137.274  0.00  0.00    +0.000 OA
ATOM     23  C   UNL     1     112.230 123.543 136.693  0.00  0.00    +0.000 C 
ENDBRANCH  21  22
ENDBRANCH   6  16
TORSDOF 2
ENDMDL
MODEL 8
REMARK VINA RESULT:      -8.0     12.969     14.026
REMARK  Name = 42608121
REMARK  2 active torsions:
REMARK  status: ('A' for Active; 'I' for Inactive)
REMARK    1  A    between atoms: O_6  and  C_22
REMARK    2  A    between atoms: C_8  and  C_10
REMARK                            x       y       z     vdW  Elec       q    Type
REMARK                         _______ _______ _______ _____ _____    ______ ____
ROOT
ATOM      1  O   UNL     1     112.801 126.447 136.367  0.00  0.00    +0.000 OA
ATOM      2  O   UNL     1     114.709 125.183 137.450  0.00  0.00    +0.000 OA
ATOM      3  O   UNL     1     113.958 123.962 137.296  0.00  0.00    +0.000 OA
ATOM      4  O   UNL     1     111.464 125.598 135.884  0.00  0.00    +0.000 OA
ATOM      5  O   UNL     1     111.364 123.965 136.096  0.00  0.00    +0.000 OA
ATOM      6  C   UNL     1     113.499 126.877 136.622  0.00  0.00    +0.000 C 
ATOM      7  C   UNL     1     114.149 126.451 136.990  0.00  0.00    +0.000 C 
ATOM      8  C   UNL     1     113.384 125.187 136.837  0.00  0.00    +0.000 A 
ATOM      9  C   UNL     1     114.091 125.601 137.098  0.00  0.00    +0.000 C 
ATOM     10  C   UNL     1     112.760 125.596 136.483  0.00  0.00    +0.000 A 
ATOM     11  C   UNL     1     113.334 124.371 136.943  0.00  0.00    +0.000 A 
ATOM     12  C   UNL     1     112.087 125.189 136.237  0.00  0.00    +0.000 A 
ATOM     13  C   UNL     1     112.037 124.373 136.343  0.00  0.00    +0.000 A 
ATOM     14  C   UNL     1     112.661 123.963 136.696  0.00  0.00    +0.000 A 
ENDROOT
BRANCH   6  16
ATOM     15  O   UNL     1     114.282 129.124 135.039  0.00  0.00    +0.000 OA
ATOM     16  C   UNL     1     113.547 127.694 136.515  0.00  0.00    +0.000 A 
ATOM     17  C   UNL     1     113.891 128.000 135.831  0.00  0.00    +0.000 A 
ATOM     18  C   UNL     1     113.250 128.204 137.092  0.00  0.00    +0.000 A 
ATOM     19  C   UNL     1     113.938 128.817 135.723  0.00  0.00    +0.000 A 
ATOM     20  C   UNL     1     113.297 129.020 136.983  0.00  0.00    +0.000 A 
ATOM     21  C   UNL     1     113.641 129.327 136.300  0.00  0.00    +0.000 A 
BRANCH  21  22
ATOM     22  O   UNL     1     113.689 130.144 136.192  0.00  0.00    +0.000 OA
ATOM     23  C   UNL     1     113.444 130.654 136.792  0.00  0.00    +0.000 C 
ENDBRANCH  21  22
ENDBRANCH   6  16
TORSDOF 2
ENDMDL
MODEL 9
REMARK VINA RESULT:      -7.9      9.097     10.284
REMARK  Name = 42608121
REMARK  2 active torsions:
REMARK  status: ('A' for Active; 'I' for Inactive)
REMARK    1  A    between atoms: O_6  and  C_22
REMARK    2  A    between atoms: C_8  and  C_10
REMARK                            x       y       z     vdW  Elec       q    Type
REMARK                         _______ _______ _______ _____ _____    ______ ____
ROOT
ATOM      1  O   UNL     1     102.852 132.010 141.155  0.00  0.00    +0.000 OA
ATOM      2  O   UNL     1     100.710 132.216 142.491  0.00  0.00    +0.000 OA
ATOM      3  O   UNL     1     100.764 133.646 142.314  0.00  0.00    +0.000 OA
ATOM      4  O   UNL     1     103.555 133.392 140.573  0.00  0.00    +0.000 OA
ATOM      5  O   UNL     1     102.887 134.875 140.848  0.00  0.00    +0.000 OA
ATOM      6  C   UNL     1     102.477 131.301 141.463  0.00  0.00    +0.000 C 
ATOM      7  C   UNL     1     101.750 131.367 141.917  0.00  0.00    +0.000 C 
ATOM      8  C   UNL     1     101.795 132.841 141.741  0.00  0.00    +0.000 A 
ATOM      9  C   UNL     1     101.408 132.142 142.056  0.00  0.00    +0.000 C 
ATOM     10  C   UNL     1     102.494 132.778 141.305  0.00  0.00    +0.000 A 
ATOM     11  C   UNL     1     101.461 133.583 141.879  0.00  0.00    +0.000 A 
ATOM     12  C   UNL     1     102.857 133.455 141.008  0.00  0.00    +0.000 A 
ATOM     13  C   UNL     1     102.523 134.196 141.145  0.00  0.00    +0.000 A 
ATOM     14  C   UNL     1     101.825 134.260 141.581  0.00  0.00    +0.000 A 
ENDROOT
BRANCH   6  16
ATOM     15  O   UNL     1     102.755 128.978 139.822  0.00  0.00    +0.000 OA
ATOM     16  C   UNL     1     102.814 130.561 141.324  0.00  0.00    +0.000 A 
ATOM     17  C   UNL     1     102.616 130.140 140.642  0.00  0.00    +0.000 A 
ATOM     18  C   UNL     1     103.347 130.241 141.866  0.00  0.00    +0.000 A 
ATOM     19  C   UNL     1     102.953 129.399 140.503  0.00  0.00    +0.000 A 
ATOM     20  C   UNL     1     103.683 129.500 141.726  0.00  0.00    +0.000 A 
ATOM     21  C   UNL     1     103.486 129.080 141.045  0.00  0.00    +0.000 A 
BRANCH  21  22
ATOM     22  O   UNL     1     103.822 128.339 140.906  0.00  0.00    +0.000 OA
ATOM     23  C   UNL     1     104.449 128.076 141.374  0.00  0.00    +0.000 C 
ENDBRANCH  21  22
ENDBRANCH   6  16
TORSDOF 2
ENDMDL
MODEL 10
REMARK VINA RESULT:      -7.9      2.204      4.573
REMARK  Name = 42608121
REMARK  2 active torsions:
REMARK  status: ('A' for Active; 'I' for Inactive)
REMARK    1  A    between atoms: O_6  and  C_22
REMARK    2  A    between atoms: C_8  and  C_10
REMARK                            x       y       z     vdW  Elec       q    Type
REMARK                         _______ _______ _______ _____ _____    ______ ____
ROOT
ATOM      1  O   UNL     1     103.367 124.298 146.146  0.00  0.00    +0.000 OA
ATOM      2  O   UNL     1     103.407 124.317 148.678  0.00  0.00    +0.000 OA
ATOM      3  O   UNL     1     102.124 123.657 148.681  0.00  0.00    +0.000 OA
ATOM      4  O   UNL     1     102.061 123.626 145.382  0.00  0.00    +0.000 OA
ATOM      5  O   UNL     1     100.807 122.980 146.237  0.00  0.00    +0.000 OA
ATOM      6  C   UNL     1     104.039 124.644 146.554  0.00  0.00    +0.000 C 
ATOM      7  C   UNL     1     104.055 124.652 147.414  0.00  0.00    +0.000 C 
ATOM      8  C   UNL     1     102.735 123.972 147.429  0.00  0.00    +0.000 A 
ATOM      9  C   UNL     1     103.400 124.314 147.853  0.00  0.00    +0.000 C 
ATOM     10  C   UNL     1     102.719 123.964 146.603  0.00  0.00    +0.000 A 
ATOM     11  C   UNL     1     102.108 123.649 147.856  0.00  0.00    +0.000 A 
ATOM     12  C   UNL     1     102.077 123.634 146.206  0.00  0.00    +0.000 A 
ATOM     13  C   UNL     1     101.450 123.311 146.633  0.00  0.00    +0.000 A 
ATOM     14  C   UNL     1     101.466 123.318 147.459  0.00  0.00    +0.000 A 
ENDROOT
BRANCH   6  16
ATOM     15  O   UNL     1     106.376 124.296 144.946  0.00  0.00    +0.000 OA
ATOM     16  C   UNL     1     104.665 124.966 146.124  0.00  0.00    +0.000 A 
ATOM     17  C   UNL     1     105.207 124.470 145.750  0.00  0.00    +0.000 A 
ATOM     18  C   UNL     1     104.748 125.785 146.068  0.00  0.00    +0.000 A 
ATOM     19  C   UNL     1     105.833 124.793 145.320  0.00  0.00    +0.000 A 
ATOM     20  C   UNL     1     105.374 126.107 145.637  0.00  0.00    +0.000 A 
ATOM     21  C   UNL     1     105.916 125.611 145.264  0.00  0.00    +0.000 A 
BRANCH  21  22
ATOM     22  O   UNL     1     106.542 125.933 144.833  0.00  0.00    +0.000 OA
ATOM     23  C   UNL     1     106.561 126.743 144.676  0.00  0.00    +0.000 C 
ENDBRANCH  21  22
ENDBRANCH   6  16
TORSDOF 2
ENDMDL
