MODEL 1
REMARK VINA RESULT:      -9.8      0.000      0.000
REMARK  Name = 44258976
REMARK  6 active torsions:
REMARK  status: ('A' for Active; 'I' for Inactive)
REMARK    1  A    between atoms: O_1  and  C_15
REMARK    2  A    between atoms: O_1  and  C_18
REMARK    3  A    between atoms: O_4  and  C_19
REMARK    4  A    between atoms: O_4  and  C_26
REMARK    5  A    between atoms: C_17  and  C_24
REMARK    6  A    between atoms: C_27  and  C_30
REMARK                            x       y       z     vdW  Elec       q    Type
REMARK                         _______ _______ _______ _____ _____    ______ ____
ROOT
ATOM      1  O   UNL     1     112.017 127.117 137.679  0.00  0.00    +0.000 OA
ENDROOT
BRANCH   1   6
ATOM      2  O   UNL     1     113.400 126.134 139.052  0.00  0.00    +0.000 OA
ATOM      3  O   UNL     1     112.455 128.385 138.641  0.00  0.00    +0.000 OA
ATOM      4  O   UNL     1     113.204 128.933 139.746  0.00  0.00    +0.000 OA
ATOM      5  O   UNL     1     114.942 127.171 141.296  0.00  0.00    +0.000 OA
ATOM      6  C   UNL     1     112.551 127.001 138.297  0.00  0.00    +0.000 A 
ATOM      7  C   UNL     1     112.867 126.251 138.434  0.00  0.00    +0.000 A 
ATOM      8  C   UNL     1     112.770 127.635 138.778  0.00  0.00    +0.000 A 
ATOM      9  C   UNL     1     113.304 127.518 139.396  0.00  0.00    +0.000 A 
ATOM     10  C   UNL     1     113.619 126.768 139.533  0.00  0.00    +0.000 A 
ATOM     11  C   UNL     1     113.524 128.186 139.890  0.00  0.00    +0.000 A 
ATOM     12  C   UNL     1     114.176 126.634 140.174  0.00  0.00    +0.000 A 
ATOM     13  C   UNL     1     114.079 128.072 140.536  0.00  0.00    +0.000 A 
ATOM     14  C   UNL     1     114.407 127.291 140.678  0.00  0.00    +0.000 A 
BRANCH   7  16
ATOM     15  O   UNL     1     111.989 123.717 136.510  0.00  0.00    +0.000 OA
ATOM     16  C   UNL     1     112.648 125.618 137.953  0.00  0.00    +0.000 A 
ATOM     17  C   UNL     1     111.924 125.239 138.074  0.00  0.00    +0.000 A 
ATOM     18  C   UNL     1     113.151 125.363 137.351  0.00  0.00    +0.000 A 
ATOM     19  C   UNL     1     111.705 124.605 137.593  0.00  0.00    +0.000 A 
ATOM     20  C   UNL     1     112.931 124.730 136.870  0.00  0.00    +0.000 A 
ATOM     21  C   UNL     1     112.209 124.351 136.991  0.00  0.00    +0.000 A 
ENDBRANCH   7  16
ENDBRANCH   1   6
BRANCH   1  27
ATOM     22  O   UNL     1     112.936 127.828 136.776  0.00  0.00    +0.000 OA
ATOM     23  O   UNL     1     111.718 129.151 135.627  0.00  0.00    +0.000 OA
ATOM     24  C   UNL     1     111.641 128.138 136.690  0.00  0.00    +0.000 C 
ATOM     25  C   UNL     1     112.051 128.598 136.140  0.00  0.00    +0.000 C 
ATOM     26  C   UNL     1     112.851 128.405 136.194  0.00  0.00    +0.000 C 
ATOM     27  C   UNL     1     112.188 127.663 137.083  0.00  0.00    +0.000 C 
BRANCH  26  29
ATOM     28  O   UNL     1     114.197 128.363 135.715  0.00  0.00    +0.000 OA
ATOM     29  C   UNL     1     113.460 128.733 135.743  0.00  0.00    +0.000 C 
ENDBRANCH  26  29
BRANCH  24  30
ATOM     30  O   UNL     1     110.827 128.153 136.823  0.00  0.00    +0.000 OA
BRANCH  30  35
ATOM     31  O   UNL     1     110.625 127.270 135.718  0.00  0.00    +0.000 OA
ATOM     32  O   UNL     1     109.226 128.038 137.207  0.00  0.00    +0.000 OA
ATOM     33  O   UNL     1     108.224 127.097 136.293  0.00  0.00    +0.000 OA
ATOM     34  O   UNL     1     108.823 126.272 134.996  0.00  0.00    +0.000 OA
ATOM     35  C   UNL     1     110.326 127.682 136.366  0.00  0.00    +0.000 C 
ATOM     36  C   UNL     1     109.526 127.625 136.558  0.00  0.00    +0.000 C 
ATOM     37  C   UNL     1     109.024 127.155 136.101  0.00  0.00    +0.000 C 
ATOM     38  C   UNL     1     109.324 126.743 135.453  0.00  0.00    +0.000 C 
ATOM     39  C   UNL     1     110.125 126.800 135.261  0.00  0.00    +0.000 C 
ATOM     40  C   UNL     1     110.423 126.387 134.612  0.00  0.00    +0.000 C 
ENDBRANCH  30  35
ENDBRANCH  24  30
ENDBRANCH   1  27
TORSDOF 6
ENDMDL
MODEL 2
REMARK VINA RESULT:      -9.5      1.469      4.960
REMARK  Name = 44258976
REMARK  6 active torsions:
REMARK  status: ('A' for Active; 'I' for Inactive)
REMARK    1  A    between atoms: O_1  and  C_15
REMARK    2  A    between atoms: O_1  and  C_18
REMARK    3  A    between atoms: O_4  and  C_19
REMARK    4  A    between atoms: O_4  and  C_26
REMARK    5  A    between atoms: C_17  and  C_24
REMARK    6  A    between atoms: C_27  and  C_30
REMARK                            x       y       z     vdW  Elec       q    Type
REMARK                         _______ _______ _______ _____ _____    ______ ____
ROOT
ATOM      1  O   UNL     1     111.435 127.907 136.648  0.00  0.00    +0.000 OA
ENDROOT
BRANCH   1   6
ATOM      2  O   UNL     1     110.996 129.699 135.481  0.00  0.00    +0.000 OA
ATOM      3  O   UNL     1     109.801 128.016 136.847  0.00  0.00    +0.000 OA
ATOM      4  O   UNL     1     108.539 128.673 136.605  0.00  0.00    +0.000 OA
ATOM      5  O   UNL     1     108.486 131.077 134.948  0.00  0.00    +0.000 OA
ATOM      6  C   UNL     1     111.016 128.522 136.292  0.00  0.00    +0.000 A 
ATOM      7  C   UNL     1     111.415 129.084 135.836  0.00  0.00    +0.000 A 
ATOM      8  C   UNL     1     110.199 128.576 136.392  0.00  0.00    +0.000 A 
ATOM      9  C   UNL     1     109.780 129.192 136.036  0.00  0.00    +0.000 A 
ATOM     10  C   UNL     1     110.178 129.753 135.581  0.00  0.00    +0.000 A 
ATOM     11  C   UNL     1     108.929 129.238 136.148  0.00  0.00    +0.000 A 
ATOM     12  C   UNL     1     109.754 130.399 135.205  0.00  0.00    +0.000 A 
ATOM     13  C   UNL     1     108.487 129.876 135.780  0.00  0.00    +0.000 A 
ATOM     14  C   UNL     1     108.902 130.460 135.305  0.00  0.00    +0.000 A 
BRANCH   7  16
ATOM     15  O   UNL     1     114.684 128.865 135.440  0.00  0.00    +0.000 OA
ATOM     16  C   UNL     1     112.232 129.029 135.737  0.00  0.00    +0.000 A 
ATOM     17  C   UNL     1     112.738 129.290 136.334  0.00  0.00    +0.000 A 
ATOM     18  C   UNL     1     112.543 128.713 135.041  0.00  0.00    +0.000 A 
ATOM     19  C   UNL     1     113.555 129.235 136.234  0.00  0.00    +0.000 A 
ATOM     20  C   UNL     1     113.360 128.659 134.942  0.00  0.00    +0.000 A 
ATOM     21  C   UNL     1     113.866 128.920 135.538  0.00  0.00    +0.000 A 
ENDBRANCH   7  16
ENDBRANCH   1   6
BRANCH   1  27
ATOM     22  O   UNL     1     110.944 126.834 135.770  0.00  0.00    +0.000 OA
ATOM     23  O   UNL     1     110.987 125.054 136.947  0.00  0.00    +0.000 OA
ATOM     24  C   UNL     1     111.285 126.492 137.015  0.00  0.00    +0.000 C 
ATOM     25  C   UNL     1     111.027 125.811 136.625  0.00  0.00    +0.000 C 
ATOM     26  C   UNL     1     110.817 126.023 135.855  0.00  0.00    +0.000 C 
ATOM     27  C   UNL     1     111.233 127.123 136.487  0.00  0.00    +0.000 C 
BRANCH  26  29
ATOM     28  O   UNL     1     110.143 125.820 134.612  0.00  0.00    +0.000 OA
ATOM     29  C   UNL     1     110.530 125.514 135.274  0.00  0.00    +0.000 C 
ENDBRANCH  26  29
BRANCH  24  30
ATOM     30  O   UNL     1     111.547 126.532 137.796  0.00  0.00    +0.000 OA
BRANCH  30  35
ATOM     31  O   UNL     1     112.816 126.003 137.408  0.00  0.00    +0.000 OA
ATOM     32  O   UNL     1     112.143 126.859 139.300  0.00  0.00    +0.000 OA
ATOM     33  O   UNL     1     113.710 126.493 139.664  0.00  0.00    +0.000 OA
ATOM     34  O   UNL     1     114.682 125.800 138.524  0.00  0.00    +0.000 OA
ATOM     35  C   UNL     1     112.331 126.349 137.977  0.00  0.00    +0.000 C 
ATOM     36  C   UNL     1     112.629 126.512 138.729  0.00  0.00    +0.000 C 
ATOM     37  C   UNL     1     113.412 126.330 138.912  0.00  0.00    +0.000 C 
ATOM     38  C   UNL     1     113.897 125.983 138.342  0.00  0.00    +0.000 C 
ATOM     39  C   UNL     1     113.599 125.820 137.590  0.00  0.00    +0.000 C 
ATOM     40  C   UNL     1     114.086 125.473 137.020  0.00  0.00    +0.000 C 
ENDBRANCH  30  35
ENDBRANCH  24  30
ENDBRANCH   1  27
TORSDOF 6
ENDMDL
MODEL 3
REMARK VINA RESULT:      -9.5      1.414      2.984
REMARK  Name = 44258976
REMARK  6 active torsions:
REMARK  status: ('A' for Active; 'I' for Inactive)
REMARK    1  A    between atoms: O_1  and  C_15
REMARK    2  A    between atoms: O_1  and  C_18
REMARK    3  A    between atoms: O_4  and  C_19
REMARK    4  A    between atoms: O_4  and  C_26
REMARK    5  A    between atoms: C_17  and  C_24
REMARK    6  A    between atoms: C_27  and  C_30
REMARK                            x       y       z     vdW  Elec       q    Type
REMARK                         _______ _______ _______ _____ _____    ______ ____
ROOT
ATOM      1  O   UNL     1     112.212 128.204 138.079  0.00  0.00    +0.000 OA
ENDROOT
BRANCH   1   6
ATOM      2  O   UNL     1     113.575 129.907 138.141  0.00  0.00    +0.000 OA
ATOM      3  O   UNL     1     112.515 128.302 139.698  0.00  0.00    +0.000 OA
ATOM      4  O   UNL     1     113.165 128.924 140.827  0.00  0.00    +0.000 OA
ATOM      5  O   UNL     1     114.921 131.212 140.370  0.00  0.00    +0.000 OA
ATOM      6  C   UNL     1     112.717 128.788 138.370  0.00  0.00    +0.000 A 
ATOM      7  C   UNL     1     113.070 129.323 137.850  0.00  0.00    +0.000 A 
ATOM      8  C   UNL     1     112.868 128.837 139.179  0.00  0.00    +0.000 A 
ATOM      9  C   UNL     1     113.373 129.422 139.469  0.00  0.00    +0.000 A 
ATOM     10  C   UNL     1     113.726 129.956 138.950  0.00  0.00    +0.000 A 
ATOM     11  C   UNL     1     113.523 129.463 140.315  0.00  0.00    +0.000 A 
ATOM     12  C   UNL     1     114.254 130.570 139.240  0.00  0.00    +0.000 A 
ATOM     13  C   UNL     1     114.047 130.069 140.624  0.00  0.00    +0.000 A 
ATOM     14  C   UNL     1     114.415 130.626 140.083  0.00  0.00    +0.000 A 
BRANCH   7  16
ATOM     15  O   UNL     1     112.465 129.123 134.612  0.00  0.00    +0.000 OA
ATOM     16  C   UNL     1     112.918 129.273 137.041  0.00  0.00    +0.000 A 
ATOM     17  C   UNL     1     113.460 128.901 136.542  0.00  0.00    +0.000 A 
ATOM     18  C   UNL     1     112.226 129.596 136.730  0.00  0.00    +0.000 A 
ATOM     19  C   UNL     1     113.309 128.851 135.733  0.00  0.00    +0.000 A 
ATOM     20  C   UNL     1     112.075 129.545 135.921  0.00  0.00    +0.000 A 
ATOM     21  C   UNL     1     112.616 129.173 135.422  0.00  0.00    +0.000 A 
ENDBRANCH   7  16
ENDBRANCH   1   6
BRANCH   1  27
ATOM     22  O   UNL     1     113.137 127.076 138.269  0.00  0.00    +0.000 OA
ATOM     23  O   UNL     1     111.908 125.354 138.549  0.00  0.00    +0.000 OA
ATOM     24  C   UNL     1     111.831 126.802 138.309  0.00  0.00    +0.000 C 
ATOM     25  C   UNL     1     112.244 126.097 138.427  0.00  0.00    +0.000 C 
ATOM     26  C   UNL     1     113.051 126.267 138.402  0.00  0.00    +0.000 C 
ATOM     27  C   UNL     1     112.383 127.407 138.212  0.00  0.00    +0.000 C 
BRANCH  26  29
ATOM     28  O   UNL     1     114.345 125.787 138.033  0.00  0.00    +0.000 OA
ATOM     29  C   UNL     1     113.664 125.722 138.494  0.00  0.00    +0.000 C 
ENDBRANCH  26  29
BRANCH  24  30
ATOM     30  O   UNL     1     111.011 126.887 138.292  0.00  0.00    +0.000 OA
BRANCH  30  35
ATOM     31  O   UNL     1     110.971 126.380 136.957  0.00  0.00    +0.000 OA
ATOM     32  O   UNL     1     109.432 127.347 138.164  0.00  0.00    +0.000 OA
ATOM     33  O   UNL     1     108.603 127.071 136.764  0.00  0.00    +0.000 OA
ATOM     34  O   UNL     1     109.353 126.335 135.493  0.00  0.00    +0.000 OA
ATOM     35  C   UNL     1     110.597 126.749 137.592  0.00  0.00    +0.000 C 
ATOM     36  C   UNL     1     109.807 126.979 137.528  0.00  0.00    +0.000 C 
ATOM     37  C   UNL     1     109.392 126.841 136.829  0.00  0.00    +0.000 C 
ATOM     38  C   UNL     1     109.768 126.473 136.193  0.00  0.00    +0.000 C 
ATOM     39  C   UNL     1     110.557 126.242 136.257  0.00  0.00    +0.000 C 
ATOM     40  C   UNL     1     110.932 125.874 135.621  0.00  0.00    +0.000 C 
ENDBRANCH  30  35
ENDBRANCH  24  30
ENDBRANCH   1  27
TORSDOF 6
ENDMDL
MODEL 4
REMARK VINA RESULT:      -9.5      1.545      4.449
REMARK  Name = 44258976
REMARK  6 active torsions:
REMARK  status: ('A' for Active; 'I' for Inactive)
REMARK    1  A    between atoms: O_1  and  C_15
REMARK    2  A    between atoms: O_1  and  C_18
REMARK    3  A    between atoms: O_4  and  C_19
REMARK    4  A    between atoms: O_4  and  C_26
REMARK    5  A    between atoms: C_17  and  C_24
REMARK    6  A    between atoms: C_27  and  C_30
REMARK                            x       y       z     vdW  Elec       q    Type
REMARK                         _______ _______ _______ _____ _____    ______ ____
ROOT
ATOM      1  O   UNL     1     112.374 127.458 137.853  0.00  0.00    +0.000 OA
ENDROOT
BRANCH   1   6
ATOM      2  O   UNL     1     112.434 125.296 138.150  0.00  0.00    +0.000 OA
ATOM      3  O   UNL     1     111.799 126.927 136.400  0.00  0.00    +0.000 OA
ATOM      4  O   UNL     1     111.425 125.861 135.502  0.00  0.00    +0.000 OA
ATOM      5  O   UNL     1     111.699 123.093 136.392  0.00  0.00    +0.000 OA
ATOM      6  C   UNL     1     112.298 126.649 137.710  0.00  0.00    +0.000 A 
ATOM      7  C   UNL     1     112.510 126.105 138.293  0.00  0.00    +0.000 A 
ATOM      8  C   UNL     1     112.010 126.384 136.983  0.00  0.00    +0.000 A 
ATOM      9  C   UNL     1     111.935 125.574 136.840  0.00  0.00    +0.000 A 
ATOM     10  C   UNL     1     112.146 125.031 137.423  0.00  0.00    +0.000 A 
ATOM     11  C   UNL     1     111.634 125.311 136.079  0.00  0.00    +0.000 A 
ATOM     12  C   UNL     1     112.072 124.186 137.287  0.00  0.00    +0.000 A 
ATOM     13  C   UNL     1     111.553 124.470 135.924  0.00  0.00    +0.000 A 
ATOM     14  C   UNL     1     111.773 123.904 136.532  0.00  0.00    +0.000 A 
BRANCH   7  16
ATOM     15  O   UNL     1     113.661 127.169 141.197  0.00  0.00    +0.000 OA
ATOM     16  C   UNL     1     112.797 126.371 139.019  0.00  0.00    +0.000 A 
ATOM     17  C   UNL     1     113.592 126.577 139.098  0.00  0.00    +0.000 A 
ATOM     18  C   UNL     1     112.290 126.431 139.667  0.00  0.00    +0.000 A 
ATOM     19  C   UNL     1     113.880 126.842 139.824  0.00  0.00    +0.000 A 
ATOM     20  C   UNL     1     112.578 126.697 140.393  0.00  0.00    +0.000 A 
ATOM     21  C   UNL     1     113.372 126.903 140.471  0.00  0.00    +0.000 A 
ENDBRANCH   7  16
ENDBRANCH   1   6
BRANCH   1  27
ATOM     22  O   UNL     1     110.940 127.749 138.004  0.00  0.00    +0.000 OA
ATOM     23  O   UNL     1     110.682 129.765 137.351  0.00  0.00    +0.000 OA
ATOM     24  C   UNL     1     111.711 128.730 137.528  0.00  0.00    +0.000 C 
ATOM     25  C   UNL     1     110.936 129.011 137.567  0.00  0.00    +0.000 C 
ATOM     26  C   UNL     1     110.459 128.404 137.861  0.00  0.00    +0.000 C 
ATOM     27  C   UNL     1     111.713 127.950 137.798  0.00  0.00    +0.000 C 
BRANCH  26  29
ATOM     28  O   UNL     1     109.289 127.945 138.540  0.00  0.00    +0.000 OA
ATOM     29  C   UNL     1     109.646 128.446 137.990  0.00  0.00    +0.000 C 
ENDBRANCH  26  29
BRANCH  24  30
ATOM     30  O   UNL     1     112.368 129.154 137.266  0.00  0.00    +0.000 OA
BRANCH  30  35
ATOM     31  O   UNL     1     112.496 129.770 138.549  0.00  0.00    +0.000 OA
ATOM     32  O   UNL     1     113.821 129.793 136.814  0.00  0.00    +0.000 OA
ATOM     33  O   UNL     1     114.675 130.729 137.871  0.00  0.00    +0.000 OA
ATOM     34  O   UNL     1     114.076 131.026 139.380  0.00  0.00    +0.000 OA
ATOM     35  C   UNL     1     112.795 129.622 137.795  0.00  0.00    +0.000 C 
ATOM     36  C   UNL     1     113.521 129.942 137.569  0.00  0.00    +0.000 C 
ATOM     37  C   UNL     1     113.948 130.409 138.097  0.00  0.00    +0.000 C 
ATOM     38  C   UNL     1     113.649 130.557 138.851  0.00  0.00    +0.000 C 
ATOM     39  C   UNL     1     112.922 130.238 139.077  0.00  0.00    +0.000 C 
ATOM     40  C   UNL     1     112.624 130.387 139.832  0.00  0.00    +0.000 C 
ENDBRANCH  30  35
ENDBRANCH  24  30
ENDBRANCH   1  27
TORSDOF 6
ENDMDL
MODEL 5
REMARK VINA RESULT:      -9.4      2.024      3.877
REMARK  Name = 44258976
REMARK  6 active torsions:
REMARK  status: ('A' for Active; 'I' for Inactive)
REMARK    1  A    between atoms: O_1  and  C_15
REMARK    2  A    between atoms: O_1  and  C_18
REMARK    3  A    between atoms: O_4  and  C_19
REMARK    4  A    between atoms: O_4  and  C_26
REMARK    5  A    between atoms: C_17  and  C_24
REMARK    6  A    between atoms: C_27  and  C_30
REMARK                            x       y       z     vdW  Elec       q    Type
REMARK                         _______ _______ _______ _____ _____    ______ ____
ROOT
ATOM      1  O   UNL     1     111.220 127.891 136.670  0.00  0.00    +0.000 OA
ENDROOT
BRANCH   1   6
ATOM      2  O   UNL     1     112.981 126.651 136.315  0.00  0.00    +0.000 OA
ATOM      3  O   UNL     1     110.652 126.408 137.116  0.00  0.00    +0.000 OA
ATOM      4  O   UNL     1     110.835 124.989 137.306  0.00  0.00    +0.000 OA
ATOM      5  O   UNL     1     113.423 123.794 136.673  0.00  0.00    +0.000 OA
ATOM      6  C   UNL     1     111.712 127.231 136.626  0.00  0.00    +0.000 A 
ATOM      7  C   UNL     1     112.489 127.312 136.359  0.00  0.00    +0.000 A 
ATOM      8  C   UNL     1     111.428 126.489 136.849  0.00  0.00    +0.000 A 
ATOM      9  C   UNL     1     111.921 125.828 136.805  0.00  0.00    +0.000 A 
ATOM     10  C   UNL     1     112.696 125.909 136.538  0.00  0.00    +0.000 A 
ATOM     11  C   UNL     1     111.612 125.061 137.040  0.00  0.00    +0.000 A 
ATOM     12  C   UNL     1     113.219 125.229 136.487  0.00  0.00    +0.000 A 
ATOM     13  C   UNL     1     112.120 124.369 136.996  0.00  0.00    +0.000 A 
ATOM     14  C   UNL     1     112.928 124.454 136.718  0.00  0.00    +0.000 A 
BRANCH   7  16
ATOM     15  O   UNL     1     113.624 130.279 135.466  0.00  0.00    +0.000 OA
ATOM     16  C   UNL     1     112.773 128.053 136.136  0.00  0.00    +0.000 A 
ATOM     17  C   UNL     1     112.578 128.364 135.397  0.00  0.00    +0.000 A 
ATOM     18  C   UNL     1     113.252 128.484 136.651  0.00  0.00    +0.000 A 
ATOM     19  C   UNL     1     112.861 129.106 135.174  0.00  0.00    +0.000 A 
ATOM     20  C   UNL     1     113.535 129.226 136.428  0.00  0.00    +0.000 A 
ATOM     21  C   UNL     1     113.340 129.537 135.689  0.00  0.00    +0.000 A 
ENDBRANCH   7  16
ENDBRANCH   1   6
BRANCH   1  27
ATOM     22  O   UNL     1     111.241 128.050 138.132  0.00  0.00    +0.000 OA
ATOM     23  O   UNL     1     109.335 128.855 138.658  0.00  0.00    +0.000 OA
ATOM     24  C   UNL     1     110.124 128.414 137.498  0.00  0.00    +0.000 C 
ATOM     25  C   UNL     1     110.015 128.549 138.305  0.00  0.00    +0.000 C 
ATOM     26  C   UNL     1     110.705 128.323 138.697  0.00  0.00    +0.000 C 
ATOM     27  C   UNL     1     110.881 128.106 137.391  0.00  0.00    +0.000 C 
BRANCH  26  29
ATOM     28  O   UNL     1     111.607 128.347 139.804  0.00  0.00    +0.000 OA
ATOM     29  C   UNL     1     110.837 128.365 139.510  0.00  0.00    +0.000 C 
ENDBRANCH  26  29
BRANCH  24  30
ATOM     30  O   UNL     1     109.572 128.562 136.903  0.00  0.00    +0.000 OA
BRANCH  30  35
ATOM     31  O   UNL     1     109.981 129.931 136.849  0.00  0.00    +0.000 OA
ATOM     32  O   UNL     1     108.298 128.904 135.911  0.00  0.00    +0.000 OA
ATOM     33  O   UNL     1     108.070 130.444 135.362  0.00  0.00    +0.000 OA
ATOM     34  O   UNL     1     109.116 131.641 135.804  0.00  0.00    +0.000 OA
ATOM     35  C   UNL     1     109.459 129.332 136.628  0.00  0.00    +0.000 C 
ATOM     36  C   UNL     1     108.822 129.503 136.133  0.00  0.00    +0.000 C 
ATOM     37  C   UNL     1     108.707 130.273 135.858  0.00  0.00    +0.000 C 
ATOM     38  C   UNL     1     109.230 130.871 136.079  0.00  0.00    +0.000 C 
ATOM     39  C   UNL     1     109.867 130.700 136.575  0.00  0.00    +0.000 C 
ATOM     40  C   UNL     1     110.390 131.299 136.796  0.00  0.00    +0.000 C 
ENDBRANCH  30  35
ENDBRANCH  24  30
ENDBRANCH   1  27
TORSDOF 6
ENDMDL
MODEL 6
REMARK VINA RESULT:      -9.4      1.714      2.770
REMARK  Name = 44258976
REMARK  6 active torsions:
REMARK  status: ('A' for Active; 'I' for Inactive)
REMARK    1  A    between atoms: O_1  and  C_15
REMARK    2  A    between atoms: O_1  and  C_18
REMARK    3  A    between atoms: O_4  and  C_19
REMARK    4  A    between atoms: O_4  and  C_26
REMARK    5  A    between atoms: C_17  and  C_24
REMARK    6  A    between atoms: C_27  and  C_30
REMARK                            x       y       z     vdW  Elec       q    Type
REMARK                         _______ _______ _______ _____ _____    ______ ____
ROOT
ATOM      1  O   UNL     1     111.627 127.451 136.690  0.00  0.00    +0.000 OA
ENDROOT
BRANCH   1   6
ATOM      2  O   UNL     1     112.277 125.387 136.404  0.00  0.00    +0.000 OA
ATOM      3  O   UNL     1     113.032 127.443 137.556  0.00  0.00    +0.000 OA
ATOM      4  O   UNL     1     114.205 126.767 138.056  0.00  0.00    +0.000 OA
ATOM      5  O   UNL     1     114.621 123.957 137.377  0.00  0.00    +0.000 OA
ATOM      6  C   UNL     1     112.078 126.762 136.739  0.00  0.00    +0.000 A 
ATOM      7  C   UNL     1     111.826 126.076 136.355  0.00  0.00    +0.000 A 
ATOM      8  C   UNL     1     112.780 126.758 137.172  0.00  0.00    +0.000 A 
ATOM      9  C   UNL     1     113.231 126.068 137.221  0.00  0.00    +0.000 A 
ATOM     10  C   UNL     1     112.979 125.383 136.837  0.00  0.00    +0.000 A 
ATOM     11  C   UNL     1     113.961 126.077 137.675  0.00  0.00    +0.000 A 
ATOM     12  C   UNL     1     113.439 124.659 136.880  0.00  0.00    +0.000 A 
ATOM     13  C   UNL     1     114.434 125.363 137.730  0.00  0.00    +0.000 A 
ATOM     14  C   UNL     1     114.172 124.649 137.330  0.00  0.00    +0.000 A 
BRANCH   7  16
ATOM     15  O   UNL     1     109.016 126.094 134.625  0.00  0.00    +0.000 OA
ATOM     16  C   UNL     1     111.124 126.081 135.922  0.00  0.00    +0.000 A 
ATOM     17  C   UNL     1     110.399 126.024 136.312  0.00  0.00    +0.000 A 
ATOM     18  C   UNL     1     111.146 126.142 135.099  0.00  0.00    +0.000 A 
ATOM     19  C   UNL     1     109.697 126.028 135.879  0.00  0.00    +0.000 A 
ATOM     20  C   UNL     1     110.443 126.146 134.667  0.00  0.00    +0.000 A 
ATOM     21  C   UNL     1     109.719 126.090 135.057  0.00  0.00    +0.000 A 
ENDBRANCH   7  16
ENDBRANCH   1   6
BRANCH   1  27
ATOM     22  O   UNL     1     112.521 128.185 135.780  0.00  0.00    +0.000 OA
ATOM     23  O   UNL     1     112.258 130.251 136.246  0.00  0.00    +0.000 OA
ATOM     24  C   UNL     1     111.795 128.911 136.634  0.00  0.00    +0.000 C 
ATOM     25  C   UNL     1     112.251 129.429 136.182  0.00  0.00    +0.000 C 
ATOM     26  C   UNL     1     112.700 128.980 135.654  0.00  0.00    +0.000 C 
ATOM     27  C   UNL     1     111.961 128.142 136.386  0.00  0.00    +0.000 C 
BRANCH  26  29
ATOM     28  O   UNL     1     113.715 128.756 134.674  0.00  0.00    +0.000 OA
ATOM     29  C   UNL     1     113.233 129.275 135.098  0.00  0.00    +0.000 C 
ENDBRANCH  26  29
BRANCH  24  30
ATOM     30  O   UNL     1     111.266 129.124 137.230  0.00  0.00    +0.000 OA
BRANCH  30  35
ATOM     31  O   UNL     1     110.279 129.433 136.243  0.00  0.00    +0.000 OA
ATOM     32  O   UNL     1     110.185 129.484 138.423  0.00  0.00    +0.000 OA
ATOM     33  O   UNL     1     108.658 129.972 138.034  0.00  0.00    +0.000 OA
ATOM     34  O   UNL     1     108.211 130.101 136.450  0.00  0.00    +0.000 OA
ATOM     35  C   UNL     1     110.502 129.368 137.034  0.00  0.00    +0.000 C 
ATOM     36  C   UNL     1     109.962 129.548 137.631  0.00  0.00    +0.000 C 
ATOM     37  C   UNL     1     109.198 129.792 137.437  0.00  0.00    +0.000 C 
ATOM     38  C   UNL     1     108.976 129.856 136.645  0.00  0.00    +0.000 C 
ATOM     39  C   UNL     1     109.516 129.677 136.048  0.00  0.00    +0.000 C 
ATOM     40  C   UNL     1     109.292 129.741 135.257  0.00  0.00    +0.000 C 
ENDBRANCH  30  35
ENDBRANCH  24  30
ENDBRANCH   1  27
TORSDOF 6
ENDMDL
MODEL 7
REMARK VINA RESULT:      -9.4      2.423      4.162
REMARK  Name = 44258976
REMARK  6 active torsions:
REMARK  status: ('A' for Active; 'I' for Inactive)
REMARK    1  A    between atoms: O_1  and  C_15
REMARK    2  A    between atoms: O_1  and  C_18
REMARK    3  A    between atoms: O_4  and  C_19
REMARK    4  A    between atoms: O_4  and  C_26
REMARK    5  A    between atoms: C_17  and  C_24
REMARK    6  A    between atoms: C_27  and  C_30
REMARK                            x       y       z     vdW  Elec       q    Type
REMARK                         _______ _______ _______ _____ _____    ______ ____
ROOT
ATOM      1  O   UNL     1     111.576 126.295 139.040  0.00  0.00    +0.000 OA
ENDROOT
BRANCH   1   6
ATOM      2  O   UNL     1     113.724 126.177 138.670  0.00  0.00    +0.000 OA
ATOM      3  O   UNL     1     111.617 125.231 137.779  0.00  0.00    +0.000 OA
ATOM      4  O   UNL     1     112.344 124.465 136.795  0.00  0.00    +0.000 OA
ATOM      5  O   UNL     1     115.257 124.660 136.712  0.00  0.00    +0.000 OA
ATOM      6  C   UNL     1     112.298 126.078 138.706  0.00  0.00    +0.000 A 
ATOM      7  C   UNL     1     113.001 126.394 139.004  0.00  0.00    +0.000 A 
ATOM      8  C   UNL     1     112.319 125.547 138.076  0.00  0.00    +0.000 A 
ATOM      9  C   UNL     1     113.043 125.330 137.743  0.00  0.00    +0.000 A 
ATOM     10  C   UNL     1     113.744 125.646 138.040  0.00  0.00    +0.000 A 
ATOM     11  C   UNL     1     113.051 124.775 137.086  0.00  0.00    +0.000 A 
ATOM     12  C   UNL     1     114.504 125.428 137.701  0.00  0.00    +0.000 A 
ATOM     13  C   UNL     1     113.800 124.546 136.734  0.00  0.00    +0.000 A 
ATOM     14  C   UNL     1     114.531 124.875 137.044  0.00  0.00    +0.000 A 
BRANCH   7  16
ATOM     15  O   UNL     1     112.916 128.519 141.527  0.00  0.00    +0.000 OA
ATOM     16  C   UNL     1     112.980 126.925 139.634  0.00  0.00    +0.000 A 
ATOM     17  C   UNL     1     112.901 126.645 140.407  0.00  0.00    +0.000 A 
ATOM     18  C   UNL     1     113.037 127.736 139.493  0.00  0.00    +0.000 A 
ATOM     19  C   UNL     1     112.880 127.177 141.037  0.00  0.00    +0.000 A 
ATOM     20  C   UNL     1     113.015 128.267 140.124  0.00  0.00    +0.000 A 
ATOM     21  C   UNL     1     112.937 127.988 140.896  0.00  0.00    +0.000 A 
ENDBRANCH   7  16
ENDBRANCH   1   6
BRANCH   1  27
ATOM     22  O   UNL     1     111.119 127.148 137.932  0.00  0.00    +0.000 OA
ATOM     23  O   UNL     1     108.988 127.041 137.955  0.00  0.00    +0.000 OA
ATOM     24  C   UNL     1     110.178 126.538 138.656  0.00  0.00    +0.000 C 
ATOM     25  C   UNL     1     109.802 126.983 138.071  0.00  0.00    +0.000 C 
ATOM     26  C   UNL     1     110.384 127.360 137.624  0.00  0.00    +0.000 C 
ATOM     27  C   UNL     1     110.991 126.640 138.570  0.00  0.00    +0.000 C 
BRANCH  26  29
ATOM     28  O   UNL     1     110.825 128.417 136.770  0.00  0.00    +0.000 OA
ATOM     29  C   UNL     1     110.254 127.861 136.982  0.00  0.00    +0.000 C 
ENDBRANCH  26  29
BRANCH  24  30
ATOM     30  O   UNL     1     109.804 126.074 139.227  0.00  0.00    +0.000 OA
BRANCH  30  35
ATOM     31  O   UNL     1     109.539 127.236 140.015  0.00  0.00    +0.000 OA
ATOM     32  O   UNL     1     109.295 125.115 140.469  0.00  0.00    +0.000 OA
ATOM     33  O   UNL     1     108.776 125.797 141.879  0.00  0.00    +0.000 OA
ATOM     34  O   UNL     1     108.765 127.439 142.046  0.00  0.00    +0.000 OA
ATOM     35  C   UNL     1     109.544 126.416 139.931  0.00  0.00    +0.000 C 
ATOM     36  C   UNL     1     109.290 125.936 140.552  0.00  0.00    +0.000 C 
ATOM     37  C   UNL     1     109.030 126.277 141.257  0.00  0.00    +0.000 C 
ATOM     38  C   UNL     1     109.025 127.097 141.340  0.00  0.00    +0.000 C 
ATOM     39  C   UNL     1     109.280 127.577 140.719  0.00  0.00    +0.000 C 
ATOM     40  C   UNL     1     109.274 128.398 140.803  0.00  0.00    +0.000 C 
ENDBRANCH  30  35
ENDBRANCH  24  30
ENDBRANCH   1  27
TORSDOF 6
ENDMDL
MODEL 8
REMARK VINA RESULT:      -9.4      1.487      3.934
REMARK  Name = 44258976
REMARK  6 active torsions:
REMARK  status: ('A' for Active; 'I' for Inactive)
REMARK    1  A    between atoms: O_1  and  C_15
REMARK    2  A    between atoms: O_1  and  C_18
REMARK    3  A    between atoms: O_4  and  C_19
REMARK    4  A    between atoms: O_4  and  C_26
REMARK    5  A    between atoms: C_17  and  C_24
REMARK    6  A    between atoms: C_27  and  C_30
REMARK                            x       y       z     vdW  Elec       q    Type
REMARK                         _______ _______ _______ _____ _____    ______ ____
ROOT
ATOM      1  O   UNL     1     112.165 127.387 137.823  0.00  0.00    +0.000 OA
ENDROOT
BRANCH   1   6
ATOM      2  O   UNL     1     112.515 125.242 138.025  0.00  0.00    +0.000 OA
ATOM      3  O   UNL     1     111.465 126.825 136.439  0.00  0.00    +0.000 OA
ATOM      4  O   UNL     1     111.100 125.743 135.556  0.00  0.00    +0.000 OA
ATOM      5  O   UNL     1     111.811 123.008 136.293  0.00  0.00    +0.000 OA
ATOM      6  C   UNL     1     112.165 126.578 137.660  0.00  0.00    +0.000 A 
ATOM      7  C   UNL     1     112.515 126.050 138.188  0.00  0.00    +0.000 A 
ATOM      8  C   UNL     1     111.815 126.298 136.967  0.00  0.00    +0.000 A 
ATOM      9  C   UNL     1     111.815 125.489 136.804  0.00  0.00    +0.000 A 
ATOM     10  C   UNL     1     112.165 124.961 137.332  0.00  0.00    +0.000 A 
ATOM     11  C   UNL     1     111.447 125.209 136.079  0.00  0.00    +0.000 A 
ATOM     12  C   UNL     1     112.172 124.117 137.173  0.00  0.00    +0.000 A 
ATOM     13  C   UNL     1     111.444 124.368 135.903  0.00  0.00    +0.000 A 
ATOM     14  C   UNL     1     111.809 123.818 136.454  0.00  0.00    +0.000 A 
BRANCH   7  16
ATOM     15  O   UNL     1     113.913 127.176 140.958  0.00  0.00    +0.000 OA
ATOM     16  C   UNL     1     112.865 126.332 138.881  0.00  0.00    +0.000 A 
ATOM     17  C   UNL     1     112.397 126.503 139.539  0.00  0.00    +0.000 A 
ATOM     18  C   UNL     1     113.682 126.441 138.915  0.00  0.00    +0.000 A 
ATOM     19  C   UNL     1     112.747 126.785 140.231  0.00  0.00    +0.000 A 
ATOM     20  C   UNL     1     114.031 126.723 139.608  0.00  0.00    +0.000 A 
ATOM     21  C   UNL     1     113.564 126.894 140.265  0.00  0.00    +0.000 A 
ENDBRANCH   7  16
ENDBRANCH   1   6
BRANCH   1  27
ATOM     22  O   UNL     1     113.149 127.767 136.799  0.00  0.00    +0.000 OA
ATOM     23  O   UNL     1     112.680 129.779 136.259  0.00  0.00    +0.000 OA
ATOM     24  C   UNL     1     112.246 128.688 137.144  0.00  0.00    +0.000 C 
ATOM     25  C   UNL     1     112.737 129.016 136.568  0.00  0.00    +0.000 C 
ATOM     26  C   UNL     1     113.295 128.447 136.355  0.00  0.00    +0.000 C 
ATOM     27  C   UNL     1     112.500 127.917 137.287  0.00  0.00    +0.000 C 
BRANCH  26  29
ATOM     28  O   UNL     1     114.514 127.997 135.760  0.00  0.00    +0.000 OA
ATOM     29  C   UNL     1     113.894 128.541 135.796  0.00  0.00    +0.000 C 
ENDBRANCH  26  29
BRANCH  24  30
ATOM     30  O   UNL     1     111.611 129.066 137.512  0.00  0.00    +0.000 OA
BRANCH  30  35
ATOM     31  O   UNL     1     112.507 129.741 138.397  0.00  0.00    +0.000 OA
ATOM     32  O   UNL     1     110.332 129.557 138.432  0.00  0.00    +0.000 OA
ATOM     33  O   UNL     1     110.589 130.479 139.776  0.00  0.00    +0.000 OA
ATOM     34  O   UNL     1     112.124 130.909 140.202  0.00  0.00    +0.000 OA
ATOM     35  C   UNL     1     111.740 129.527 138.185  0.00  0.00    +0.000 C 
ATOM     36  C   UNL     1     111.101 129.772 138.644  0.00  0.00    +0.000 C 
ATOM     37  C   UNL     1     111.228 130.233 139.317  0.00  0.00    +0.000 C 
ATOM     38  C   UNL     1     111.996 130.447 139.529  0.00  0.00    +0.000 C 
ATOM     39  C   UNL     1     112.635 130.202 139.069  0.00  0.00    +0.000 C 
ATOM     40  C   UNL     1     113.403 130.417 139.282  0.00  0.00    +0.000 C 
ENDBRANCH  30  35
ENDBRANCH  24  30
ENDBRANCH   1  27
TORSDOF 6
ENDMDL
MODEL 9
REMARK VINA RESULT:      -9.3      2.588      4.836
REMARK  Name = 44258976
REMARK  6 active torsions:
REMARK  status: ('A' for Active; 'I' for Inactive)
REMARK    1  A    between atoms: O_1  and  C_15
REMARK    2  A    between atoms: O_1  and  C_18
REMARK    3  A    between atoms: O_4  and  C_19
REMARK    4  A    between atoms: O_4  and  C_26
REMARK    5  A    between atoms: C_17  and  C_24
REMARK    6  A    between atoms: C_27  and  C_30
REMARK                            x       y       z     vdW  Elec       q    Type
REMARK                         _______ _______ _______ _____ _____    ______ ____
ROOT
ATOM      1  O   UNL     1     110.892 129.235 136.859  0.00  0.00    +0.000 OA
ENDROOT
BRANCH   1   6
ATOM      2  O   UNL     1     110.152 127.648 135.557  0.00  0.00    +0.000 OA
ATOM      3  O   UNL     1     111.755 127.946 137.419  0.00  0.00    +0.000 OA
ATOM      4  O   UNL     1     112.106 126.546 137.378  0.00  0.00    +0.000 OA
ATOM      5  O   UNL     1     110.811 124.814 135.417  0.00  0.00    +0.000 OA
ATOM      6  C   UNL     1     110.789 128.491 136.519  0.00  0.00    +0.000 A 
ATOM      7  C   UNL     1     110.254 128.392 135.898  0.00  0.00    +0.000 A 
ATOM      8  C   UNL     1     111.221 127.847 136.799  0.00  0.00    +0.000 A 
ATOM      9  C   UNL     1     111.118 127.102 136.457  0.00  0.00    +0.000 A 
ATOM     10  C   UNL     1     110.584 127.003 135.837  0.00  0.00    +0.000 A 
ATOM     11  C   UNL     1     111.574 126.438 136.758  0.00  0.00    +0.000 A 
ATOM     12  C   UNL     1     110.468 126.233 135.473  0.00  0.00    +0.000 A 
ATOM     13  C   UNL     1     111.472 125.660 136.407  0.00  0.00    +0.000 A 
ATOM     14  C   UNL     1     110.916 125.557 135.760  0.00  0.00    +0.000 A 
BRANCH   7  16
ATOM     15  O   UNL     1     108.526 130.972 134.782  0.00  0.00    +0.000 OA
ATOM     16  C   UNL     1     109.823 129.037 135.618  0.00  0.00    +0.000 A 
ATOM     17  C   UNL     1     109.141 129.280 136.016  0.00  0.00    +0.000 A 
ATOM     18  C   UNL     1     110.072 129.439 134.943  0.00  0.00    +0.000 A 
ATOM     19  C   UNL     1     108.710 129.925 135.737  0.00  0.00    +0.000 A 
ATOM     20  C   UNL     1     109.639 130.084 134.664  0.00  0.00    +0.000 A 
ATOM     21  C   UNL     1     108.959 130.327 135.061  0.00  0.00    +0.000 A 
ENDBRANCH   7  16
ENDBRANCH   1   6
BRANCH   1  27
ATOM     22  O   UNL     1     112.213 129.513 136.276  0.00  0.00    +0.000 OA
ATOM     23  O   UNL     1     113.204 130.798 137.662  0.00  0.00    +0.000 OA
ATOM     24  C   UNL     1     111.939 130.079 137.454  0.00  0.00    +0.000 C 
ATOM     25  C   UNL     1     112.701 130.307 137.232  0.00  0.00    +0.000 C 
ATOM     26  C   UNL     1     112.869 129.957 136.504  0.00  0.00    +0.000 C 
ATOM     27  C   UNL     1     111.637 129.589 136.863  0.00  0.00    +0.000 C 
BRANCH  26  29
ATOM     28  O   UNL     1     113.591 129.849 135.275  0.00  0.00    +0.000 OA
ATOM     29  C   UNL     1     113.572 130.037 136.079  0.00  0.00    +0.000 C 
ENDBRANCH  26  29
BRANCH  24  30
ATOM     30  O   UNL     1     111.548 130.303 138.145  0.00  0.00    +0.000 OA
BRANCH  30  35
ATOM     31  O   UNL     1     111.201 131.563 137.569  0.00  0.00    +0.000 OA
ATOM     32  O   UNL     1     110.463 130.559 139.361  0.00  0.00    +0.000 OA
ATOM     33  O   UNL     1     109.573 131.949 139.393  0.00  0.00    +0.000 OA
ATOM     34  O   UNL     1     109.769 133.081 138.209  0.00  0.00    +0.000 OA
ATOM     35  C   UNL     1     111.103 130.998 138.160  0.00  0.00    +0.000 C 
ATOM     36  C   UNL     1     110.561 131.126 138.768  0.00  0.00    +0.000 C 
ATOM     37  C   UNL     1     110.116 131.820 138.785  0.00  0.00    +0.000 C 
ATOM     38  C   UNL     1     110.214 132.386 138.193  0.00  0.00    +0.000 C 
ATOM     39  C   UNL     1     110.757 132.258 137.585  0.00  0.00    +0.000 C 
ATOM     40  C   UNL     1     110.854 132.824 136.993  0.00  0.00    +0.000 C 
ENDBRANCH  30  35
ENDBRANCH  24  30
ENDBRANCH   1  27
TORSDOF 6
ENDMDL
MODEL 10
REMARK VINA RESULT:      -9.3      1.609      3.612
REMARK  Name = 44258976
REMARK  6 active torsions:
REMARK  status: ('A' for Active; 'I' for Inactive)
REMARK    1  A    between atoms: O_1  and  C_15
REMARK    2  A    between atoms: O_1  and  C_18
REMARK    3  A    between atoms: O_4  and  C_19
REMARK    4  A    between atoms: O_4  and  C_26
REMARK    5  A    between atoms: C_17  and  C_24
REMARK    6  A    between atoms: C_27  and  C_30
REMARK                            x       y       z     vdW  Elec       q    Type
REMARK                         _______ _______ _______ _____ _____    ______ ____
ROOT
ATOM      1  O   UNL     1     112.720 127.699 138.417  0.00  0.00    +0.000 OA
ENDROOT
BRANCH   1   6
ATOM      2  O   UNL     1     113.452 129.756 138.406  0.00  0.00    +0.000 OA
ATOM      3  O   UNL     1     113.378 127.804 139.927  0.00  0.00    +0.000 OA
ATOM      4  O   UNL     1     114.066 128.545 140.957  0.00  0.00    +0.000 OA
ATOM      5  O   UNL     1     114.843 131.311 140.439  0.00  0.00    +0.000 OA
ATOM      6  C   UNL     1     113.074 128.402 138.665  0.00  0.00    +0.000 A 
ATOM      7  C   UNL     1     113.099 129.053 138.158  0.00  0.00    +0.000 A 
ATOM      8  C   UNL     1     113.402 128.454 139.421  0.00  0.00    +0.000 A 
ATOM      9  C   UNL     1     113.756 129.158 139.668  0.00  0.00    +0.000 A 
ATOM     10  C   UNL     1     113.781 129.808 139.162  0.00  0.00    +0.000 A 
ATOM     11  C   UNL     1     114.095 129.200 140.457  0.00  0.00    +0.000 A 
ATOM     12  C   UNL     1     114.146 130.546 139.408  0.00  0.00    +0.000 A 
ATOM     13  C   UNL     1     114.464 129.929 140.722  0.00  0.00    +0.000 A 
ATOM     14  C   UNL     1     114.490 130.606 140.193  0.00  0.00    +0.000 A 
BRANCH   7  16
ATOM     15  O   UNL     1     111.785 128.840 135.139  0.00  0.00    +0.000 OA
ATOM     16  C   UNL     1     112.770 129.000 137.404  0.00  0.00    +0.000 A 
ATOM     17  C   UNL     1     113.196 128.645 136.792  0.00  0.00    +0.000 A 
ATOM     18  C   UNL     1     112.015 129.301 137.260  0.00  0.00    +0.000 A 
ATOM     19  C   UNL     1     112.867 128.592 136.038  0.00  0.00    +0.000 A 
ATOM     20  C   UNL     1     111.687 129.248 136.505  0.00  0.00    +0.000 A 
ATOM     21  C   UNL     1     112.113 128.893 135.894  0.00  0.00    +0.000 A 
ENDBRANCH   7  16
ENDBRANCH   1   6
BRANCH   1  27
ATOM     22  O   UNL     1     111.529 127.800 139.274  0.00  0.00    +0.000 OA
ATOM     23  O   UNL     1     110.903 125.792 139.639  0.00  0.00    +0.000 OA
ATOM     24  C   UNL     1     111.931 126.572 138.936  0.00  0.00    +0.000 C 
ATOM     25  C   UNL     1     111.261 126.499 139.412  0.00  0.00    +0.000 C 
ATOM     26  C   UNL     1     111.013 127.258 139.621  0.00  0.00    +0.000 C 
ATOM     27  C   UNL     1     112.096 127.376 138.850  0.00  0.00    +0.000 C 
BRANCH  26  29
ATOM     28  O   UNL     1     109.968 128.159 139.991  0.00  0.00    +0.000 OA
ATOM     29  C   UNL     1     110.362 127.442 140.094  0.00  0.00    +0.000 C 
ENDBRANCH  26  29
BRANCH  24  30
ATOM     30  O   UNL     1     112.360 125.951 138.603  0.00  0.00    +0.000 OA
BRANCH  30  35
ATOM     31  O   UNL     1     111.382 125.819 137.569  0.00  0.00    +0.000 OA
ATOM     32  O   UNL     1     113.331 124.870 137.822  0.00  0.00    +0.000 OA
ATOM     33  O   UNL     1     112.840 124.197 136.398  0.00  0.00    +0.000 OA
ATOM     34  O   UNL     1     111.377 124.606 135.754  0.00  0.00    +0.000 OA
ATOM     35  C   UNL     1     112.113 125.615 137.891  0.00  0.00    +0.000 C 
ATOM     36  C   UNL     1     112.599 125.074 137.500  0.00  0.00    +0.000 C 
ATOM     37  C   UNL     1     112.354 124.738 136.788  0.00  0.00    +0.000 C 
ATOM     38  C   UNL     1     111.622 124.943 136.467  0.00  0.00    +0.000 C 
ATOM     39  C   UNL     1     111.137 125.483 136.857  0.00  0.00    +0.000 C 
ATOM     40  C   UNL     1     110.405 125.688 136.535  0.00  0.00    +0.000 C 
ENDBRANCH  30  35
ENDBRANCH  24  30
ENDBRANCH   1  27
TORSDOF 6
ENDMDL
