MODEL 1
REMARK VINA RESULT:     -10.5      0.000      0.000
REMARK  Name = 14035324
REMARK  6 active torsions:
REMARK  status: ('A' for Active; 'I' for Inactive)
REMARK    1  A    between atoms: O_3  and  C_22
REMARK    2  A    between atoms: O_3  and  C_28
REMARK    3  A    between atoms: O_6  and  C_25
REMARK    4  A    between atoms: O_6  and  C_29
REMARK    5  A    between atoms: C_19  and  C_26
REMARK    6  A    between atoms: C_32  and  C_37
REMARK                            x       y       z     vdW  Elec       q    Type
REMARK                         _______ _______ _______ _____ _____    ______ ____
ROOT
ATOM      1  O   UNL     1     113.479 126.234 138.665  0.00  0.00    +0.000 OA
ATOM      2  O   UNL     1     111.084 125.789 138.224  0.00  0.00    +0.000 OA
ATOM      3  O   UNL     1     110.714 126.370 139.492  0.00  0.00    +0.000 OA
ATOM      4  C   UNL     1     112.451 125.721 137.814  0.00  0.00    +0.000 A 
ATOM      5  C   UNL     1     112.574 127.056 140.535  0.00  0.00    +0.000 A 
ATOM      6  C   UNL     1     112.112 126.302 139.075  0.00  0.00    +0.000 A 
ATOM      7  C   UNL     1     111.882 125.937 138.371  0.00  0.00    +0.000 A 
ATOM      8  C   UNL     1     113.249 125.869 137.961  0.00  0.00    +0.000 A 
ATOM      9  C   UNL     1     112.910 126.450 139.221  0.00  0.00    +0.000 A 
ATOM     10  C   UNL     1     113.162 126.828 139.950  0.00  0.00    +0.000 A 
ATOM     11  C   UNL     1     111.743 126.902 140.382  0.00  0.00    +0.000 A 
ATOM     12  C   UNL     1     111.510 126.522 139.647  0.00  0.00    +0.000 A 
ENDROOT
BRANCH   8  14
ATOM     13  O   UNL     1     115.524 125.005 135.731  0.00  0.00    +0.000 OA
ATOM     14  C   UNL     1     113.818 125.653 137.403  0.00  0.00    +0.000 A 
ATOM     15  C   UNL     1     114.050 124.864 137.335  0.00  0.00    +0.000 A 
ATOM     16  C   UNL     1     114.154 126.226 136.914  0.00  0.00    +0.000 A 
ATOM     17  C   UNL     1     114.619 124.649 136.778  0.00  0.00    +0.000 A 
ATOM     18  C   UNL     1     114.723 126.010 136.356  0.00  0.00    +0.000 A 
ATOM     19  C   UNL     1     114.955 125.221 136.288  0.00  0.00    +0.000 A 
ENDBRANCH   8  14
BRANCH   4  20
ATOM     20  O   UNL     1     112.222 125.357 137.110  0.00  0.00    +0.000 OA
BRANCH  20  29
ATOM     21  O   UNL     1     111.716 126.564 136.537  0.00  0.00    +0.000 OA
ATOM     22  O   UNL     1     110.120 125.250 135.176  0.00  0.00    +0.000 OA
ATOM     23  O   UNL     1     110.147 126.896 135.056  0.00  0.00    +0.000 OA
ATOM     24  O   UNL     1     111.157 124.481 136.203  0.00  0.00    +0.000 OA
ATOM     25  C   UNL     1     110.652 125.688 135.630  0.00  0.00    +0.000 C 
ATOM     26  C   UNL     1     110.666 126.512 135.570  0.00  0.00    +0.000 C 
ATOM     27  C   UNL     1     111.171 125.304 136.143  0.00  0.00    +0.000 C 
ATOM     28  C   UNL     1     111.198 126.950 136.023  0.00  0.00    +0.000 C 
ATOM     29  C   UNL     1     111.703 125.742 136.597  0.00  0.00    +0.000 C 
BRANCH  28  31
ATOM     30  O   UNL     1     111.883 128.154 135.676  0.00  0.00    +0.000 OA
ATOM     31  C   UNL     1     111.211 127.772 135.963  0.00  0.00    +0.000 C 
ENDBRANCH  28  31
ENDBRANCH  20  29
ENDBRANCH   4  20
BRANCH   5  32
ATOM     32  O   UNL     1     112.808 127.420 141.238  0.00  0.00    +0.000 OA
BRANCH  32  41
ATOM     33  O   UNL     1     113.198 128.685 140.701  0.00  0.00    +0.000 OA
ATOM     34  O   UNL     1     112.128 129.829 142.618  0.00  0.00    +0.000 OA
ATOM     35  O   UNL     1     112.875 130.713 141.443  0.00  0.00    +0.000 OA
ATOM     36  O   UNL     1     112.094 128.182 142.515  0.00  0.00    +0.000 OA
ATOM     37  C   UNL     1     112.485 129.448 141.979  0.00  0.00    +0.000 C 
ATOM     38  C   UNL     1     112.859 129.890 141.391  0.00  0.00    +0.000 C 
ATOM     39  C   UNL     1     112.468 128.624 141.928  0.00  0.00    +0.000 C 
ATOM     40  C   UNL     1     113.215 129.509 140.753  0.00  0.00    +0.000 C 
ATOM     41  C   UNL     1     112.825 128.243 141.289  0.00  0.00    +0.000 C 
ATOM     42  C   UNL     1     113.588 129.951 140.165  0.00  0.00    +0.000 C 
ENDBRANCH  32  41
ENDBRANCH   5  32
TORSDOF 6
ENDMDL
MODEL 2
REMARK VINA RESULT:     -10.2      1.347      2.763
REMARK  Name = 14035324
REMARK  6 active torsions:
REMARK  status: ('A' for Active; 'I' for Inactive)
REMARK    1  A    between atoms: O_3  and  C_22
REMARK    2  A    between atoms: O_3  and  C_28
REMARK    3  A    between atoms: O_6  and  C_25
REMARK    4  A    between atoms: O_6  and  C_29
REMARK    5  A    between atoms: C_19  and  C_26
REMARK    6  A    between atoms: C_32  and  C_37
REMARK                            x       y       z     vdW  Elec       q    Type
REMARK                         _______ _______ _______ _____ _____    ______ ____
ROOT
ATOM      1  O   UNL     1     113.102 128.493 138.144  0.00  0.00    +0.000 OA
ATOM      2  O   UNL     1     112.446 126.211 138.842  0.00  0.00    +0.000 OA
ATOM      3  O   UNL     1     113.061 126.398 140.133  0.00  0.00    +0.000 OA
ATOM      4  C   UNL     1     112.465 127.246 137.857  0.00  0.00    +0.000 A 
ATOM      5  C   UNL     1     113.946 128.455 140.213  0.00  0.00    +0.000 A 
ATOM      6  C   UNL     1     113.082 127.458 139.129  0.00  0.00    +0.000 A 
ATOM      7  C   UNL     1     112.665 126.972 138.610  0.00  0.00    +0.000 A 
ATOM      8  C   UNL     1     112.684 128.007 137.625  0.00  0.00    +0.000 A 
ATOM      9  C   UNL     1     113.301 128.219 138.896  0.00  0.00    +0.000 A 
ATOM     10  C   UNL     1     113.735 128.735 139.428  0.00  0.00    +0.000 A 
ATOM     11  C   UNL     1     113.719 127.662 140.455  0.00  0.00    +0.000 A 
ATOM     12  C   UNL     1     113.284 127.161 139.909  0.00  0.00    +0.000 A 
ENDROOT
BRANCH   8  14
ATOM     13  O   UNL     1     111.888 129.104 134.616  0.00  0.00    +0.000 OA
ATOM     14  C   UNL     1     112.485 128.282 136.872  0.00  0.00    +0.000 A 
ATOM     15  C   UNL     1     111.703 128.479 136.699  0.00  0.00    +0.000 A 
ATOM     16  C   UNL     1     113.068 128.358 136.294  0.00  0.00    +0.000 A 
ATOM     17  C   UNL     1     111.504 128.753 135.947  0.00  0.00    +0.000 A 
ATOM     18  C   UNL     1     112.868 128.633 135.541  0.00  0.00    +0.000 A 
ATOM     19  C   UNL     1     112.086 128.830 135.368  0.00  0.00    +0.000 A 
ENDBRANCH   8  14
BRANCH   4  20
ATOM     20  O   UNL     1     112.048 126.760 137.338  0.00  0.00    +0.000 OA
BRANCH  20  29
ATOM     21  O   UNL     1     113.169 125.917 137.066  0.00  0.00    +0.000 OA
ATOM     22  O   UNL     1     111.638 124.025 136.616  0.00  0.00    +0.000 OA
ATOM     23  O   UNL     1     113.270 123.812 136.495  0.00  0.00    +0.000 OA
ATOM     24  O   UNL     1     111.027 125.499 137.038  0.00  0.00    +0.000 OA
ATOM     25  C   UNL     1     112.149 124.656 136.766  0.00  0.00    +0.000 C 
ATOM     26  C   UNL     1     112.965 124.549 136.706  0.00  0.00    +0.000 C 
ATOM     27  C   UNL     1     111.844 125.393 136.977  0.00  0.00    +0.000 C 
ATOM     28  C   UNL     1     113.476 125.180 136.855  0.00  0.00    +0.000 C 
ATOM     29  C   UNL     1     112.354 126.023 137.127  0.00  0.00    +0.000 C 
BRANCH  28  31
ATOM     30  O   UNL     1     114.729 125.535 136.270  0.00  0.00    +0.000 OA
ATOM     31  C   UNL     1     114.291 125.074 136.795  0.00  0.00    +0.000 C 
ENDBRANCH  28  31
ENDBRANCH  20  29
ENDBRANCH   4  20
BRANCH   5  32
ATOM     32  O   UNL     1     114.364 128.944 140.729  0.00  0.00    +0.000 OA
BRANCH  32  41
ATOM     33  O   UNL     1     113.236 129.470 141.432  0.00  0.00    +0.000 OA
ATOM     34  O   UNL     1     114.328 131.689 141.524  0.00  0.00    +0.000 OA
ATOM     35  O   UNL     1     112.837 131.476 142.196  0.00  0.00    +0.000 OA
ATOM     36  O   UNL     1     115.092 130.424 140.790  0.00  0.00    +0.000 OA
ATOM     37  C   UNL     1     113.964 130.949 141.493  0.00  0.00    +0.000 C 
ATOM     38  C   UNL     1     113.218 130.842 141.829  0.00  0.00    +0.000 C 
ATOM     39  C   UNL     1     114.346 130.317 141.127  0.00  0.00    +0.000 C 
ATOM     40  C   UNL     1     112.855 130.103 141.799  0.00  0.00    +0.000 C 
ATOM     41  C   UNL     1     113.982 129.577 141.096  0.00  0.00    +0.000 C 
ATOM     42  C   UNL     1     112.109 129.996 142.135  0.00  0.00    +0.000 C 
ENDBRANCH  32  41
ENDBRANCH   5  32
TORSDOF 6
ENDMDL
MODEL 3
REMARK VINA RESULT:     -10.2      1.755      5.859
REMARK  Name = 14035324
REMARK  6 active torsions:
REMARK  status: ('A' for Active; 'I' for Inactive)
REMARK    1  A    between atoms: O_3  and  C_22
REMARK    2  A    between atoms: O_3  and  C_28
REMARK    3  A    between atoms: O_6  and  C_25
REMARK    4  A    between atoms: O_6  and  C_29
REMARK    5  A    between atoms: C_19  and  C_26
REMARK    6  A    between atoms: C_32  and  C_37
REMARK                            x       y       z     vdW  Elec       q    Type
REMARK                         _______ _______ _______ _____ _____    ______ ____
ROOT
ATOM      1  O   UNL     1     112.806 128.609 138.213  0.00  0.00    +0.000 OA
ATOM      2  O   UNL     1     114.093 128.626 140.327  0.00  0.00    +0.000 OA
ATOM      3  O   UNL     1     113.762 127.243 140.572  0.00  0.00    +0.000 OA
ATOM      4  C   UNL     1     113.621 129.303 139.160  0.00  0.00    +0.000 A 
ATOM      5  C   UNL     1     112.484 126.503 138.887  0.00  0.00    +0.000 A 
ATOM      6  C   UNL     1     113.278 127.932 139.379  0.00  0.00    +0.000 A 
ATOM      7  C   UNL     1     113.664 128.620 139.622  0.00  0.00    +0.000 A 
ATOM      8  C   UNL     1     113.192 129.297 138.456  0.00  0.00    +0.000 A 
ATOM      9  C   UNL     1     112.849 127.927 138.674  0.00  0.00    +0.000 A 
ATOM     10  C   UNL     1     112.443 127.218 138.411  0.00  0.00    +0.000 A 
ATOM     11  C   UNL     1     112.931 126.509 139.621  0.00  0.00    +0.000 A 
ATOM     12  C   UNL     1     113.330 127.228 139.869  0.00  0.00    +0.000 A 
ENDROOT
BRANCH   8  14
ATOM     13  O   UNL     1     113.020 132.026 136.609  0.00  0.00    +0.000 OA
ATOM     14  C   UNL     1     113.148 129.979 137.994  0.00  0.00    +0.000 A 
ATOM     15  C   UNL     1     112.448 130.415 137.966  0.00  0.00    +0.000 A 
ATOM     16  C   UNL     1     113.806 130.226 137.560  0.00  0.00    +0.000 A 
ATOM     17  C   UNL     1     112.406 131.097 137.504  0.00  0.00    +0.000 A 
ATOM     18  C   UNL     1     113.763 130.908 137.098  0.00  0.00    +0.000 A 
ATOM     19  C   UNL     1     113.063 131.344 137.070  0.00  0.00    +0.000 A 
ENDBRANCH   8  14
BRANCH   4  20
ATOM     20  O   UNL     1     114.006 129.990 139.403  0.00  0.00    +0.000 OA
BRANCH  20  29
ATOM     21  O   UNL     1     113.056 130.277 140.431  0.00  0.00    +0.000 OA
ATOM     22  O   UNL     1     114.809 131.456 141.722  0.00  0.00    +0.000 OA
ATOM     23  O   UNL     1     113.275 131.350 142.320  0.00  0.00    +0.000 OA
ATOM     24  O   UNL     1     115.175 130.776 140.263  0.00  0.00    +0.000 OA
ATOM     25  C   UNL     1     114.225 131.063 141.291  0.00  0.00    +0.000 C 
ATOM     26  C   UNL     1     113.457 131.010 141.591  0.00  0.00    +0.000 C 
ATOM     27  C   UNL     1     114.407 130.723 140.562  0.00  0.00    +0.000 C 
ATOM     28  C   UNL     1     112.873 130.617 141.160  0.00  0.00    +0.000 C 
ATOM     29  C   UNL     1     113.823 130.330 140.132  0.00  0.00    +0.000 C 
BRANCH  28  31
ATOM     30  O   UNL     1     111.486 130.947 141.074  0.00  0.00    +0.000 OA
ATOM     31  C   UNL     1     112.106 130.564 141.459  0.00  0.00    +0.000 C 
ENDBRANCH  28  31
ENDBRANCH  20  29
ENDBRANCH   4  20
BRANCH   5  32
ATOM     32  O   UNL     1     112.097 125.817 138.641  0.00  0.00    +0.000 OA
BRANCH  32  41
ATOM     33  O   UNL     1     113.234 125.281 137.963  0.00  0.00    +0.000 OA
ATOM     34  O   UNL     1     111.737 124.149 136.349  0.00  0.00    +0.000 OA
ATOM     35  O   UNL     1     113.372 123.989 136.208  0.00  0.00    +0.000 OA
ATOM     36  O   UNL     1     111.099 125.063 137.566  0.00  0.00    +0.000 OA
ATOM     37  C   UNL     1     112.236 124.526 136.887  0.00  0.00    +0.000 C 
ATOM     38  C   UNL     1     113.054 124.447 136.816  0.00  0.00    +0.000 C 
ATOM     39  C   UNL     1     111.917 124.983 137.495  0.00  0.00    +0.000 C 
ATOM     40  C   UNL     1     113.552 124.823 137.354  0.00  0.00    +0.000 C 
ATOM     41  C   UNL     1     112.416 125.360 138.033  0.00  0.00    +0.000 C 
ATOM     42  C   UNL     1     114.371 124.744 137.283  0.00  0.00    +0.000 C 
ENDBRANCH  32  41
ENDBRANCH   5  32
TORSDOF 6
ENDMDL
MODEL 4
REMARK VINA RESULT:     -10.2      2.041      4.763
REMARK  Name = 14035324
REMARK  6 active torsions:
REMARK  status: ('A' for Active; 'I' for Inactive)
REMARK    1  A    between atoms: O_3  and  C_22
REMARK    2  A    between atoms: O_3  and  C_28
REMARK    3  A    between atoms: O_6  and  C_25
REMARK    4  A    between atoms: O_6  and  C_29
REMARK    5  A    between atoms: C_19  and  C_26
REMARK    6  A    between atoms: C_32  and  C_37
REMARK                            x       y       z     vdW  Elec       q    Type
REMARK                         _______ _______ _______ _____ _____    ______ ____
ROOT
ATOM      1  O   UNL     1     112.004 128.264 138.275  0.00  0.00    +0.000 OA
ATOM      2  O   UNL     1     113.753 127.223 136.867  0.00  0.00    +0.000 OA
ATOM      3  O   UNL     1     113.614 128.262 135.876  0.00  0.00    +0.000 OA
ATOM      4  C   UNL     1     112.957 127.223 138.054  0.00  0.00    +0.000 A 
ATOM      5  C   UNL     1     112.040 129.701 136.563  0.00  0.00    +0.000 A 
ATOM      6  C   UNL     1     112.799 128.264 137.088  0.00  0.00    +0.000 A 
ATOM      7  C   UNL     1     113.170 127.570 137.336  0.00  0.00    +0.000 A 
ATOM      8  C   UNL     1     112.374 127.570 138.523  0.00  0.00    +0.000 A 
ATOM      9  C   UNL     1     112.216 128.611 137.558  0.00  0.00    +0.000 A 
ATOM     10  C   UNL     1     111.823 129.334 137.310  0.00  0.00    +0.000 A 
ATOM     11  C   UNL     1     112.648 129.339 136.075  0.00  0.00    +0.000 A 
ATOM     12  C   UNL     1     113.029 128.616 136.339  0.00  0.00    +0.000 A 
ENDROOT
BRANCH   8  14
ATOM     13  O   UNL     1     111.523 126.181 141.393  0.00  0.00    +0.000 OA
ATOM     14  C   UNL     1     112.161 127.223 139.241  0.00  0.00    +0.000 A 
ATOM     15  C   UNL     1     112.682 127.246 139.881  0.00  0.00    +0.000 A 
ATOM     16  C   UNL     1     111.428 126.852 139.318  0.00  0.00    +0.000 A 
ATOM     17  C   UNL     1     112.469 126.899 140.598  0.00  0.00    +0.000 A 
ATOM     18  C   UNL     1     111.216 126.505 140.036  0.00  0.00    +0.000 A 
ATOM     19  C   UNL     1     111.736 126.528 140.676  0.00  0.00    +0.000 A 
ENDBRANCH   8  14
BRANCH   4  20
ATOM     20  O   UNL     1     113.328 126.529 138.302  0.00  0.00    +0.000 OA
BRANCH  20  29
ATOM     21  O   UNL     1     112.627 125.682 137.389  0.00  0.00    +0.000 OA
ATOM     22  O   UNL     1     114.594 124.185 137.268  0.00  0.00    +0.000 OA
ATOM     23  O   UNL     1     113.238 123.838 136.394  0.00  0.00    +0.000 OA
ATOM     24  O   UNL     1     114.639 125.531 138.222  0.00  0.00    +0.000 OA
ATOM     25  C   UNL     1     113.939 124.684 137.308  0.00  0.00    +0.000 C 
ATOM     26  C   UNL     1     113.260 124.511 136.871  0.00  0.00    +0.000 C 
ATOM     27  C   UNL     1     113.960 125.357 137.785  0.00  0.00    +0.000 C 
ATOM     28  C   UNL     1     112.604 125.010 136.911  0.00  0.00    +0.000 C 
ATOM     29  C   UNL     1     113.305 125.856 137.825  0.00  0.00    +0.000 C 
BRANCH  28  31
ATOM     30  O   UNL     1     111.210 124.705 136.860  0.00  0.00    +0.000 OA
ATOM     31  C   UNL     1     111.927 124.836 136.475  0.00  0.00    +0.000 C 
ENDBRANCH  28  31
ENDBRANCH  20  29
ENDBRANCH   4  20
BRANCH   5  32
ATOM     32  O   UNL     1     111.668 130.395 136.318  0.00  0.00    +0.000 OA
BRANCH  32  41
ATOM     33  O   UNL     1     110.708 129.768 135.465  0.00  0.00    +0.000 OA
ATOM     34  O   UNL     1     109.023 131.460 136.119  0.00  0.00    +0.000 OA
ATOM     35  O   UNL     1     108.624 130.270 135.048  0.00  0.00    +0.000 OA
ATOM     36  O   UNL     1     110.545 131.523 136.754  0.00  0.00    +0.000 OA
ATOM     37  C   UNL     1     109.585 130.896 135.901  0.00  0.00    +0.000 C 
ATOM     38  C   UNL     1     109.385 130.301 135.365  0.00  0.00    +0.000 C 
ATOM     39  C   UNL     1     110.345 130.927 136.218  0.00  0.00    +0.000 C 
ATOM     40  C   UNL     1     109.946 129.737 135.148  0.00  0.00    +0.000 C 
ATOM     41  C   UNL     1     110.907 130.363 136.001  0.00  0.00    +0.000 C 
ATOM     42  C   UNL     1     109.747 129.142 134.612  0.00  0.00    +0.000 C 
ENDBRANCH  32  41
ENDBRANCH   5  32
TORSDOF 6
ENDMDL
MODEL 5
REMARK VINA RESULT:     -10.0      2.795      5.088
REMARK  Name = 14035324
REMARK  6 active torsions:
REMARK  status: ('A' for Active; 'I' for Inactive)
REMARK    1  A    between atoms: O_3  and  C_22
REMARK    2  A    between atoms: O_3  and  C_28
REMARK    3  A    between atoms: O_6  and  C_25
REMARK    4  A    between atoms: O_6  and  C_29
REMARK    5  A    between atoms: C_19  and  C_26
REMARK    6  A    between atoms: C_32  and  C_37
REMARK                            x       y       z     vdW  Elec       q    Type
REMARK                         _______ _______ _______ _____ _____    ______ ____
ROOT
ATOM      1  O   UNL     1     113.572 128.430 136.866  0.00  0.00    +0.000 OA
ATOM      2  O   UNL     1     111.800 129.617 138.122  0.00  0.00    +0.000 OA
ATOM      3  O   UNL     1     111.419 128.398 138.793  0.00  0.00    +0.000 OA
ATOM      4  C   UNL     1     112.865 129.634 137.168  0.00  0.00    +0.000 A 
ATOM      5  C   UNL     1     112.739 126.740 138.068  0.00  0.00    +0.000 A 
ATOM      6  C   UNL     1     112.507 128.413 137.819  0.00  0.00    +0.000 A 
ATOM      7  C   UNL     1     112.391 129.221 137.703  0.00  0.00    +0.000 A 
ATOM      8  C   UNL     1     113.455 129.238 136.750  0.00  0.00    +0.000 A 
ATOM      9  C   UNL     1     113.098 128.017 137.400  0.00  0.00    +0.000 A 
ATOM     10  C   UNL     1     113.229 127.176 137.512  0.00  0.00    +0.000 A 
ATOM     11  C   UNL     1     112.124 127.152 138.504  0.00  0.00    +0.000 A 
ATOM     12  C   UNL     1     112.008 127.994 138.378  0.00  0.00    +0.000 A 
ENDROOT
BRANCH   8  14
ATOM     13  O   UNL     1     115.350 130.890 134.612  0.00  0.00    +0.000 OA
ATOM     14  C   UNL     1     113.929 129.651 136.215  0.00  0.00    +0.000 A 
ATOM     15  C   UNL     1     113.847 129.520 135.404  0.00  0.00    +0.000 A 
ATOM     16  C   UNL     1     114.485 130.195 136.491  0.00  0.00    +0.000 A 
ATOM     17  C   UNL     1     114.321 129.933 134.871  0.00  0.00    +0.000 A 
ATOM     18  C   UNL     1     114.959 130.608 135.956  0.00  0.00    +0.000 A 
ATOM     19  C   UNL     1     114.877 130.477 135.146  0.00  0.00    +0.000 A 
ENDBRANCH   8  14
BRANCH   4  20
ATOM     20  O   UNL     1     112.748 130.443 137.052  0.00  0.00    +0.000 OA
BRANCH  20  29
ATOM     21  O   UNL     1     111.547 130.282 136.295  0.00  0.00    +0.000 OA
ATOM     22  O   UNL     1     110.713 132.447 137.157  0.00  0.00    +0.000 OA
ATOM     23  O   UNL     1     109.790 131.564 136.112  0.00  0.00    +0.000 OA
ATOM     24  O   UNL     1     112.192 131.886 137.627  0.00  0.00    +0.000 OA
ATOM     25  C   UNL     1     110.991 131.725 136.869  0.00  0.00    +0.000 C 
ATOM     26  C   UNL     1     110.529 131.283 136.347  0.00  0.00    +0.000 C 
ATOM     27  C   UNL     1     111.730 131.444 137.104  0.00  0.00    +0.000 C 
ATOM     28  C   UNL     1     110.807 130.562 136.059  0.00  0.00    +0.000 C 
ATOM     29  C   UNL     1     112.008 130.723 136.817  0.00  0.00    +0.000 C 
BRANCH  28  31
ATOM     30  O   UNL     1     110.644 129.915 134.797  0.00  0.00    +0.000 OA
ATOM     31  C   UNL     1     110.346 130.121 135.537  0.00  0.00    +0.000 C 
ENDBRANCH  28  31
ENDBRANCH  20  29
ENDBRANCH   4  20
BRANCH   5  32
ATOM     32  O   UNL     1     112.859 125.931 138.181  0.00  0.00    +0.000 OA
BRANCH  32  41
ATOM     33  O   UNL     1     111.825 125.490 137.299  0.00  0.00    +0.000 OA
ATOM     34  O   UNL     1     113.232 123.575 136.607  0.00  0.00    +0.000 OA
ATOM     35  O   UNL     1     111.730 123.772 135.955  0.00  0.00    +0.000 OA
ATOM     36  O   UNL     1     113.797 124.655 137.720  0.00  0.00    +0.000 OA
ATOM     37  C   UNL     1     112.763 124.214 136.838  0.00  0.00    +0.000 C 
ATOM     38  C   UNL     1     112.012 124.312 136.512  0.00  0.00    +0.000 C 
ATOM     39  C   UNL     1     113.046 124.753 137.394  0.00  0.00    +0.000 C 
ATOM     40  C   UNL     1     111.543 124.950 136.742  0.00  0.00    +0.000 C 
ATOM     41  C   UNL     1     112.576 125.392 137.625  0.00  0.00    +0.000 C 
ATOM     42  C   UNL     1     110.791 125.048 136.417  0.00  0.00    +0.000 C 
ENDBRANCH  32  41
ENDBRANCH   5  32
TORSDOF 6
ENDMDL
MODEL 6
REMARK VINA RESULT:     -10.0      2.022      4.868
REMARK  Name = 14035324
REMARK  6 active torsions:
REMARK  status: ('A' for Active; 'I' for Inactive)
REMARK    1  A    between atoms: O_3  and  C_22
REMARK    2  A    between atoms: O_3  and  C_28
REMARK    3  A    between atoms: O_6  and  C_25
REMARK    4  A    between atoms: O_6  and  C_29
REMARK    5  A    between atoms: C_19  and  C_26
REMARK    6  A    between atoms: C_32  and  C_37
REMARK                            x       y       z     vdW  Elec       q    Type
REMARK                         _______ _______ _______ _____ _____    ______ ____
ROOT
ATOM      1  O   UNL     1     112.408 127.423 136.677  0.00  0.00    +0.000 OA
ATOM      2  O   UNL     1     112.800 128.488 138.876  0.00  0.00    +0.000 OA
ATOM      3  O   UNL     1     112.144 129.697 138.439  0.00  0.00    +0.000 OA
ATOM      4  C   UNL     1     112.932 127.363 138.005  0.00  0.00    +0.000 A 
ATOM      5  C   UNL     1     111.463 129.417 136.323  0.00  0.00    +0.000 A 
ATOM      6  C   UNL     1     112.277 128.548 137.548  0.00  0.00    +0.000 A 
ATOM      7  C   UNL     1     112.670 128.134 138.143  0.00  0.00    +0.000 A 
ATOM      8  C   UNL     1     112.801 127.008 137.272  0.00  0.00    +0.000 A 
ATOM      9  C   UNL     1     112.147 128.192 136.815  0.00  0.00    +0.000 A 
ATOM     10  C   UNL     1     111.739 128.614 136.187  0.00  0.00    +0.000 A 
ATOM     11  C   UNL     1     111.600 129.786 137.087  0.00  0.00    +0.000 A 
ATOM     12  C   UNL     1     112.009 129.349 137.703  0.00  0.00    +0.000 A 
ENDROOT
BRANCH   8  14
ATOM     13  O   UNL     1     113.849 123.927 136.723  0.00  0.00    +0.000 OA
ATOM     14  C   UNL     1     113.063 126.237 137.135  0.00  0.00    +0.000 A 
ATOM     15  C   UNL     1     113.869 126.086 137.041  0.00  0.00    +0.000 A 
ATOM     16  C   UNL     1     112.519 125.619 137.092  0.00  0.00    +0.000 A 
ATOM     17  C   UNL     1     114.130 125.317 136.903  0.00  0.00    +0.000 A 
ATOM     18  C   UNL     1     112.782 124.848 136.954  0.00  0.00    +0.000 A 
ATOM     19  C   UNL     1     113.587 124.697 136.860  0.00  0.00    +0.000 A 
ENDBRANCH   8  14
BRANCH   4  20
ATOM     20  O   UNL     1     113.324 126.948 138.601  0.00  0.00    +0.000 OA
BRANCH  20  29
ATOM     21  O   UNL     1     112.147 126.681 139.365  0.00  0.00    +0.000 OA
ATOM     22  O   UNL     1     113.481 126.764 141.449  0.00  0.00    +0.000 OA
ATOM     23  O   UNL     1     111.859 126.468 141.519  0.00  0.00    +0.000 OA
ATOM     24  O   UNL     1     114.214 127.004 139.990  0.00  0.00    +0.000 OA
ATOM     25  C   UNL     1     113.036 126.736 140.754  0.00  0.00    +0.000 C 
ATOM     26  C   UNL     1     112.225 126.588 140.789  0.00  0.00    +0.000 C 
ATOM     27  C   UNL     1     113.402 126.856 140.025  0.00  0.00    +0.000 C 
ATOM     28  C   UNL     1     111.780 126.560 140.095  0.00  0.00    +0.000 C 
ATOM     29  C   UNL     1     112.957 126.828 139.330  0.00  0.00    +0.000 C 
BRANCH  28  31
ATOM     30  O   UNL     1     110.657 125.742 139.768  0.00  0.00    +0.000 OA
ATOM     31  C   UNL     1     110.970 126.413 140.130  0.00  0.00    +0.000 C 
ENDBRANCH  28  31
ENDBRANCH  20  29
ENDBRANCH   4  20
BRANCH   5  32
ATOM     32  O   UNL     1     111.071 129.828 135.726  0.00  0.00    +0.000 OA
BRANCH  32  41
ATOM     33  O   UNL     1     109.816 129.147 135.774  0.00  0.00    +0.000 OA
ATOM     34  O   UNL     1     108.634 131.310 135.549  0.00  0.00    +0.000 OA
ATOM     35  O   UNL     1     107.772 129.909 135.673  0.00  0.00    +0.000 OA
ATOM     36  O   UNL     1     110.284 131.270 135.576  0.00  0.00    +0.000 OA
ATOM     37  C   UNL     1     109.028 130.589 135.624  0.00  0.00    +0.000 C 
ATOM     38  C   UNL     1     108.597 129.888 135.686  0.00  0.00    +0.000 C 
ATOM     39  C   UNL     1     109.853 130.569 135.637  0.00  0.00    +0.000 C 
ATOM     40  C   UNL     1     108.991 129.168 135.761  0.00  0.00    +0.000 C 
ATOM     41  C   UNL     1     110.247 129.848 135.712  0.00  0.00    +0.000 C 
ATOM     42  C   UNL     1     108.560 128.467 135.823  0.00  0.00    +0.000 C 
ENDBRANCH  32  41
ENDBRANCH   5  32
TORSDOF 6
ENDMDL
MODEL 7
REMARK VINA RESULT:      -9.8      2.465      5.461
REMARK  Name = 14035324
REMARK  6 active torsions:
REMARK  status: ('A' for Active; 'I' for Inactive)
REMARK    1  A    between atoms: O_3  and  C_22
REMARK    2  A    between atoms: O_3  and  C_28
REMARK    3  A    between atoms: O_6  and  C_25
REMARK    4  A    between atoms: O_6  and  C_29
REMARK    5  A    between atoms: C_19  and  C_26
REMARK    6  A    between atoms: C_32  and  C_37
REMARK                            x       y       z     vdW  Elec       q    Type
REMARK                         _______ _______ _______ _____ _____    ______ ____
ROOT
ATOM      1  O   UNL     1     110.213 127.671 136.871  0.00  0.00    +0.000 OA
ATOM      2  O   UNL     1     109.600 128.242 139.200  0.00  0.00    +0.000 OA
ATOM      3  O   UNL     1     110.077 126.963 139.668  0.00  0.00    +0.000 OA
ATOM      4  C   UNL     1     109.667 128.594 137.816  0.00  0.00    +0.000 A 
ATOM      5  C   UNL     1     110.852 125.803 137.916  0.00  0.00    +0.000 A 
ATOM      6  C   UNL     1     110.146 127.320 138.254  0.00  0.00    +0.000 A 
ATOM      7  C   UNL     1     109.805 128.052 138.424  0.00  0.00    +0.000 A 
ATOM      8  C   UNL     1     109.871 128.403 137.040  0.00  0.00    +0.000 A 
ATOM      9  C   UNL     1     110.350 127.130 137.477  0.00  0.00    +0.000 A 
ATOM     10  C   UNL     1     110.706 126.372 137.288  0.00  0.00    +0.000 A 
ATOM     11  C   UNL     1     110.639 126.001 138.725  0.00  0.00    +0.000 A 
ATOM     12  C   UNL     1     110.284 126.765 138.894  0.00  0.00    +0.000 A 
ENDROOT
BRANCH   8  14
ATOM     13  O   UNL     1     109.322 130.570 134.612  0.00  0.00    +0.000 OA
ATOM     14  C   UNL     1     109.733 128.945 136.433  0.00  0.00    +0.000 A 
ATOM     15  C   UNL     1     108.963 129.088 136.174  0.00  0.00    +0.000 A 
ATOM     16  C   UNL     1     110.367 129.344 136.085  0.00  0.00    +0.000 A 
ATOM     17  C   UNL     1     108.826 129.629 135.567  0.00  0.00    +0.000 A 
ATOM     18  C   UNL     1     110.229 129.886 135.478  0.00  0.00    +0.000 A 
ATOM     19  C   UNL     1     109.459 130.029 135.219  0.00  0.00    +0.000 A 
ENDBRANCH   8  14
BRANCH   4  20
ATOM     20  O   UNL     1     109.325 129.325 137.986  0.00  0.00    +0.000 OA
BRANCH  20  29
ATOM     21  O   UNL     1     110.510 129.878 138.563  0.00  0.00    +0.000 OA
ATOM     22  O   UNL     1     109.126 131.273 140.067  0.00  0.00    +0.000 OA
ATOM     23  O   UNL     1     110.772 131.361 140.143  0.00  0.00    +0.000 OA
ATOM     24  O   UNL     1     108.403 130.256 138.988  0.00  0.00    +0.000 OA
ATOM     25  C   UNL     1     109.587 130.808 139.566  0.00  0.00    +0.000 C 
ATOM     26  C   UNL     1     110.411 130.852 139.604  0.00  0.00    +0.000 C 
ATOM     27  C   UNL     1     109.226 130.299 139.026  0.00  0.00    +0.000 C 
ATOM     28  C   UNL     1     110.872 130.386 139.103  0.00  0.00    +0.000 C 
ATOM     29  C   UNL     1     109.688 129.834 138.525  0.00  0.00    +0.000 C 
BRANCH  28  31
ATOM     30  O   UNL     1     112.121 130.747 138.510  0.00  0.00    +0.000 OA
ATOM     31  C   UNL     1     111.695 130.430 139.141  0.00  0.00    +0.000 C 
ENDBRANCH  28  31
ENDBRANCH  20  29
ENDBRANCH   4  20
BRANCH   5  32
ATOM     32  O   UNL     1     111.194 125.072 137.743  0.00  0.00    +0.000 OA
BRANCH  32  41
ATOM     33  O   UNL     1     112.532 125.483 138.030  0.00  0.00    +0.000 OA
ATOM     34  O   UNL     1     113.378 123.944 136.287  0.00  0.00    +0.000 OA
ATOM     35  O   UNL     1     114.435 124.868 137.154  0.00  0.00    +0.000 OA
ATOM     36  O   UNL     1     111.758 124.046 136.580  0.00  0.00    +0.000 OA
ATOM     37  C   UNL     1     113.096 124.457 136.868  0.00  0.00    +0.000 C 
ATOM     38  C   UNL     1     113.624 124.919 137.302  0.00  0.00    +0.000 C 
ATOM     39  C   UNL     1     112.286 124.508 137.015  0.00  0.00    +0.000 C 
ATOM     40  C   UNL     1     113.342 125.432 137.883  0.00  0.00    +0.000 C 
ATOM     41  C   UNL     1     112.004 125.021 137.596  0.00  0.00    +0.000 C 
ATOM     42  C   UNL     1     113.870 125.894 138.317  0.00  0.00    +0.000 C 
ENDBRANCH  32  41
ENDBRANCH   5  32
TORSDOF 6
ENDMDL
MODEL 8
REMARK VINA RESULT:      -9.8      2.907      5.144
REMARK  Name = 14035324
REMARK  6 active torsions:
REMARK  status: ('A' for Active; 'I' for Inactive)
REMARK    1  A    between atoms: O_3  and  C_22
REMARK    2  A    between atoms: O_3  and  C_28
REMARK    3  A    between atoms: O_6  and  C_25
REMARK    4  A    between atoms: O_6  and  C_29
REMARK    5  A    between atoms: C_19  and  C_26
REMARK    6  A    between atoms: C_32  and  C_37
REMARK                            x       y       z     vdW  Elec       q    Type
REMARK                         _______ _______ _______ _____ _____    ______ ____
ROOT
ATOM      1  O   UNL     1     112.050 129.458 135.509  0.00  0.00    +0.000 OA
ATOM      2  O   UNL     1     111.812 127.078 136.144  0.00  0.00    +0.000 OA
ATOM      3  O   UNL     1     110.380 127.150 135.989  0.00  0.00    +0.000 OA
ATOM      4  C   UNL     1     112.639 128.219 135.907  0.00  0.00    +0.000 A 
ATOM      5  C   UNL     1     109.832 129.230 135.362  0.00  0.00    +0.000 A 
ATOM      6  C   UNL     1     111.222 128.318 135.746  0.00  0.00    +0.000 A 
ATOM      7  C   UNL     1     111.891 127.871 135.932  0.00  0.00    +0.000 A 
ATOM      8  C   UNL     1     112.718 129.012 135.695  0.00  0.00    +0.000 A 
ATOM      9  C   UNL     1     111.302 129.111 135.534  0.00  0.00    +0.000 A 
ATOM     10  C   UNL     1     110.614 129.586 135.338  0.00  0.00    +0.000 A 
ATOM     11  C   UNL     1     109.749 128.404 135.583  0.00  0.00    +0.000 A 
ATOM     12  C   UNL     1     110.449 127.945 135.776  0.00  0.00    +0.000 A 
ENDROOT
BRANCH   8  14
ATOM     13  O   UNL     1     115.710 130.401 135.594  0.00  0.00    +0.000 OA
ATOM     14  C   UNL     1     113.467 129.360 135.670  0.00  0.00    +0.000 A 
ATOM     15  C   UNL     1     113.988 129.172 135.059  0.00  0.00    +0.000 A 
ATOM     16  C   UNL     1     113.692 129.895 136.256  0.00  0.00    +0.000 A 
ATOM     17  C   UNL     1     114.736 129.519 135.034  0.00  0.00    +0.000 A 
ATOM     18  C   UNL     1     114.441 130.242 136.230  0.00  0.00    +0.000 A 
ATOM     19  C   UNL     1     114.963 130.054 135.619  0.00  0.00    +0.000 A 
ENDBRANCH   8  14
BRANCH   4  20
ATOM     20  O   UNL     1     113.308 127.773 136.093  0.00  0.00    +0.000 OA
BRANCH  20  29
ATOM     21  O   UNL     1     113.061 127.760 137.501  0.00  0.00    +0.000 OA
ATOM     22  O   UNL     1     114.115 125.526 137.664  0.00  0.00    +0.000 OA
ATOM     23  O   UNL     1     113.517 126.257 139.017  0.00  0.00    +0.000 OA
ATOM     24  O   UNL     1     114.011 126.284 136.202  0.00  0.00    +0.000 OA
ATOM     25  C   UNL     1     113.764 126.271 137.610  0.00  0.00    +0.000 C 
ATOM     26  C   UNL     1     113.465 126.637 138.287  0.00  0.00    +0.000 C 
ATOM     27  C   UNL     1     113.711 126.650 136.879  0.00  0.00    +0.000 C 
ATOM     28  C   UNL     1     113.113 127.381 138.232  0.00  0.00    +0.000 C 
ATOM     29  C   UNL     1     113.360 127.394 136.825  0.00  0.00    +0.000 C 
BRANCH  28  31
ATOM     30  O   UNL     1     113.116 128.474 139.152  0.00  0.00    +0.000 OA
ATOM     31  C   UNL     1     112.815 127.746 138.908  0.00  0.00    +0.000 C 
ENDBRANCH  28  31
ENDBRANCH  20  29
ENDBRANCH   4  20
BRANCH   5  32
ATOM     32  O   UNL     1     109.165 129.679 135.175  0.00  0.00    +0.000 OA
BRANCH  32  41
ATOM     33  O   UNL     1     108.992 130.135 136.519  0.00  0.00    +0.000 OA
ATOM     34  O   UNL     1     107.845 132.162 135.684  0.00  0.00    +0.000 OA
ATOM     35  O   UNL     1     108.054 131.942 137.305  0.00  0.00    +0.000 OA
ATOM     36  O   UNL     1     108.401 131.031 134.618  0.00  0.00    +0.000 OA
ATOM     37  C   UNL     1     108.228 131.486 135.962  0.00  0.00    +0.000 C 
ATOM     38  C   UNL     1     108.332 131.376 136.773  0.00  0.00    +0.000 C 
ATOM     39  C   UNL     1     108.505 130.921 135.429  0.00  0.00    +0.000 C 
ATOM     40  C   UNL     1     108.714 130.701 137.051  0.00  0.00    +0.000 C 
ATOM     41  C   UNL     1     108.888 130.245 135.708  0.00  0.00    +0.000 C 
ATOM     42  C   UNL     1     108.819 130.591 137.862  0.00  0.00    +0.000 C 
ENDBRANCH  32  41
ENDBRANCH   5  32
TORSDOF 6
ENDMDL
MODEL 9
REMARK VINA RESULT:      -9.7      2.313      5.495
REMARK  Name = 14035324
REMARK  6 active torsions:
REMARK  status: ('A' for Active; 'I' for Inactive)
REMARK    1  A    between atoms: O_3  and  C_22
REMARK    2  A    between atoms: O_3  and  C_28
REMARK    3  A    between atoms: O_6  and  C_25
REMARK    4  A    between atoms: O_6  and  C_29
REMARK    5  A    between atoms: C_19  and  C_26
REMARK    6  A    between atoms: C_32  and  C_37
REMARK                            x       y       z     vdW  Elec       q    Type
REMARK                         _______ _______ _______ _____ _____    ______ ____
ROOT
ATOM      1  O   UNL     1     113.076 128.143 138.558  0.00  0.00    +0.000 OA
ATOM      2  O   UNL     1     112.176 129.733 136.888  0.00  0.00    +0.000 OA
ATOM      3  O   UNL     1     112.465 128.813 135.815  0.00  0.00    +0.000 OA
ATOM      4  C   UNL     1     112.478 129.403 138.245  0.00  0.00    +0.000 A 
ATOM      5  C   UNL     1     113.389 126.966 136.684  0.00  0.00    +0.000 A 
ATOM      6  C   UNL     1     112.775 128.473 137.200  0.00  0.00    +0.000 A 
ATOM      7  C   UNL     1     112.476 129.202 137.444  0.00  0.00    +0.000 A 
ATOM      8  C   UNL     1     112.778 128.872 138.801  0.00  0.00    +0.000 A 
ATOM      9  C   UNL     1     113.075 127.943 137.758  0.00  0.00    +0.000 A 
ATOM     10  C   UNL     1     113.388 127.181 137.516  0.00  0.00    +0.000 A 
ATOM     11  C   UNL     1     113.077 127.518 136.104  0.00  0.00    +0.000 A 
ATOM     12  C   UNL     1     112.767 128.276 136.365  0.00  0.00    +0.000 A 
ENDROOT
BRANCH   8  14
ATOM     13  O   UNL     1     112.785 129.673 142.003  0.00  0.00    +0.000 OA
ATOM     14  C   UNL     1     112.780 129.073 139.602  0.00  0.00    +0.000 A 
ATOM     15  C   UNL     1     112.243 128.716 140.118  0.00  0.00    +0.000 A 
ATOM     16  C   UNL     1     113.319 129.629 139.887  0.00  0.00    +0.000 A 
ATOM     17  C   UNL     1     112.245 128.916 140.918  0.00  0.00    +0.000 A 
ATOM     18  C   UNL     1     113.320 129.829 140.688  0.00  0.00    +0.000 A 
ATOM     19  C   UNL     1     112.784 129.473 141.203  0.00  0.00    +0.000 A 
ENDBRANCH   8  14
BRANCH   4  20
ATOM     20  O   UNL     1     112.180 130.132 138.489  0.00  0.00    +0.000 OA
BRANCH  20  29
ATOM     21  O   UNL     1     110.810 129.768 138.309  0.00  0.00    +0.000 OA
ATOM     22  O   UNL     1     110.259 132.117 137.756  0.00  0.00    +0.000 OA
ATOM     23  O   UNL     1     109.072 130.971 137.760  0.00  0.00    +0.000 OA
ATOM     24  O   UNL     1     111.813 131.698 138.120  0.00  0.00    +0.000 OA
ATOM     25  C   UNL     1     110.443 131.334 137.940  0.00  0.00    +0.000 C 
ATOM     26  C   UNL     1     109.849 130.760 137.942  0.00  0.00    +0.000 C 
ATOM     27  C   UNL     1     111.219 131.124 138.122  0.00  0.00    +0.000 C 
ATOM     28  C   UNL     1     110.032 129.977 138.127  0.00  0.00    +0.000 C 
ATOM     29  C   UNL     1     111.403 130.341 138.307  0.00  0.00    +0.000 C 
BRANCH  28  31
ATOM     30  O   UNL     1     109.266 128.993 138.821  0.00  0.00    +0.000 OA
ATOM     31  C   UNL     1     109.440 129.405 138.129  0.00  0.00    +0.000 C 
ENDBRANCH  28  31
ENDBRANCH  20  29
ENDBRANCH   4  20
BRANCH   5  32
ATOM     32  O   UNL     1     113.688 126.236 136.444  0.00  0.00    +0.000 OA
BRANCH  32  41
ATOM     33  O   UNL     1     112.430 125.584 136.257  0.00  0.00    +0.000 OA
ATOM     34  O   UNL     1     113.385 123.485 137.155  0.00  0.00    +0.000 OA
ATOM     35  O   UNL     1     111.809 123.532 136.669  0.00  0.00    +0.000 OA
ATOM     36  O   UNL     1     114.325 124.836 137.042  0.00  0.00    +0.000 OA
ATOM     37  C   UNL     1     113.066 124.185 136.855  0.00  0.00    +0.000 C 
ATOM     38  C   UNL     1     112.278 124.209 136.613  0.00  0.00    +0.000 C 
ATOM     39  C   UNL     1     113.536 124.860 136.799  0.00  0.00    +0.000 C 
ATOM     40  C   UNL     1     111.961 124.908 136.314  0.00  0.00    +0.000 C 
ATOM     41  C   UNL     1     113.218 125.560 136.500  0.00  0.00    +0.000 C 
ATOM     42  C   UNL     1     111.172 124.932 136.071  0.00  0.00    +0.000 C 
ENDBRANCH  32  41
ENDBRANCH   5  32
TORSDOF 6
ENDMDL
MODEL 10
REMARK VINA RESULT:      -9.6      2.329      5.453
REMARK  Name = 14035324
REMARK  6 active torsions:
REMARK  status: ('A' for Active; 'I' for Inactive)
REMARK    1  A    between atoms: O_3  and  C_22
REMARK    2  A    between atoms: O_3  and  C_28
REMARK    3  A    between atoms: O_6  and  C_25
REMARK    4  A    between atoms: O_6  and  C_29
REMARK    5  A    between atoms: C_19  and  C_26
REMARK    6  A    between atoms: C_32  and  C_37
REMARK                            x       y       z     vdW  Elec       q    Type
REMARK                         _______ _______ _______ _____ _____    ______ ____
ROOT
ATOM      1  O   UNL     1     112.940 128.480 139.117  0.00  0.00    +0.000 OA
ATOM      2  O   UNL     1     111.361 129.460 137.483  0.00  0.00    +0.000 OA
ATOM      3  O   UNL     1     110.864 128.150 137.136  0.00  0.00    +0.000 OA
ATOM      4  C   UNL     1     112.388 129.624 138.463  0.00  0.00    +0.000 A 
ATOM      5  C   UNL     1     111.958 126.623 138.356  0.00  0.00    +0.000 A 
ATOM      6  C   UNL     1     111.913 128.315 138.137  0.00  0.00    +0.000 A 
ATOM      7  C   UNL     1     111.887 129.133 138.028  0.00  0.00    +0.000 A 
ATOM      8  C   UNL     1     112.914 129.297 139.008  0.00  0.00    +0.000 A 
ATOM      9  C   UNL     1     112.440 127.990 138.683  0.00  0.00    +0.000 A 
ATOM     10  C   UNL     1     112.477 127.140 138.806  0.00  0.00    +0.000 A 
ATOM     11  C   UNL     1     111.410 126.963 137.788  0.00  0.00    +0.000 A 
ATOM     12  C   UNL     1     111.388 127.815 137.679  0.00  0.00    +0.000 A 
ENDROOT
BRANCH   8  14
ATOM     13  O   UNL     1     114.916 131.261 140.748  0.00  0.00    +0.000 OA
ATOM     14  C   UNL     1     113.415 129.788 139.443  0.00  0.00    +0.000 A 
ATOM     15  C   UNL     1     114.043 130.173 139.070  0.00  0.00    +0.000 A 
ATOM     16  C   UNL     1     113.288 129.894 140.251  0.00  0.00    +0.000 A 
ATOM     17  C   UNL     1     114.542 130.663 139.505  0.00  0.00    +0.000 A 
ATOM     18  C   UNL     1     113.789 130.386 140.686  0.00  0.00    +0.000 A 
ATOM     19  C   UNL     1     114.416 130.770 140.313  0.00  0.00    +0.000 A 
ENDBRANCH   8  14
BRANCH   4  20
ATOM     20  O   UNL     1     112.362 130.441 138.353  0.00  0.00    +0.000 OA
BRANCH  20  29
ATOM     21  O   UNL     1     111.145 130.647 139.073  0.00  0.00    +0.000 OA
ATOM     22  O   UNL     1     110.534 132.473 137.518  0.00  0.00    +0.000 OA
ATOM     23  O   UNL     1     109.521 132.070 138.757  0.00  0.00    +0.000 OA
ATOM     24  O   UNL     1     111.955 131.658 137.316  0.00  0.00    +0.000 OA
ATOM     25  C   UNL     1     110.738 131.864 138.036  0.00  0.00    +0.000 C 
ATOM     26  C   UNL     1     110.231 131.663 138.656  0.00  0.00    +0.000 C 
ATOM     27  C   UNL     1     111.448 131.457 137.936  0.00  0.00    +0.000 C 
ATOM     28  C   UNL     1     110.435 131.054 139.175  0.00  0.00    +0.000 C 
ATOM     29  C   UNL     1     111.652 130.848 138.454  0.00  0.00    +0.000 C 
BRANCH  28  31
ATOM     30  O   UNL     1     110.175 130.946 140.575  0.00  0.00    +0.000 OA
ATOM     31  C   UNL     1     109.929 130.853 139.794  0.00  0.00    +0.000 C 
ENDBRANCH  28  31
ENDBRANCH  20  29
ENDBRANCH   4  20
BRANCH   5  32
ATOM     32  O   UNL     1     111.987 125.806 138.469  0.00  0.00    +0.000 OA
BRANCH  32  41
ATOM     33  O   UNL     1     113.098 125.535 137.612  0.00  0.00    +0.000 OA
ATOM     34  O   UNL     1     111.984 123.470 136.822  0.00  0.00    +0.000 OA
ATOM     35  O   UNL     1     113.466 123.886 136.229  0.00  0.00    +0.000 OA
ATOM     36  O   UNL     1     111.244 124.430 137.942  0.00  0.00    +0.000 OA
ATOM     37  C   UNL     1     112.355 124.158 137.086  0.00  0.00    +0.000 C 
ATOM     38  C   UNL     1     113.097 124.367 136.789  0.00  0.00    +0.000 C 
ATOM     39  C   UNL     1     111.985 124.638 137.645  0.00  0.00    +0.000 C 
ATOM     40  C   UNL     1     113.467 125.054 137.052  0.00  0.00    +0.000 C 
ATOM     41  C   UNL     1     112.357 125.326 137.909  0.00  0.00    +0.000 C 
ATOM     42  C   UNL     1     114.209 125.262 136.755  0.00  0.00    +0.000 C 
ENDBRANCH  32  41
ENDBRANCH   5  32
TORSDOF 6
ENDMDL
