MODEL 1
REMARK VINA RESULT:      -8.1      0.000      0.000
REMARK  Name = 13871366
REMARK  5 active torsions:
REMARK  status: ('A' for Active; 'I' for Inactive)
REMARK    1  A    between atoms: O_2  and  C_13
REMARK    2  A    between atoms: O_3  and  C_17
REMARK    3  A    between atoms: O_5  and  C_21
REMARK    4  A    between atoms: O_6  and  C_22
REMARK    5  A    between atoms: C_11  and  C_12
REMARK                            x       y       z     vdW  Elec       q    Type
REMARK                         _______ _______ _______ _____ _____    ______ ____
ROOT
ATOM      1  O   UNL     1     104.743 124.247 146.907  0.00  0.00    +0.000 OA
ATOM      2  O   UNL     1     102.036 124.869 147.718  0.00  0.00    +0.000 OA
ATOM      3  O   UNL     1     103.130 125.586 148.327  0.00  0.00    +0.000 OA
ATOM      4  C   UNL     1     103.372 124.560 147.316  0.00  0.00    +0.000 A 
ATOM      5  C   UNL     1     103.895 124.123 146.852  0.00  0.00    +0.000 A 
ATOM      6  C   UNL     1     105.051 124.836 147.452  0.00  0.00    +0.000 A 
ATOM      7  C   UNL     1     103.606 123.556 146.326  0.00  0.00    +0.000 A 
ATOM      8  C   UNL     1     103.660 125.153 147.867  0.00  0.00    +0.000 A 
ATOM      9  C   UNL     1     102.559 124.431 147.254  0.00  0.00    +0.000 A 
ATOM     10  C   UNL     1     104.506 125.292 147.935  0.00  0.00    +0.000 A 
ATOM     11  C   UNL     1     102.793 123.427 146.265  0.00  0.00    +0.000 A 
ATOM     12  C   UNL     1     102.270 123.865 146.729  0.00  0.00    +0.000 A 
ENDROOT
BRANCH   6  14
ATOM     13  O   UNL     1     108.303 125.343 147.691  0.00  0.00    +0.000 OA
ATOM     14  C   UNL     1     105.864 124.963 147.511  0.00  0.00    +0.000 A 
ATOM     15  C   UNL     1     106.299 124.584 148.102  0.00  0.00    +0.000 A 
ATOM     16  C   UNL     1     106.243 125.469 146.981  0.00  0.00    +0.000 A 
ATOM     17  C   UNL     1     107.056 125.596 147.040  0.00  0.00    +0.000 A 
ATOM     18  C   UNL     1     107.111 124.711 148.161  0.00  0.00    +0.000 A 
ATOM     19  C   UNL     1     107.490 125.217 147.630  0.00  0.00    +0.000 A 
BRANCH  17  20
ATOM     20  O   UNL     1     107.435 126.101 146.510  0.00  0.00    +0.000 OA
ATOM     21  C   UNL     1     107.069 126.802 146.276  0.00  0.00    +0.000 C 
ENDBRANCH  17  20
BRANCH  18  22
ATOM     22  O   UNL     1     107.545 124.332 148.752  0.00  0.00    +0.000 OA
ATOM     23  C   UNL     1     107.222 124.236 149.505  0.00  0.00    +0.000 C 
ENDBRANCH  18  22
ENDBRANCH   6  14
BRANCH   7  24
ATOM     24  O   UNL     1     104.129 123.118 145.863  0.00  0.00    +0.000 OA
ATOM     25  C   UNL     1     104.067 123.138 145.041  0.00  0.00    +0.000 C 
ENDBRANCH   7  24
BRANCH  11  26
ATOM     26  O   UNL     1     102.504 122.860 145.740  0.00  0.00    +0.000 OA
ATOM     27  C   UNL     1     101.691 122.739 145.671  0.00  0.00    +0.000 C 
ENDBRANCH  11  26
TORSDOF 5
ENDMDL
MODEL 2
REMARK VINA RESULT:      -8.0      0.586      1.605
REMARK  Name = 13871366
REMARK  5 active torsions:
REMARK  status: ('A' for Active; 'I' for Inactive)
REMARK    1  A    between atoms: O_2  and  C_13
REMARK    2  A    between atoms: O_3  and  C_17
REMARK    3  A    between atoms: O_5  and  C_21
REMARK    4  A    between atoms: O_6  and  C_22
REMARK    5  A    between atoms: C_11  and  C_12
REMARK                            x       y       z     vdW  Elec       q    Type
REMARK                         _______ _______ _______ _____ _____    ______ ____
ROOT
ATOM      1  O   UNL     1     104.537 124.756 147.049  0.00  0.00    +0.000 OA
ATOM      2  O   UNL     1     102.047 125.245 148.441  0.00  0.00    +0.000 OA
ATOM      3  O   UNL     1     103.274 125.759 149.001  0.00  0.00    +0.000 OA
ATOM      4  C   UNL     1     103.275 125.002 147.752  0.00  0.00    +0.000 A 
ATOM      5  C   UNL     1     103.684 124.674 147.115  0.00  0.00    +0.000 A 
ATOM      6  C   UNL     1     104.970 125.185 147.655  0.00  0.00    +0.000 A 
ATOM      7  C   UNL     1     103.274 124.261 146.530  0.00  0.00    +0.000 A 
ATOM      8  C   UNL     1     103.691 125.434 148.367  0.00  0.00    +0.000 A 
ATOM      9  C   UNL     1     102.456 124.917 147.804  0.00  0.00    +0.000 A 
ATOM     10  C   UNL     1     104.544 125.527 148.319  0.00  0.00    +0.000 A 
ATOM     11  C   UNL     1     102.455 124.176 146.583  0.00  0.00    +0.000 A 
ATOM     12  C   UNL     1     102.047 124.504 147.220  0.00  0.00    +0.000 A 
ENDROOT
BRANCH   6  14
ATOM     13  O   UNL     1     108.245 125.521 147.434  0.00  0.00    +0.000 OA
ATOM     14  C   UNL     1     105.789 125.269 147.600  0.00  0.00    +0.000 A 
ATOM     15  C   UNL     1     106.114 125.802 147.061  0.00  0.00    +0.000 A 
ATOM     16  C   UNL     1     106.283 124.819 148.084  0.00  0.00    +0.000 A 
ATOM     17  C   UNL     1     107.102 124.903 148.030  0.00  0.00    +0.000 A 
ATOM     18  C   UNL     1     106.932 125.886 147.005  0.00  0.00    +0.000 A 
ATOM     19  C   UNL     1     107.427 125.436 147.490  0.00  0.00    +0.000 A 
BRANCH  17  20
ATOM     20  O   UNL     1     107.597 124.454 148.513  0.00  0.00    +0.000 OA
ATOM     21  C   UNL     1     107.373 124.288 149.290  0.00  0.00    +0.000 C 
ENDBRANCH  17  20
BRANCH  18  22
ATOM     22  O   UNL     1     107.257 126.419 146.466  0.00  0.00    +0.000 OA
ATOM     23  C   UNL     1     106.777 126.985 146.105  0.00  0.00    +0.000 C 
ENDBRANCH  18  22
ENDBRANCH   6  14
BRANCH   7  24
ATOM     24  O   UNL     1     103.683 123.933 145.893  0.00  0.00    +0.000 OA
ATOM     25  C   UNL     1     103.770 123.115 145.836  0.00  0.00    +0.000 C 
ENDBRANCH   7  24
BRANCH  11  26
ATOM     26  O   UNL     1     102.045 123.763 145.997  0.00  0.00    +0.000 OA
ATOM     27  C   UNL     1     101.224 123.701 146.036  0.00  0.00    +0.000 C 
ENDBRANCH  11  26
TORSDOF 5
ENDMDL
MODEL 3
REMARK VINA RESULT:      -7.9      0.961      4.663
REMARK  Name = 13871366
REMARK  5 active torsions:
REMARK  status: ('A' for Active; 'I' for Inactive)
REMARK    1  A    between atoms: O_2  and  C_13
REMARK    2  A    between atoms: O_3  and  C_17
REMARK    3  A    between atoms: O_5  and  C_21
REMARK    4  A    between atoms: O_6  and  C_22
REMARK    5  A    between atoms: C_11  and  C_12
REMARK                            x       y       z     vdW  Elec       q    Type
REMARK                         _______ _______ _______ _____ _____    ______ ____
ROOT
ATOM      1  O   UNL     1     104.828 124.557 147.647  0.00  0.00    +0.000 OA
ATOM      2  O   UNL     1     107.137 125.559 146.218  0.00  0.00    +0.000 OA
ATOM      3  O   UNL     1     105.843 125.608 145.579  0.00  0.00    +0.000 OA
ATOM      4  C   UNL     1     105.998 125.064 146.925  0.00  0.00    +0.000 A 
ATOM      5  C   UNL     1     105.670 124.721 147.600  0.00  0.00    +0.000 A 
ATOM      6  C   UNL     1     104.320 124.752 146.982  0.00  0.00    +0.000 A 
ATOM      7  C   UNL     1     106.152 124.531 148.243  0.00  0.00    +0.000 A 
ATOM      8  C   UNL     1     105.507 125.266 146.250  0.00  0.00    +0.000 A 
ATOM      9  C   UNL     1     106.808 125.216 146.893  0.00  0.00    +0.000 A 
ATOM     10  C   UNL     1     104.662 125.109 146.278  0.00  0.00    +0.000 A 
ATOM     11  C   UNL     1     106.962 124.685 148.210  0.00  0.00    +0.000 A 
ATOM     12  C   UNL     1     107.290 125.027 147.535  0.00  0.00    +0.000 A 
ENDROOT
BRANCH   6  14
ATOM     13  O   UNL     1     101.082 124.135 147.123  0.00  0.00    +0.000 OA
ATOM     14  C   UNL     1     103.510 124.598 147.017  0.00  0.00    +0.000 A 
ATOM     15  C   UNL     1     103.193 123.960 146.602  0.00  0.00    +0.000 A 
ATOM     16  C   UNL     1     103.018 125.082 147.468  0.00  0.00    +0.000 A 
ATOM     17  C   UNL     1     102.208 124.929 147.504  0.00  0.00    +0.000 A 
ATOM     18  C   UNL     1     102.385 123.806 146.637  0.00  0.00    +0.000 A 
ATOM     19  C   UNL     1     101.891 124.290 147.088  0.00  0.00    +0.000 A 
BRANCH  17  20
ATOM     20  O   UNL     1     101.715 125.412 147.955  0.00  0.00    +0.000 OA
ATOM     21  C   UNL     1     101.999 125.759 148.647  0.00  0.00    +0.000 C 
ENDBRANCH  17  20
BRANCH  18  22
ATOM     22  O   UNL     1     102.068 123.167 146.222  0.00  0.00    +0.000 OA
ATOM     23  C   UNL     1     102.541 122.739 145.699  0.00  0.00    +0.000 C 
ENDBRANCH  18  22
ENDBRANCH   6  14
BRANCH   7  24
ATOM     24  O   UNL     1     105.824 124.189 148.918  0.00  0.00    +0.000 OA
ATOM     25  C   UNL     1     105.756 124.629 149.612  0.00  0.00    +0.000 C 
ENDBRANCH   7  24
BRANCH  11  26
ATOM     26  O   UNL     1     107.444 124.495 148.853  0.00  0.00    +0.000 OA
ATOM     27  C   UNL     1     108.256 124.634 148.813  0.00  0.00    +0.000 C 
ENDBRANCH  11  26
TORSDOF 5
ENDMDL
MODEL 4
REMARK VINA RESULT:      -7.9      0.766      1.933
REMARK  Name = 13871366
REMARK  5 active torsions:
REMARK  status: ('A' for Active; 'I' for Inactive)
REMARK    1  A    between atoms: O_2  and  C_13
REMARK    2  A    between atoms: O_3  and  C_17
REMARK    3  A    between atoms: O_5  and  C_21
REMARK    4  A    between atoms: O_6  and  C_22
REMARK    5  A    between atoms: C_11  and  C_12
REMARK                            x       y       z     vdW  Elec       q    Type
REMARK                         _______ _______ _______ _____ _____    ______ ____
ROOT
ATOM      1  O   UNL     1     104.475 125.019 147.655  0.00  0.00    +0.000 OA
ATOM      2  O   UNL     1     102.453 123.816 145.972  0.00  0.00    +0.000 OA
ATOM      3  O   UNL     1     103.819 123.846 145.509  0.00  0.00    +0.000 OA
ATOM      4  C   UNL     1     103.450 124.410 146.805  0.00  0.00    +0.000 A 
ATOM      5  C   UNL     1     103.661 124.793 147.505  0.00  0.00    +0.000 A 
ATOM      6  C   UNL     1     105.079 124.846 147.069  0.00  0.00    +0.000 A 
ATOM      7  C   UNL     1     103.085 124.962 148.072  0.00  0.00    +0.000 A 
ATOM      8  C   UNL     1     104.039 124.228 146.207  0.00  0.00    +0.000 A 
ATOM      9  C   UNL     1     102.663 124.198 146.672  0.00  0.00    +0.000 A 
ATOM     10  C   UNL     1     104.860 124.447 146.340  0.00  0.00    +0.000 A 
ATOM     11  C   UNL     1     102.300 124.749 147.938  0.00  0.00    +0.000 A 
ATOM     12  C   UNL     1     102.089 124.367 147.238  0.00  0.00    +0.000 A 
ENDROOT
BRANCH   6  14
ATOM     13  O   UNL     1     108.220 125.700 147.614  0.00  0.00    +0.000 OA
ATOM     14  C   UNL     1     105.865 125.060 147.205  0.00  0.00    +0.000 A 
ATOM     15  C   UNL     1     106.309 124.658 147.773  0.00  0.00    +0.000 A 
ATOM     16  C   UNL     1     106.205 125.675 146.774  0.00  0.00    +0.000 A 
ATOM     17  C   UNL     1     106.990 125.888 146.910  0.00  0.00    +0.000 A 
ATOM     18  C   UNL     1     107.093 124.872 147.909  0.00  0.00    +0.000 A 
ATOM     19  C   UNL     1     107.435 125.487 147.477  0.00  0.00    +0.000 A 
BRANCH  17  20
ATOM     20  O   UNL     1     107.332 126.503 146.479  0.00  0.00    +0.000 OA
ATOM     21  C   UNL     1     106.932 127.220 146.396  0.00  0.00    +0.000 C 
ENDBRANCH  17  20
BRANCH  18  22
ATOM     22  O   UNL     1     107.538 124.470 148.477  0.00  0.00    +0.000 OA
ATOM     23  C   UNL     1     107.212 124.308 149.217  0.00  0.00    +0.000 C 
ENDBRANCH  18  22
ENDBRANCH   6  14
BRANCH   7  24
ATOM     24  O   UNL     1     103.296 125.344 148.772  0.00  0.00    +0.000 OA
ATOM     25  C   UNL     1     103.086 126.133 148.891  0.00  0.00    +0.000 C 
ENDBRANCH   7  24
BRANCH  11  26
ATOM     26  O   UNL     1     101.724 124.919 148.506  0.00  0.00    +0.000 OA
ATOM     27  C   UNL     1     101.026 124.480 148.528  0.00  0.00    +0.000 C 
ENDBRANCH  11  26
TORSDOF 5
ENDMDL
MODEL 5
REMARK VINA RESULT:      -7.7     11.911     13.534
REMARK  Name = 13871366
REMARK  5 active torsions:
REMARK  status: ('A' for Active; 'I' for Inactive)
REMARK    1  A    between atoms: O_2  and  C_13
REMARK    2  A    between atoms: O_3  and  C_17
REMARK    3  A    between atoms: O_5  and  C_21
REMARK    4  A    between atoms: O_6  and  C_22
REMARK    5  A    between atoms: C_11  and  C_12
REMARK                            x       y       z     vdW  Elec       q    Type
REMARK                         _______ _______ _______ _____ _____    ______ ____
ROOT
ATOM      1  O   UNL     1     112.123 126.937 136.199  0.00  0.00    +0.000 OA
ATOM      2  O   UNL     1     109.749 126.169 134.735  0.00  0.00    +0.000 OA
ATOM      3  O   UNL     1     110.512 125.149 135.414  0.00  0.00    +0.000 OA
ATOM      4  C   UNL     1     110.921 126.550 135.457  0.00  0.00    +0.000 A 
ATOM      5  C   UNL     1     111.444 127.135 135.712  0.00  0.00    +0.000 A 
ATOM      6  C   UNL     1     112.260 126.120 136.426  0.00  0.00    +0.000 A 
ATOM      7  C   UNL     1     111.319 127.923 135.498  0.00  0.00    +0.000 A 
ATOM      8  C   UNL     1     111.040 125.728 135.673  0.00  0.00    +0.000 A 
ATOM      9  C   UNL     1     110.272 126.754 134.989  0.00  0.00    +0.000 A 
ATOM     10  C   UNL     1     111.714 125.510 136.160  0.00  0.00    +0.000 A 
ATOM     11  C   UNL     1     110.671 128.125 135.030  0.00  0.00    +0.000 A 
ATOM     12  C   UNL     1     110.147 127.540 134.776  0.00  0.00    +0.000 A 
ENDROOT
BRANCH   6  14
ATOM     13  O   UNL     1     114.858 125.321 138.297  0.00  0.00    +0.000 OA
ATOM     14  C   UNL     1     112.909 125.920 136.894  0.00  0.00    +0.000 A 
ATOM     15  C   UNL     1     113.594 125.623 136.543  0.00  0.00    +0.000 A 
ATOM     16  C   UNL     1     112.873 126.018 137.712  0.00  0.00    +0.000 A 
ATOM     17  C   UNL     1     113.523 125.819 138.180  0.00  0.00    +0.000 A 
ATOM     18  C   UNL     1     114.243 125.423 137.011  0.00  0.00    +0.000 A 
ATOM     19  C   UNL     1     114.208 125.521 137.830  0.00  0.00    +0.000 A 
BRANCH  17  20
ATOM     20  O   UNL     1     113.488 125.916 138.998  0.00  0.00    +0.000 OA
ATOM     21  C   UNL     1     113.092 126.565 139.319  0.00  0.00    +0.000 C 
ENDBRANCH  17  20
BRANCH  18  22
ATOM     22  O   UNL     1     114.928 125.126 136.660  0.00  0.00    +0.000 OA
ATOM     23  C   UNL     1     115.152 125.382 135.909  0.00  0.00    +0.000 C 
ENDBRANCH  18  22
ENDBRANCH   6  14
BRANCH   7  24
ATOM     24  O   UNL     1     111.843 128.508 135.753  0.00  0.00    +0.000 OA
ATOM     25  C   UNL     1     112.327 128.892 135.208  0.00  0.00    +0.000 C 
ENDBRANCH   7  24
BRANCH  11  26
ATOM     26  O   UNL     1     110.546 128.912 134.817  0.00  0.00    +0.000 OA
ATOM     27  C   UNL     1     109.789 129.168 134.612  0.00  0.00    +0.000 C 
ENDBRANCH  11  26
TORSDOF 5
ENDMDL
MODEL 6
REMARK VINA RESULT:      -7.7      8.625     10.037
REMARK  Name = 13871366
REMARK  5 active torsions:
REMARK  status: ('A' for Active; 'I' for Inactive)
REMARK    1  A    between atoms: O_2  and  C_13
REMARK    2  A    between atoms: O_3  and  C_17
REMARK    3  A    between atoms: O_5  and  C_21
REMARK    4  A    between atoms: O_6  and  C_22
REMARK    5  A    between atoms: C_11  and  C_12
REMARK                            x       y       z     vdW  Elec       q    Type
REMARK                         _______ _______ _______ _____ _____    ______ ____
ROOT
ATOM      1  O   UNL     1     102.986 131.961 141.244  0.00  0.00    +0.000 OA
ATOM      2  O   UNL     1     100.828 133.675 142.126  0.00  0.00    +0.000 OA
ATOM      3  O   UNL     1     100.730 132.254 142.357  0.00  0.00    +0.000 OA
ATOM      4  C   UNL     1     101.894 132.831 141.690  0.00  0.00    +0.000 A 
ATOM      5  C   UNL     1     102.629 132.738 141.327  0.00  0.00    +0.000 A 
ATOM      6  C   UNL     1     102.572 131.270 141.543  0.00  0.00    +0.000 A 
ATOM      7  C   UNL     1     103.033 133.398 141.037  0.00  0.00    +0.000 A 
ATOM      8  C   UNL     1     101.465 132.152 141.995  0.00  0.00    +0.000 A 
ATOM      9  C   UNL     1     101.563 133.583 141.763  0.00  0.00    +0.000 A 
ATOM     10  C   UNL     1     101.805 131.366 141.922  0.00  0.00    +0.000 A 
ATOM     11  C   UNL     1     102.700 134.149 141.111  0.00  0.00    +0.000 A 
ATOM     12  C   UNL     1     101.965 134.241 141.474  0.00  0.00    +0.000 A 
ENDROOT
BRANCH   6  14
ATOM     13  O   UNL     1     103.908 128.268 141.243  0.00  0.00    +0.000 OA
ATOM     14  C   UNL     1     102.906 130.520 141.468  0.00  0.00    +0.000 A 
ATOM     15  C   UNL     1     102.743 130.060 140.803  0.00  0.00    +0.000 A 
ATOM     16  C   UNL     1     103.404 130.229 142.059  0.00  0.00    +0.000 A 
ATOM     17  C   UNL     1     103.738 129.478 141.984  0.00  0.00    +0.000 A 
ATOM     18  C   UNL     1     103.076 129.310 140.728  0.00  0.00    +0.000 A 
ATOM     19  C   UNL     1     103.575 129.019 141.319  0.00  0.00    +0.000 A 
BRANCH  17  20
ATOM     20  O   UNL     1     104.236 129.187 142.573  0.00  0.00    +0.000 OA
ATOM     21  C   UNL     1     104.199 129.501 143.335  0.00  0.00    +0.000 C 
ENDBRANCH  17  20
BRANCH  18  22
ATOM     22  O   UNL     1     102.913 128.850 140.063  0.00  0.00    +0.000 OA
ATOM     23  C   UNL     1     102.329 129.088 139.530  0.00  0.00    +0.000 C 
ENDBRANCH  18  22
ENDBRANCH   6  14
BRANCH   7  24
ATOM     24  O   UNL     1     103.768 133.305 140.674  0.00  0.00    +0.000 OA
ATOM     25  C   UNL     1     103.850 133.450 139.867  0.00  0.00    +0.000 C 
ENDBRANCH   7  24
BRANCH  11  26
ATOM     26  O   UNL     1     103.104 134.809 140.822  0.00  0.00    +0.000 OA
ATOM     27  C   UNL     1     102.882 135.566 141.063  0.00  0.00    +0.000 C 
ENDBRANCH  11  26
TORSDOF 5
ENDMDL
MODEL 7
REMARK VINA RESULT:      -7.7     12.384     13.726
REMARK  Name = 13871366
REMARK  5 active torsions:
REMARK  status: ('A' for Active; 'I' for Inactive)
REMARK    1  A    between atoms: O_2  and  C_13
REMARK    2  A    between atoms: O_3  and  C_17
REMARK    3  A    between atoms: O_5  and  C_21
REMARK    4  A    between atoms: O_6  and  C_22
REMARK    5  A    between atoms: C_11  and  C_12
REMARK                            x       y       z     vdW  Elec       q    Type
REMARK                         _______ _______ _______ _____ _____    ______ ____
ROOT
ATOM      1  O   UNL     1     112.599 126.550 136.712  0.00  0.00    +0.000 OA
ATOM      2  O   UNL     1     114.477 124.359 136.491  0.00  0.00    +0.000 OA
ATOM      3  O   UNL     1     114.962 125.711 136.356  0.00  0.00    +0.000 OA
ATOM      4  C   UNL     1     113.548 125.439 136.600  0.00  0.00    +0.000 A 
ATOM      5  C   UNL     1     112.777 125.710 136.717  0.00  0.00    +0.000 A 
ATOM      6  C   UNL     1     113.232 127.117 136.584  0.00  0.00    +0.000 A 
ATOM      7  C   UNL     1     112.164 125.170 136.840  0.00  0.00    +0.000 A 
ATOM      8  C   UNL     1     114.194 125.990 136.471  0.00  0.00    +0.000 A 
ATOM      9  C   UNL     1     113.706 124.629 136.607  0.00  0.00    +0.000 A 
ATOM     10  C   UNL     1     114.035 126.835 136.463  0.00  0.00    +0.000 A 
ATOM     11  C   UNL     1     112.324 124.361 136.846  0.00  0.00    +0.000 A 
ATOM     12  C   UNL     1     113.094 124.090 136.730  0.00  0.00    +0.000 A 
ENDROOT
BRANCH   6  14
ATOM     13  O   UNL     1     112.587 130.353 136.560  0.00  0.00    +0.000 OA
ATOM     14  C   UNL     1     113.070 127.926 136.578  0.00  0.00    +0.000 A 
ATOM     15  C   UNL     1     113.132 128.364 137.274  0.00  0.00    +0.000 A 
ATOM     16  C   UNL     1     112.848 128.297 135.875  0.00  0.00    +0.000 A 
ATOM     17  C   UNL     1     112.686 129.106 135.869  0.00  0.00    +0.000 A 
ATOM     18  C   UNL     1     112.971 129.173 137.268  0.00  0.00    +0.000 A 
ATOM     19  C   UNL     1     112.748 129.544 136.565  0.00  0.00    +0.000 A 
BRANCH  17  20
ATOM     20  O   UNL     1     112.464 129.477 135.167  0.00  0.00    +0.000 OA
ATOM     21  C   UNL     1     111.950 129.097 134.645  0.00  0.00    +0.000 C 
ENDBRANCH  17  20
BRANCH  18  22
ATOM     22  O   UNL     1     113.032 129.611 137.965  0.00  0.00    +0.000 OA
ATOM     23  C   UNL     1     112.796 129.280 138.683  0.00  0.00    +0.000 C 
ENDBRANCH  18  22
ENDBRANCH   6  14
BRANCH   7  24
ATOM     24  O   UNL     1     111.394 125.440 136.956  0.00  0.00    +0.000 OA
ATOM     25  C   UNL     1     110.833 125.358 136.357  0.00  0.00    +0.000 C 
ENDBRANCH   7  24
BRANCH  11  26
ATOM     26  O   UNL     1     111.711 123.821 136.969  0.00  0.00    +0.000 OA
ATOM     27  C   UNL     1     111.883 123.049 137.203  0.00  0.00    +0.000 C 
ENDBRANCH  11  26
TORSDOF 5
ENDMDL
MODEL 8
REMARK VINA RESULT:      -7.7     12.754     13.790
REMARK  Name = 13871366
REMARK  5 active torsions:
REMARK  status: ('A' for Active; 'I' for Inactive)
REMARK    1  A    between atoms: O_2  and  C_13
REMARK    2  A    between atoms: O_3  and  C_17
REMARK    3  A    between atoms: O_5  and  C_21
REMARK    4  A    between atoms: O_6  and  C_22
REMARK    5  A    between atoms: C_11  and  C_12
REMARK                            x       y       z     vdW  Elec       q    Type
REMARK                         _______ _______ _______ _____ _____    ______ ____
ROOT
ATOM      1  O   UNL     1     112.828 126.741 136.527  0.00  0.00    +0.000 OA
ATOM      2  O   UNL     1     110.510 125.333 135.518  0.00  0.00    +0.000 OA
ATOM      3  O   UNL     1     110.587 126.765 135.349  0.00  0.00    +0.000 OA
ATOM      4  C   UNL     1     111.656 126.026 136.017  0.00  0.00    +0.000 A 
ATOM      5  C   UNL     1     112.386 126.015 136.401  0.00  0.00    +0.000 A 
ATOM      6  C   UNL     1     112.507 127.488 136.250  0.00  0.00    +0.000 A 
ATOM      7  C   UNL     1     112.701 125.301 136.670  0.00  0.00    +0.000 A 
ATOM      8  C   UNL     1     111.318 126.763 135.732  0.00  0.00    +0.000 A 
ATOM      9  C   UNL     1     111.240 125.322 135.902  0.00  0.00    +0.000 A 
ATOM     10  C   UNL     1     111.746 127.499 135.849  0.00  0.00    +0.000 A 
ATOM     11  C   UNL     1     112.284 124.598 136.554  0.00  0.00    +0.000 A 
ATOM     12  C   UNL     1     111.554 124.609 136.170  0.00  0.00    +0.000 A 
ENDROOT
BRANCH   6  14
ATOM     13  O   UNL     1     114.179 130.294 136.715  0.00  0.00    +0.000 OA
ATOM     14  C   UNL     1     112.925 128.190 136.366  0.00  0.00    +0.000 A 
ATOM     15  C   UNL     1     113.408 128.487 135.767  0.00  0.00    +0.000 A 
ATOM     16  C   UNL     1     112.860 128.594 137.082  0.00  0.00    +0.000 A 
ATOM     17  C   UNL     1     113.278 129.296 137.199  0.00  0.00    +0.000 A 
ATOM     18  C   UNL     1     113.826 129.187 135.883  0.00  0.00    +0.000 A 
ATOM     19  C   UNL     1     113.761 129.593 136.600  0.00  0.00    +0.000 A 
BRANCH  17  20
ATOM     20  O   UNL     1     113.213 129.701 137.914  0.00  0.00    +0.000 OA
ATOM     21  C   UNL     1     113.133 129.281 138.620  0.00  0.00    +0.000 C 
ENDBRANCH  17  20
BRANCH  18  22
ATOM     22  O   UNL     1     114.309 129.484 135.284  0.00  0.00    +0.000 OA
ATOM     23  C   UNL     1     114.774 128.971 134.836  0.00  0.00    +0.000 C 
ENDBRANCH  18  22
ENDBRANCH   6  14
BRANCH   7  24
ATOM     24  O   UNL     1     113.431 125.290 137.054  0.00  0.00    +0.000 OA
ATOM     25  C   UNL     1     114.093 124.982 136.671  0.00  0.00    +0.000 C 
ENDBRANCH   7  24
BRANCH  11  26
ATOM     26  O   UNL     1     112.599 123.884 136.823  0.00  0.00    +0.000 OA
ATOM     27  C   UNL     1     112.097 123.254 137.000  0.00  0.00    +0.000 C 
ENDBRANCH  11  26
TORSDOF 5
ENDMDL
MODEL 9
REMARK VINA RESULT:      -7.6      8.861     10.463
REMARK  Name = 13871366
REMARK  5 active torsions:
REMARK  status: ('A' for Active; 'I' for Inactive)
REMARK    1  A    between atoms: O_2  and  C_13
REMARK    2  A    between atoms: O_3  and  C_17
REMARK    3  A    between atoms: O_5  and  C_21
REMARK    4  A    between atoms: O_6  and  C_22
REMARK    5  A    between atoms: C_11  and  C_12
REMARK                            x       y       z     vdW  Elec       q    Type
REMARK                         _______ _______ _______ _____ _____    ______ ____
ROOT
ATOM      1  O   UNL     1     111.546 131.319 145.195  0.00  0.00    +0.000 OA
ATOM      2  O   UNL     1     112.305 131.480 142.407  0.00  0.00    +0.000 OA
ATOM      3  O   UNL     1     112.299 132.685 143.201  0.00  0.00    +0.000 OA
ATOM      4  C   UNL     1     111.930 131.398 143.783  0.00  0.00    +0.000 A 
ATOM      5  C   UNL     1     111.685 130.950 144.431  0.00  0.00    +0.000 A 
ATOM      6  C   UNL     1     111.664 132.165 145.286  0.00  0.00    +0.000 A 
ATOM      7  C   UNL     1     111.569 130.136 144.351  0.00  0.00    +0.000 A 
ATOM      8  C   UNL     1     112.054 132.245 143.854  0.00  0.00    +0.000 A 
ATOM      9  C   UNL     1     112.060 131.032 143.055  0.00  0.00    +0.000 A 
ATOM     10  C   UNL     1     111.920 132.632 144.610  0.00  0.00    +0.000 A 
ATOM     11  C   UNL     1     111.700 129.772 143.623  0.00  0.00    +0.000 A 
ATOM     12  C   UNL     1     111.945 130.220 142.975  0.00  0.00    +0.000 A 
ENDROOT
BRANCH   6  14
ATOM     13  O   UNL     1     111.140 133.616 148.202  0.00  0.00    +0.000 OA
ATOM     14  C   UNL     1     111.533 132.528 146.015  0.00  0.00    +0.000 A 
ATOM     15  C   UNL     1     110.811 132.895 146.169  0.00  0.00    +0.000 A 
ATOM     16  C   UNL     1     112.125 132.523 146.590  0.00  0.00    +0.000 A 
ATOM     17  C   UNL     1     111.994 132.885 147.319  0.00  0.00    +0.000 A 
ATOM     18  C   UNL     1     110.680 133.258 146.897  0.00  0.00    +0.000 A 
ATOM     19  C   UNL     1     111.272 133.253 147.474  0.00  0.00    +0.000 A 
BRANCH  17  20
ATOM     20  O   UNL     1     112.585 132.881 147.895  0.00  0.00    +0.000 OA
ATOM     21  C   UNL     1     113.080 132.225 147.971  0.00  0.00    +0.000 C 
ENDBRANCH  17  20
BRANCH  18  22
ATOM     22  O   UNL     1     109.958 133.625 147.052  0.00  0.00    +0.000 OA
ATOM     23  C   UNL     1     109.252 133.258 146.831  0.00  0.00    +0.000 C 
ENDBRANCH  18  22
ENDBRANCH   6  14
BRANCH   7  24
ATOM     24  O   UNL     1     111.324 129.689 144.999  0.00  0.00    +0.000 OA
ATOM     25  C   UNL     1     111.851 129.173 145.367  0.00  0.00    +0.000 C 
ENDBRANCH   7  24
BRANCH  11  26
ATOM     26  O   UNL     1     111.584 128.958 143.543  0.00  0.00    +0.000 OA
ATOM     27  C   UNL     1     111.533 128.622 142.792  0.00  0.00    +0.000 C 
ENDBRANCH  11  26
TORSDOF 5
ENDMDL
MODEL 10
REMARK VINA RESULT:      -7.4     11.532     13.628
REMARK  Name = 13871366
REMARK  5 active torsions:
REMARK  status: ('A' for Active; 'I' for Inactive)
REMARK    1  A    between atoms: O_2  and  C_13
REMARK    2  A    between atoms: O_3  and  C_17
REMARK    3  A    between atoms: O_5  and  C_21
REMARK    4  A    between atoms: O_6  and  C_22
REMARK    5  A    between atoms: C_11  and  C_12
REMARK                            x       y       z     vdW  Elec       q    Type
REMARK                         _______ _______ _______ _____ _____    ______ ____
ROOT
ATOM      1  O   UNL     1     112.362 127.291 137.316  0.00  0.00    +0.000 OA
ATOM      2  O   UNL     1     113.808 129.635 136.428  0.00  0.00    +0.000 OA
ATOM      3  O   UNL     1     113.971 128.398 135.703  0.00  0.00    +0.000 OA
ATOM      4  C   UNL     1     113.093 128.479 136.868  0.00  0.00    +0.000 A 
ATOM      5  C   UNL     1     112.569 128.121 137.395  0.00  0.00    +0.000 A 
ATOM      6  C   UNL     1     112.706 126.827 136.680  0.00  0.00    +0.000 A 
ATOM      7  C   UNL     1     112.235 128.561 138.008  0.00  0.00    +0.000 A 
ATOM      8  C   UNL     1     113.447 128.032 136.226  0.00  0.00    +0.000 A 
ATOM      9  C   UNL     1     113.284 129.277 136.955  0.00  0.00    +0.000 A 
ATOM     10  C   UNL     1     113.253 127.200 136.131  0.00  0.00    +0.000 A 
ATOM     11  C   UNL     1     112.426 129.359 138.094  0.00  0.00    +0.000 A 
ATOM     12  C   UNL     1     112.950 129.717 137.567  0.00  0.00    +0.000 A 
ENDROOT
BRANCH   6  14
ATOM     13  O   UNL     1     111.935 123.636 136.344  0.00  0.00    +0.000 OA
ATOM     14  C   UNL     1     112.513 126.029 136.596  0.00  0.00    +0.000 A 
ATOM     15  C   UNL     1     111.818 125.811 136.210  0.00  0.00    +0.000 A 
ATOM     16  C   UNL     1     113.017 125.449 136.898  0.00  0.00    +0.000 A 
ATOM     17  C   UNL     1     112.824 124.651 136.814  0.00  0.00    +0.000 A 
ATOM     18  C   UNL     1     111.625 125.014 136.126  0.00  0.00    +0.000 A 
ATOM     19  C   UNL     1     112.128 124.433 136.428  0.00  0.00    +0.000 A 
BRANCH  17  20
ATOM     20  O   UNL     1     113.326 124.071 137.116  0.00  0.00    +0.000 OA
ATOM     21  C   UNL     1     114.125 124.240 137.237  0.00  0.00    +0.000 C 
ENDBRANCH  17  20
BRANCH  18  22
ATOM     22  O   UNL     1     110.929 124.796 135.740  0.00  0.00    +0.000 OA
ATOM     23  C   UNL     1     110.466 125.369 135.369  0.00  0.00    +0.000 C 
ENDBRANCH  18  22
ENDBRANCH   6  14
BRANCH   7  24
ATOM     24  O   UNL     1     111.710 128.204 138.535  0.00  0.00    +0.000 OA
ATOM     25  C   UNL     1     111.948 128.042 139.307  0.00  0.00    +0.000 C 
ENDBRANCH   7  24
BRANCH  11  26
ATOM     26  O   UNL     1     112.092 129.800 138.707  0.00  0.00    +0.000 OA
ATOM     27  C   UNL     1     112.030 130.619 138.639  0.00  0.00    +0.000 C 
ENDBRANCH  11  26
TORSDOF 5
ENDMDL
