MODEL 1
REMARK VINA RESULT:      -8.3      0.000      0.000
REMARK  Name = 42607694
REMARK  9 active torsions:
REMARK  status: ('A' for Active; 'I' for Inactive)
REMARK    1  A    between atoms: O_2  and  C_16
REMARK    2  A    between atoms: O_2  and  C_18
REMARK    3  A    between atoms: O_6  and  C_17
REMARK    4  A    between atoms: O_6  and  C_22
REMARK    5  A    between atoms: C_14  and  C_17
REMARK    6  A    between atoms: C_19  and  C_21
REMARK    7  A    between atoms: C_21  and  C_24
REMARK    8  A    between atoms: C_24  and  C_27
REMARK    9  A    between atoms: C_27  and  C_29
REMARK                            x       y       z     vdW  Elec       q    Type
REMARK                         _______ _______ _______ _____ _____    ______ ____
ROOT
ATOM      1  O   UNL     1     113.150 123.875 136.175  0.00  0.00    +0.000 OA
ATOM      2  O   UNL     1     115.282 125.060 137.664  0.00  0.00    +0.000 OA
ATOM      3  C   UNL     1     113.119 125.325 137.805  0.00  0.00    +0.000 A 
ATOM      4  C   UNL     1     112.861 124.814 137.211  0.00  0.00    +0.000 A 
ATOM      5  C   UNL     1     113.927 125.407 137.956  0.00  0.00    +0.000 A 
ATOM      6  C   UNL     1     113.409 124.385 136.768  0.00  0.00    +0.000 A 
ATOM      7  C   UNL     1     114.475 124.978 137.513  0.00  0.00    +0.000 A 
ATOM      8  C   UNL     1     114.215 124.467 136.919  0.00  0.00    +0.000 A 
ENDROOT
BRANCH   4  10
ATOM      9  O   UNL     1     111.598 124.218 137.517  0.00  0.00    +0.000 OA
ATOM     10  C   UNL     1     112.054 124.733 137.061  0.00  0.00    +0.000 C 
BRANCH  10  11
ATOM     11  C   UNL     1     111.702 125.167 136.453  0.00  0.00    +0.000 C 
BRANCH  11  12
ATOM     12  C   UNL     1     110.898 125.074 136.293  0.00  0.00    +0.000 C 
BRANCH  12  14
ATOM     13  O   UNL     1     109.275 127.404 134.612  0.00  0.00    +0.000 OA
ATOM     14  C   UNL     1     110.492 125.657 135.872  0.00  0.00    +0.000 A 
ATOM     15  C   UNL     1     110.606 125.733 135.059  0.00  0.00    +0.000 A 
ATOM     16  C   UNL     1     109.972 126.163 136.266  0.00  0.00    +0.000 A 
ATOM     17  C   UNL     1     110.200 126.316 134.639  0.00  0.00    +0.000 A 
ATOM     18  C   UNL     1     109.567 126.745 135.846  0.00  0.00    +0.000 A 
ATOM     19  C   UNL     1     109.680 126.822 135.032  0.00  0.00    +0.000 A 
ENDBRANCH  12  14
ENDBRANCH  11  12
ENDBRANCH  10  11
ENDBRANCH   4  10
BRANCH   3  20
ATOM     20  O   UNL     1     112.571 125.754 138.248  0.00  0.00    +0.000 OA
BRANCH  20  29
ATOM     21  O   UNL     1     112.884 127.101 137.884  0.00  0.00    +0.000 OA
ATOM     22  O   UNL     1     113.228 128.870 139.114  0.00  0.00    +0.000 OA
ATOM     23  O   UNL     1     112.931 127.736 140.276  0.00  0.00    +0.000 OA
ATOM     24  O   UNL     1     112.603 126.177 139.843  0.00  0.00    +0.000 OA
ATOM     25  C   UNL     1     113.064 128.091 138.897  0.00  0.00    +0.000 C 
ATOM     26  C   UNL     1     112.915 127.524 139.478  0.00  0.00    +0.000 C 
ATOM     27  C   UNL     1     113.048 127.879 138.100  0.00  0.00    +0.000 C 
ATOM     28  C   UNL     1     112.751 126.745 139.261  0.00  0.00    +0.000 C 
ATOM     29  C   UNL     1     112.735 126.533 138.464  0.00  0.00    +0.000 C 
BRANCH  27  30
ATOM     30  C   UNL     1     113.196 128.447 137.520  0.00  0.00    +0.000 C 
BRANCH  30  31
ATOM     31  O   UNL     1     112.866 128.366 136.769  0.00  0.00    +0.000 OA
BRANCH  31  33
ATOM     32  O   UNL     1     113.875 129.064 136.038  0.00  0.00    +0.000 OA
ATOM     33  C   UNL     1     113.080 128.886 136.166  0.00  0.00    +0.000 C 
ATOM     34  C   UNL     1     112.499 129.228 135.691  0.00  0.00    +0.000 C 
ENDBRANCH  31  33
ENDBRANCH  30  31
ENDBRANCH  27  30
ENDBRANCH  20  29
ENDBRANCH   3  20
TORSDOF 9
ENDMDL
MODEL 2
REMARK VINA RESULT:      -8.1      1.493      3.376
REMARK  Name = 42607694
REMARK  9 active torsions:
REMARK  status: ('A' for Active; 'I' for Inactive)
REMARK    1  A    between atoms: O_2  and  C_16
REMARK    2  A    between atoms: O_2  and  C_18
REMARK    3  A    between atoms: O_6  and  C_17
REMARK    4  A    between atoms: O_6  and  C_22
REMARK    5  A    between atoms: C_14  and  C_17
REMARK    6  A    between atoms: C_19  and  C_21
REMARK    7  A    between atoms: C_21  and  C_24
REMARK    8  A    between atoms: C_24  and  C_27
REMARK    9  A    between atoms: C_27  and  C_29
REMARK                            x       y       z     vdW  Elec       q    Type
REMARK                         _______ _______ _______ _____ _____    ______ ____
ROOT
ATOM      1  O   UNL     1     114.078 124.807 136.321  0.00  0.00    +0.000 OA
ATOM      2  O   UNL     1     111.785 123.200 136.893  0.00  0.00    +0.000 OA
ATOM      3  C   UNL     1     112.346 125.191 137.592  0.00  0.00    +0.000 A 
ATOM      4  C   UNL     1     113.066 125.295 137.203  0.00  0.00    +0.000 A 
ATOM      5  C   UNL     1     111.919 124.492 137.489  0.00  0.00    +0.000 A 
ATOM      6  C   UNL     1     113.359 124.702 136.710  0.00  0.00    +0.000 A 
ATOM      7  C   UNL     1     112.212 123.898 136.996  0.00  0.00    +0.000 A 
ATOM      8  C   UNL     1     112.933 124.004 136.607  0.00  0.00    +0.000 A 
ENDROOT
BRANCH   4  10
ATOM      9  O   UNL     1     113.946 126.104 137.987  0.00  0.00    +0.000 OA
ATOM     10  C   UNL     1     113.492 125.994 137.307  0.00  0.00    +0.000 C 
BRANCH  10  11
ATOM     11  C   UNL     1     113.464 126.584 136.729  0.00  0.00    +0.000 C 
BRANCH  11  12
ATOM     12  C   UNL     1     113.822 127.314 136.868  0.00  0.00    +0.000 C 
BRANCH  12  14
ATOM     13  O   UNL     1     113.603 129.712 134.612  0.00  0.00    +0.000 OA
ATOM     14  C   UNL     1     113.767 127.914 136.304  0.00  0.00    +0.000 A 
ATOM     15  C   UNL     1     113.110 128.412 136.295  0.00  0.00    +0.000 A 
ATOM     16  C   UNL     1     114.369 128.014 135.749  0.00  0.00    +0.000 A 
ATOM     17  C   UNL     1     113.056 129.012 135.730  0.00  0.00    +0.000 A 
ATOM     18  C   UNL     1     114.315 128.613 135.185  0.00  0.00    +0.000 A 
ATOM     19  C   UNL     1     113.658 129.113 135.176  0.00  0.00    +0.000 A 
ENDBRANCH  12  14
ENDBRANCH  11  12
ENDBRANCH  10  11
ENDBRANCH   4  10
BRANCH   3  20
ATOM     20  O   UNL     1     112.053 125.784 138.085  0.00  0.00    +0.000 OA
BRANCH  20  29
ATOM     21  O   UNL     1     110.836 126.132 137.420  0.00  0.00    +0.000 OA
ATOM     22  O   UNL     1     108.809 126.387 138.190  0.00  0.00    +0.000 OA
ATOM     23  O   UNL     1     109.621 125.994 139.572  0.00  0.00    +0.000 OA
ATOM     24  O   UNL     1     111.243 125.692 139.519  0.00  0.00    +0.000 OA
ATOM     25  C   UNL     1     109.621 126.236 138.164  0.00  0.00    +0.000 C 
ATOM     26  C   UNL     1     110.026 126.040 138.855  0.00  0.00    +0.000 C 
ATOM     27  C   UNL     1     110.026 126.283 137.446  0.00  0.00    +0.000 C 
ATOM     28  C   UNL     1     110.837 125.889 138.828  0.00  0.00    +0.000 C 
ATOM     29  C   UNL     1     111.242 125.935 138.111  0.00  0.00    +0.000 C 
BRANCH  27  30
ATOM     30  C   UNL     1     109.619 126.479 136.756  0.00  0.00    +0.000 C 
BRANCH  30  31
ATOM     31  O   UNL     1     110.010 126.868 136.143  0.00  0.00    +0.000 OA
BRANCH  31  33
ATOM     32  O   UNL     1     109.095 127.565 135.297  0.00  0.00    +0.000 OA
ATOM     33  C   UNL     1     109.642 126.959 135.411  0.00  0.00    +0.000 C 
ATOM     34  C   UNL     1     109.821 126.444 134.791  0.00  0.00    +0.000 C 
ENDBRANCH  31  33
ENDBRANCH  30  31
ENDBRANCH  27  30
ENDBRANCH  20  29
ENDBRANCH   3  20
TORSDOF 9
ENDMDL
MODEL 3
REMARK VINA RESULT:      -8.0      2.311      4.422
REMARK  Name = 42607694
REMARK  9 active torsions:
REMARK  status: ('A' for Active; 'I' for Inactive)
REMARK    1  A    between atoms: O_2  and  C_16
REMARK    2  A    between atoms: O_2  and  C_18
REMARK    3  A    between atoms: O_6  and  C_17
REMARK    4  A    between atoms: O_6  and  C_22
REMARK    5  A    between atoms: C_14  and  C_17
REMARK    6  A    between atoms: C_19  and  C_21
REMARK    7  A    between atoms: C_21  and  C_24
REMARK    8  A    between atoms: C_24  and  C_27
REMARK    9  A    between atoms: C_27  and  C_29
REMARK                            x       y       z     vdW  Elec       q    Type
REMARK                         _______ _______ _______ _____ _____    ______ ____
ROOT
ATOM      1  O   UNL     1     114.638 128.767 135.182  0.00  0.00    +0.000 OA
ATOM      2  O   UNL     1     114.467 131.378 136.330  0.00  0.00    +0.000 OA
ATOM      3  C   UNL     1     113.206 129.615 136.593  0.00  0.00    +0.000 A 
ATOM      4  C   UNL     1     113.586 129.077 136.096  0.00  0.00    +0.000 A 
ATOM      5  C   UNL     1     113.500 130.383 136.671  0.00  0.00    +0.000 A 
ATOM      6  C   UNL     1     114.259 129.305 135.678  0.00  0.00    +0.000 A 
ATOM      7  C   UNL     1     114.173 130.611 136.252  0.00  0.00    +0.000 A 
ATOM      8  C   UNL     1     114.552 130.072 135.756  0.00  0.00    +0.000 A 
ENDROOT
BRANCH   4  10
ATOM      9  O   UNL     1     112.629 128.168 135.549  0.00  0.00    +0.000 OA
ATOM     10  C   UNL     1     113.291 128.311 136.019  0.00  0.00    +0.000 C 
BRANCH  10  11
ATOM     11  C   UNL     1     113.661 127.686 136.413  0.00  0.00    +0.000 C 
BRANCH  11  12
ATOM     12  C   UNL     1     113.340 126.927 136.372  0.00  0.00    +0.000 C 
BRANCH  12  14
ATOM     13  O   UNL     1     114.923 124.393 137.774  0.00  0.00    +0.000 OA
ATOM     14  C   UNL     1     113.736 126.293 136.723  0.00  0.00    +0.000 A 
ATOM     15  C   UNL     1     114.194 125.786 136.260  0.00  0.00    +0.000 A 
ATOM     16  C   UNL     1     113.675 126.167 137.536  0.00  0.00    +0.000 A 
ATOM     17  C   UNL     1     114.589 125.152 136.611  0.00  0.00    +0.000 A 
ATOM     18  C   UNL     1     114.070 125.534 137.886  0.00  0.00    +0.000 A 
ATOM     19  C   UNL     1     114.528 125.026 137.424  0.00  0.00    +0.000 A 
ENDBRANCH  12  14
ENDBRANCH  11  12
ENDBRANCH  10  11
ENDBRANCH   4  10
BRANCH   3  20
ATOM     20  O   UNL     1     112.533 129.387 137.011  0.00  0.00    +0.000 OA
BRANCH  20  29
ATOM     21  O   UNL     1     112.901 129.568 138.381  0.00  0.00    +0.000 OA
ATOM     22  O   UNL     1     111.926 130.677 139.989  0.00  0.00    +0.000 OA
ATOM     23  O   UNL     1     110.886 130.960 138.740  0.00  0.00    +0.000 OA
ATOM     24  O   UNL     1     111.189 130.315 137.251  0.00  0.00    +0.000 OA
ATOM     25  C   UNL     1     112.078 130.354 139.244  0.00  0.00    +0.000 C 
ATOM     26  C   UNL     1     111.558 130.496 138.620  0.00  0.00    +0.000 C 
ATOM     27  C   UNL     1     112.750 129.890 139.125  0.00  0.00    +0.000 C 
ATOM     28  C   UNL     1     111.710 130.173 137.876  0.00  0.00    +0.000 C 
ATOM     29  C   UNL     1     112.382 129.709 137.756  0.00  0.00    +0.000 C 
BRANCH  27  30
ATOM     30  C   UNL     1     113.270 129.749 139.750  0.00  0.00    +0.000 C 
BRANCH  30  31
ATOM     31  O   UNL     1     113.751 129.080 139.744  0.00  0.00    +0.000 OA
BRANCH  31  33
ATOM     32  O   UNL     1     114.750 129.496 140.676  0.00  0.00    +0.000 OA
ATOM     33  C   UNL     1     114.238 128.916 140.389  0.00  0.00    +0.000 C 
ATOM     34  C   UNL     1     114.214 128.173 140.747  0.00  0.00    +0.000 C 
ENDBRANCH  31  33
ENDBRANCH  30  31
ENDBRANCH  27  30
ENDBRANCH  20  29
ENDBRANCH   3  20
TORSDOF 9
ENDMDL
MODEL 4
REMARK VINA RESULT:      -8.0      2.441      3.948
REMARK  Name = 42607694
REMARK  9 active torsions:
REMARK  status: ('A' for Active; 'I' for Inactive)
REMARK    1  A    between atoms: O_2  and  C_16
REMARK    2  A    between atoms: O_2  and  C_18
REMARK    3  A    between atoms: O_6  and  C_17
REMARK    4  A    between atoms: O_6  and  C_22
REMARK    5  A    between atoms: C_14  and  C_17
REMARK    6  A    between atoms: C_19  and  C_21
REMARK    7  A    between atoms: C_21  and  C_24
REMARK    8  A    between atoms: C_24  and  C_27
REMARK    9  A    between atoms: C_27  and  C_29
REMARK                            x       y       z     vdW  Elec       q    Type
REMARK                         _______ _______ _______ _____ _____    ______ ____
ROOT
ATOM      1  O   UNL     1     114.509 127.004 140.626  0.00  0.00    +0.000 OA
ATOM      2  O   UNL     1     114.169 129.805 141.082  0.00  0.00    +0.000 OA
ATOM      3  C   UNL     1     113.080 128.425 139.787  0.00  0.00    +0.000 A 
ATOM      4  C   UNL     1     113.480 127.720 139.940  0.00  0.00    +0.000 A 
ATOM      5  C   UNL     1     113.310 129.120 140.168  0.00  0.00    +0.000 A 
ATOM      6  C   UNL     1     114.110 127.709 140.474  0.00  0.00    +0.000 A 
ATOM      7  C   UNL     1     113.940 129.110 140.702  0.00  0.00    +0.000 A 
ATOM      8  C   UNL     1     114.339 128.404 140.854  0.00  0.00    +0.000 A 
ENDROOT
BRANCH   4  10
ATOM      9  O   UNL     1     112.600 126.599 139.835  0.00  0.00    +0.000 OA
ATOM     10  C   UNL     1     113.250 127.025 139.559  0.00  0.00    +0.000 C 
BRANCH  10  11
ATOM     11  C   UNL     1     113.671 126.757 138.901  0.00  0.00    +0.000 C 
BRANCH  11  12
ATOM     12  C   UNL     1     113.419 126.083 138.499  0.00  0.00    +0.000 C 
BRANCH  12  14
ATOM     13  O   UNL     1     115.074 125.037 135.842  0.00  0.00    +0.000 OA
ATOM     14  C   UNL     1     113.833 125.821 137.834  0.00  0.00    +0.000 A 
ATOM     15  C   UNL     1     114.358 125.188 137.898  0.00  0.00    +0.000 A 
ATOM     16  C   UNL     1     113.722 126.193 137.106  0.00  0.00    +0.000 A 
ATOM     17  C   UNL     1     114.772 124.926 137.233  0.00  0.00    +0.000 A 
ATOM     18  C   UNL     1     114.136 125.932 136.442  0.00  0.00    +0.000 A 
ATOM     19  C   UNL     1     114.661 125.298 136.506  0.00  0.00    +0.000 A 
ENDBRANCH  12  14
ENDBRANCH  11  12
ENDBRANCH  10  11
ENDBRANCH   4  10
BRANCH   3  20
ATOM     20  O   UNL     1     112.451 128.435 139.254  0.00  0.00    +0.000 OA
BRANCH  20  29
ATOM     21  O   UNL     1     112.867 129.364 138.249  0.00  0.00    +0.000 OA
ATOM     22  O   UNL     1     111.874 131.130 137.437  0.00  0.00    +0.000 OA
ATOM     23  O   UNL     1     110.755 130.622 138.537  0.00  0.00    +0.000 OA
ATOM     24  O   UNL     1     111.043 129.274 139.446  0.00  0.00    +0.000 OA
ATOM     25  C   UNL     1     112.019 130.456 137.891  0.00  0.00    +0.000 C 
ATOM     26  C   UNL     1     111.459 130.202 138.441  0.00  0.00    +0.000 C 
ATOM     27  C   UNL     1     112.723 130.037 137.795  0.00  0.00    +0.000 C 
ATOM     28  C   UNL     1     111.603 129.528 138.895  0.00  0.00    +0.000 C 
ATOM     29  C   UNL     1     112.307 129.109 138.799  0.00  0.00    +0.000 C 
BRANCH  27  30
ATOM     30  C   UNL     1     113.282 130.292 137.245  0.00  0.00    +0.000 C 
BRANCH  30  31
ATOM     31  O   UNL     1     113.810 129.753 136.912  0.00  0.00    +0.000 OA
BRANCH  31  33
ATOM     32  O   UNL     1     114.862 130.627 136.501  0.00  0.00    +0.000 OA
ATOM     33  C   UNL     1     114.348 130.002 136.340  0.00  0.00    +0.000 C 
ATOM     34  C   UNL     1     114.374 129.627 135.605  0.00  0.00    +0.000 C 
ENDBRANCH  31  33
ENDBRANCH  30  31
ENDBRANCH  27  30
ENDBRANCH  20  29
ENDBRANCH   3  20
TORSDOF 9
ENDMDL
MODEL 5
REMARK VINA RESULT:      -7.9      2.373      4.360
REMARK  Name = 42607694
REMARK  9 active torsions:
REMARK  status: ('A' for Active; 'I' for Inactive)
REMARK    1  A    between atoms: O_2  and  C_16
REMARK    2  A    between atoms: O_2  and  C_18
REMARK    3  A    between atoms: O_6  and  C_17
REMARK    4  A    between atoms: O_6  and  C_22
REMARK    5  A    between atoms: C_14  and  C_17
REMARK    6  A    between atoms: C_19  and  C_21
REMARK    7  A    between atoms: C_21  and  C_24
REMARK    8  A    between atoms: C_24  and  C_27
REMARK    9  A    between atoms: C_27  and  C_29
REMARK                            x       y       z     vdW  Elec       q    Type
REMARK                         _______ _______ _______ _____ _____    ______ ____
ROOT
ATOM      1  O   UNL     1     114.291 128.806 134.839  0.00  0.00    +0.000 OA
ATOM      2  O   UNL     1     114.672 131.308 136.167  0.00  0.00    +0.000 OA
ATOM      3  C   UNL     1     113.507 129.551 136.735  0.00  0.00    +0.000 A 
ATOM      4  C   UNL     1     113.656 129.052 136.095  0.00  0.00    +0.000 A 
ATOM      5  C   UNL     1     113.846 130.303 136.758  0.00  0.00    +0.000 A 
ATOM      6  C   UNL     1     114.143 129.305 135.479  0.00  0.00    +0.000 A 
ATOM      7  C   UNL     1     114.333 130.556 136.142  0.00  0.00    +0.000 A 
ATOM      8  C   UNL     1     114.481 130.056 135.503  0.00  0.00    +0.000 A 
ENDROOT
BRANCH   4  10
ATOM      9  O   UNL     1     112.573 128.193 135.731  0.00  0.00    +0.000 OA
ATOM     10  C   UNL     1     113.317 128.300 136.072  0.00  0.00    +0.000 C 
BRANCH  10  11
ATOM     11  C   UNL     1     113.722 127.655 136.390  0.00  0.00    +0.000 C 
BRANCH  11  12
ATOM     12  C   UNL     1     113.383 126.904 136.367  0.00  0.00    +0.000 C 
BRANCH  12  14
ATOM     13  O   UNL     1     114.986 124.333 137.675  0.00  0.00    +0.000 OA
ATOM     14  C   UNL     1     113.784 126.261 136.695  0.00  0.00    +0.000 A 
ATOM     15  C   UNL     1     114.295 125.812 136.227  0.00  0.00    +0.000 A 
ATOM     16  C   UNL     1     113.674 126.067 137.489  0.00  0.00    +0.000 A 
ATOM     17  C   UNL     1     114.696 125.169 136.554  0.00  0.00    +0.000 A 
ATOM     18  C   UNL     1     114.075 125.425 137.816  0.00  0.00    +0.000 A 
ATOM     19  C   UNL     1     114.586 124.975 137.349  0.00  0.00    +0.000 A 
ENDBRANCH  12  14
ENDBRANCH  11  12
ENDBRANCH  10  11
ENDBRANCH   4  10
BRANCH   3  20
ATOM     20  O   UNL     1     113.020 129.298 137.351  0.00  0.00    +0.000 OA
BRANCH  20  29
ATOM     21  O   UNL     1     111.969 130.267 137.335  0.00  0.00    +0.000 OA
ATOM     22  O   UNL     1     111.111 131.471 138.941  0.00  0.00    +0.000 OA
ATOM     23  O   UNL     1     112.258 130.620 139.768  0.00  0.00    +0.000 OA
ATOM     24  O   UNL     1     113.213 129.534 138.972  0.00  0.00    +0.000 OA
ATOM     25  C   UNL     1     111.588 130.927 138.543  0.00  0.00    +0.000 C 
ATOM     26  C   UNL     1     112.162 130.503 138.957  0.00  0.00    +0.000 C 
ATOM     27  C   UNL     1     111.492 130.810 137.732  0.00  0.00    +0.000 C 
ATOM     28  C   UNL     1     112.639 129.959 138.559  0.00  0.00    +0.000 C 
ATOM     29  C   UNL     1     112.542 129.841 137.748  0.00  0.00    +0.000 C 
BRANCH  27  30
ATOM     30  C   UNL     1     110.918 131.235 137.319  0.00  0.00    +0.000 C 
BRANCH  30  31
ATOM     31  O   UNL     1     110.657 130.970 136.584  0.00  0.00    +0.000 OA
BRANCH  31  33
ATOM     32  O   UNL     1     110.101 132.193 136.099  0.00  0.00    +0.000 OA
ATOM     33  C   UNL     1     110.056 131.374 136.189  0.00  0.00    +0.000 C 
ATOM     34  C   UNL     1     109.411 130.961 135.884  0.00  0.00    +0.000 C 
ENDBRANCH  31  33
ENDBRANCH  30  31
ENDBRANCH  27  30
ENDBRANCH  20  29
ENDBRANCH   3  20
TORSDOF 9
ENDMDL
MODEL 6
REMARK VINA RESULT:      -7.9     10.944     12.800
REMARK  Name = 42607694
REMARK  9 active torsions:
REMARK  status: ('A' for Active; 'I' for Inactive)
REMARK    1  A    between atoms: O_2  and  C_16
REMARK    2  A    between atoms: O_2  and  C_18
REMARK    3  A    between atoms: O_6  and  C_17
REMARK    4  A    between atoms: O_6  and  C_22
REMARK    5  A    between atoms: C_14  and  C_17
REMARK    6  A    between atoms: C_19  and  C_21
REMARK    7  A    between atoms: C_21  and  C_24
REMARK    8  A    between atoms: C_24  and  C_27
REMARK    9  A    between atoms: C_27  and  C_29
REMARK                            x       y       z     vdW  Elec       q    Type
REMARK                         _______ _______ _______ _____ _____    ______ ____
ROOT
ATOM      1  O   UNL     1     108.100 125.725 147.729  0.00  0.00    +0.000 OA
ATOM      2  O   UNL     1     106.571 123.865 149.268  0.00  0.00    +0.000 OA
ATOM      3  C   UNL     1     106.141 124.837 147.361  0.00  0.00    +0.000 A 
ATOM      4  C   UNL     1     106.822 125.292 147.261  0.00  0.00    +0.000 A 
ATOM      5  C   UNL     1     106.057 124.361 148.030  0.00  0.00    +0.000 A 
ATOM      6  C   UNL     1     107.419 125.271 147.829  0.00  0.00    +0.000 A 
ATOM      7  C   UNL     1     106.655 124.341 148.599  0.00  0.00    +0.000 A 
ATOM      8  C   UNL     1     107.336 124.796 148.498  0.00  0.00    +0.000 A 
ENDROOT
BRANCH   4  10
ATOM      9  O   UNL     1     107.084 125.426 145.863  0.00  0.00    +0.000 OA
ATOM     10  C   UNL     1     106.904 125.767 146.592  0.00  0.00    +0.000 C 
BRANCH  10  11
ATOM     11  C   UNL     1     106.808 126.585 146.653  0.00  0.00    +0.000 C 
BRANCH  11  12
ATOM     12  C   UNL     1     106.824 127.053 145.974  0.00  0.00    +0.000 C 
BRANCH  12  14
ATOM     13  O   UNL     1     106.670 130.339 146.236  0.00  0.00    +0.000 OA
ATOM     14  C   UNL     1     106.785 127.875 146.040  0.00  0.00    +0.000 A 
ATOM     15  C   UNL     1     106.088 128.236 146.291  0.00  0.00    +0.000 A 
ATOM     16  C   UNL     1     107.444 128.335 145.853  0.00  0.00    +0.000 A 
ATOM     17  C   UNL     1     106.049 129.059 146.356  0.00  0.00    +0.000 A 
ATOM     18  C   UNL     1     107.406 129.156 145.919  0.00  0.00    +0.000 A 
ATOM     19  C   UNL     1     106.708 129.518 146.170  0.00  0.00    +0.000 A 
ENDBRANCH  12  14
ENDBRANCH  11  12
ENDBRANCH  10  11
ENDBRANCH   4  10
BRANCH   3  20
ATOM     20  O   UNL     1     105.543 124.858 146.792  0.00  0.00    +0.000 OA
BRANCH  20  29
ATOM     21  O   UNL     1     104.417 125.345 147.528  0.00  0.00    +0.000 OA
ATOM     22  O   UNL     1     102.385 124.569 147.708  0.00  0.00    +0.000 OA
ATOM     23  O   UNL     1     103.057 123.451 146.697  0.00  0.00    +0.000 OA
ATOM     24  O   UNL     1     104.636 123.596 146.239  0.00  0.00    +0.000 OA
ATOM     25  C   UNL     1     103.175 124.641 147.480  0.00  0.00    +0.000 C 
ATOM     26  C   UNL     1     103.510 124.083 146.974  0.00  0.00    +0.000 C 
ATOM     27  C   UNL     1     103.628 125.272 147.756  0.00  0.00    +0.000 C 
ATOM     28  C   UNL     1     104.300 124.155 146.745  0.00  0.00    +0.000 C 
ATOM     29  C   UNL     1     104.754 124.786 147.022  0.00  0.00    +0.000 C 
BRANCH  27  30
ATOM     30  C   UNL     1     103.292 125.831 148.262  0.00  0.00    +0.000 C 
BRANCH  30  31
ATOM     31  O   UNL     1     103.627 126.581 148.332  0.00  0.00    +0.000 OA
BRANCH  31  33
ATOM     32  O   UNL     1     103.082 126.981 149.590  0.00  0.00    +0.000 OA
ATOM     33  C   UNL     1     103.267 127.152 148.804  0.00  0.00    +0.000 C 
ATOM     34  C   UNL     1     103.089 127.895 148.491  0.00  0.00    +0.000 C 
ENDBRANCH  31  33
ENDBRANCH  30  31
ENDBRANCH  27  30
ENDBRANCH  20  29
ENDBRANCH   3  20
TORSDOF 9
ENDMDL
MODEL 7
REMARK VINA RESULT:      -7.8      2.317      4.401
REMARK  Name = 42607694
REMARK  9 active torsions:
REMARK  status: ('A' for Active; 'I' for Inactive)
REMARK    1  A    between atoms: O_2  and  C_16
REMARK    2  A    between atoms: O_2  and  C_18
REMARK    3  A    between atoms: O_6  and  C_17
REMARK    4  A    between atoms: O_6  and  C_22
REMARK    5  A    between atoms: C_14  and  C_17
REMARK    6  A    between atoms: C_19  and  C_21
REMARK    7  A    between atoms: C_21  and  C_24
REMARK    8  A    between atoms: C_24  and  C_27
REMARK    9  A    between atoms: C_27  and  C_29
REMARK                            x       y       z     vdW  Elec       q    Type
REMARK                         _______ _______ _______ _____ _____    ______ ____
ROOT
ATOM      1  O   UNL     1     113.599 129.090 135.491  0.00  0.00    +0.000 OA
ATOM      2  O   UNL     1     112.845 131.228 137.231  0.00  0.00    +0.000 OA
ATOM      3  C   UNL     1     112.188 129.147 137.154  0.00  0.00    +0.000 A 
ATOM      4  C   UNL     1     112.635 128.866 136.520  0.00  0.00    +0.000 A 
ATOM      5  C   UNL     1     112.258 129.935 137.390  0.00  0.00    +0.000 A 
ATOM      6  C   UNL     1     113.152 129.372 136.123  0.00  0.00    +0.000 A 
ATOM      7  C   UNL     1     112.775 130.441 136.993  0.00  0.00    +0.000 A 
ATOM      8  C   UNL     1     113.222 130.158 136.360  0.00  0.00    +0.000 A 
ENDROOT
BRANCH   4  10
ATOM      9  O   UNL     1     111.993 127.864 135.729  0.00  0.00    +0.000 OA
ATOM     10  C   UNL     1     112.565 128.079 136.284  0.00  0.00    +0.000 C 
BRANCH  10  11
ATOM     11  C   UNL     1     113.067 127.507 136.604  0.00  0.00    +0.000 C 
BRANCH  11  12
ATOM     12  C   UNL     1     112.997 126.720 136.367  0.00  0.00    +0.000 C 
BRANCH  12  14
ATOM     13  O   UNL     1     114.997 124.430 137.651  0.00  0.00    +0.000 OA
ATOM     14  C   UNL     1     113.497 126.147 136.688  0.00  0.00    +0.000 A 
ATOM     15  C   UNL     1     114.188 125.934 136.291  0.00  0.00    +0.000 A 
ATOM     16  C   UNL     1     113.306 125.787 137.405  0.00  0.00    +0.000 A 
ATOM     17  C   UNL     1     114.689 125.361 136.613  0.00  0.00    +0.000 A 
ATOM     18  C   UNL     1     113.805 125.215 137.726  0.00  0.00    +0.000 A 
ATOM     19  C   UNL     1     114.497 125.002 137.330  0.00  0.00    +0.000 A 
ENDBRANCH  12  14
ENDBRANCH  11  12
ENDBRANCH  10  11
ENDBRANCH   4  10
BRANCH   3  20
ATOM     20  O   UNL     1     111.671 128.642 137.551  0.00  0.00    +0.000 OA
BRANCH  20  29
ATOM     21  O   UNL     1     110.414 129.291 137.341  0.00  0.00    +0.000 OA
ATOM     22  O   UNL     1     108.819 129.803 138.741  0.00  0.00    +0.000 OA
ATOM     23  O   UNL     1     109.905 129.085 139.754  0.00  0.00    +0.000 OA
ATOM     24  O   UNL     1     111.331 128.505 139.160  0.00  0.00    +0.000 OA
ATOM     25  C   UNL     1     109.532 129.513 138.443  0.00  0.00    +0.000 C 
ATOM     26  C   UNL     1     110.075 129.154 138.950  0.00  0.00    +0.000 C 
ATOM     27  C   UNL     1     109.702 129.581 137.638  0.00  0.00    +0.000 C 
ATOM     28  C   UNL     1     110.788 128.864 138.652  0.00  0.00    +0.000 C 
ATOM     29  C   UNL     1     110.957 128.932 137.848  0.00  0.00    +0.000 C 
BRANCH  27  30
ATOM     30  C   UNL     1     109.158 129.940 137.132  0.00  0.00    +0.000 C 
BRANCH  30  31
ATOM     31  O   UNL     1     109.150 129.747 136.330  0.00  0.00    +0.000 OA
BRANCH  31  33
ATOM     32  O   UNL     1     107.854 129.916 135.755  0.00  0.00    +0.000 OA
ATOM     33  C   UNL     1     108.644 130.145 135.815  0.00  0.00    +0.000 C 
ATOM     34  C   UNL     1     108.928 130.771 135.359  0.00  0.00    +0.000 C 
ENDBRANCH  31  33
ENDBRANCH  30  31
ENDBRANCH  27  30
ENDBRANCH  20  29
ENDBRANCH   3  20
TORSDOF 9
ENDMDL
MODEL 8
REMARK VINA RESULT:      -7.8      1.956      3.694
REMARK  Name = 42607694
REMARK  9 active torsions:
REMARK  status: ('A' for Active; 'I' for Inactive)
REMARK    1  A    between atoms: O_2  and  C_16
REMARK    2  A    between atoms: O_2  and  C_18
REMARK    3  A    between atoms: O_6  and  C_17
REMARK    4  A    between atoms: O_6  and  C_22
REMARK    5  A    between atoms: C_14  and  C_17
REMARK    6  A    between atoms: C_19  and  C_21
REMARK    7  A    between atoms: C_21  and  C_24
REMARK    8  A    between atoms: C_24  and  C_27
REMARK    9  A    between atoms: C_27  and  C_29
REMARK                            x       y       z     vdW  Elec       q    Type
REMARK                         _______ _______ _______ _____ _____    ______ ____
ROOT
ATOM      1  O   UNL     1     111.128 125.307 138.818  0.00  0.00    +0.000 OA
ATOM      2  O   UNL     1     109.198 127.415 138.769  0.00  0.00    +0.000 OA
ATOM      3  C   UNL     1     111.368 127.467 139.011  0.00  0.00    +0.000 A 
ATOM      4  C   UNL     1     111.548 126.664 138.969  0.00  0.00    +0.000 A 
ATOM      5  C   UNL     1     110.584 127.718 138.944  0.00  0.00    +0.000 A 
ATOM      6  C   UNL     1     110.946 126.110 138.860  0.00  0.00    +0.000 A 
ATOM      7  C   UNL     1     109.982 127.164 138.836  0.00  0.00    +0.000 A 
ATOM      8  C   UNL     1     110.164 126.360 138.794  0.00  0.00    +0.000 A 
ENDROOT
BRANCH   4  10
ATOM      9  O   UNL     1     112.691 126.375 139.778  0.00  0.00    +0.000 OA
ATOM     10  C   UNL     1     112.332 126.414 139.036  0.00  0.00    +0.000 C 
BRANCH  10  11
ATOM     11  C   UNL     1     112.756 126.204 138.360  0.00  0.00    +0.000 C 
BRANCH  11  12
ATOM     12  C   UNL     1     113.556 126.008 138.420  0.00  0.00    +0.000 C 
BRANCH  12  14
ATOM     13  O   UNL     1     115.216 125.025 135.743  0.00  0.00    +0.000 OA
ATOM     14  C   UNL     1     113.971 125.763 137.750  0.00  0.00    +0.000 A 
ATOM     15  C   UNL     1     114.345 125.028 137.744  0.00  0.00    +0.000 A 
ATOM     16  C   UNL     1     114.012 126.252 137.087  0.00  0.00    +0.000 A 
ATOM     17  C   UNL     1     114.761 124.782 137.074  0.00  0.00    +0.000 A 
ATOM     18  C   UNL     1     114.426 126.006 136.418  0.00  0.00    +0.000 A 
ATOM     19  C   UNL     1     114.801 125.271 136.411  0.00  0.00    +0.000 A 
ENDBRANCH  12  14
ENDBRANCH  11  12
ENDBRANCH  10  11
ENDBRANCH   4  10
BRANCH   3  20
ATOM     20  O   UNL     1     111.970 128.021 139.120  0.00  0.00    +0.000 OA
BRANCH  20  29
ATOM     21  O   UNL     1     111.847 128.832 137.949  0.00  0.00    +0.000 OA
ATOM     22  O   UNL     1     111.744 131.000 137.717  0.00  0.00    +0.000 OA
ATOM     23  O   UNL     1     111.877 130.868 139.356  0.00  0.00    +0.000 OA
ATOM     24  O   UNL     1     111.990 129.378 140.058  0.00  0.00    +0.000 OA
ATOM     25  C   UNL     1     111.800 130.255 138.068  0.00  0.00    +0.000 C 
ATOM     26  C   UNL     1     111.867 130.189 138.887  0.00  0.00    +0.000 C 
ATOM     27  C   UNL     1     111.790 129.576 137.599  0.00  0.00    +0.000 C 
ATOM     28  C   UNL     1     111.923 129.444 139.238  0.00  0.00    +0.000 C 
ATOM     29  C   UNL     1     111.913 128.765 138.769  0.00  0.00    +0.000 C 
BRANCH  27  30
ATOM     30  C   UNL     1     111.723 129.643 136.779  0.00  0.00    +0.000 C 
BRANCH  30  31
ATOM     31  O   UNL     1     111.975 129.027 136.292  0.00  0.00    +0.000 OA
BRANCH  31  33
ATOM     32  O   UNL     1     111.135 129.176 135.147  0.00  0.00    +0.000 OA
ATOM     33  C   UNL     1     111.887 129.084 135.475  0.00  0.00    +0.000 C 
ATOM     34  C   UNL     1     112.549 129.050 134.984  0.00  0.00    +0.000 C 
ENDBRANCH  31  33
ENDBRANCH  30  31
ENDBRANCH  27  30
ENDBRANCH  20  29
ENDBRANCH   3  20
TORSDOF 9
ENDMDL
MODEL 9
REMARK VINA RESULT:      -7.8      1.244      3.873
REMARK  Name = 42607694
REMARK  9 active torsions:
REMARK  status: ('A' for Active; 'I' for Inactive)
REMARK    1  A    between atoms: O_2  and  C_16
REMARK    2  A    between atoms: O_2  and  C_18
REMARK    3  A    between atoms: O_6  and  C_17
REMARK    4  A    between atoms: O_6  and  C_22
REMARK    5  A    between atoms: C_14  and  C_17
REMARK    6  A    between atoms: C_19  and  C_21
REMARK    7  A    between atoms: C_21  and  C_24
REMARK    8  A    between atoms: C_24  and  C_27
REMARK    9  A    between atoms: C_27  and  C_29
REMARK                            x       y       z     vdW  Elec       q    Type
REMARK                         _______ _______ _______ _____ _____    ______ ____
ROOT
ATOM      1  O   UNL     1     114.645 125.785 138.633  0.00  0.00    +0.000 OA
ATOM      2  O   UNL     1     114.271 124.625 136.048  0.00  0.00    +0.000 OA
ATOM      3  C   UNL     1     112.867 125.643 137.376  0.00  0.00    +0.000 A 
ATOM      4  C   UNL     1     113.359 125.823 138.013  0.00  0.00    +0.000 A 
ATOM      5  C   UNL     1     113.172 125.243 136.720  0.00  0.00    +0.000 A 
ATOM      6  C   UNL     1     114.154 125.605 137.996  0.00  0.00    +0.000 A 
ATOM      7  C   UNL     1     113.967 125.024 136.704  0.00  0.00    +0.000 A 
ATOM      8  C   UNL     1     114.458 125.206 137.342  0.00  0.00    +0.000 A 
ENDROOT
BRANCH   4  10
ATOM      9  O   UNL     1     112.588 125.821 139.216  0.00  0.00    +0.000 OA
ATOM     10  C   UNL     1     113.054 126.223 138.667  0.00  0.00    +0.000 C 
BRANCH  10  11
ATOM     11  C   UNL     1     113.216 127.026 138.772  0.00  0.00    +0.000 C 
BRANCH  11  12
ATOM     12  C   UNL     1     112.905 127.427 139.422  0.00  0.00    +0.000 C 
BRANCH  12  14
ATOM     13  O   UNL     1     113.518 130.645 139.819  0.00  0.00    +0.000 OA
ATOM     14  C   UNL     1     113.059 128.232 139.522  0.00  0.00    +0.000 A 
ATOM     15  C   UNL     1     112.665 128.787 139.055  0.00  0.00    +0.000 A 
ATOM     16  C   UNL     1     113.605 128.481 140.087  0.00  0.00    +0.000 A 
ATOM     17  C   UNL     1     112.819 129.592 139.155  0.00  0.00    +0.000 A 
ATOM     18  C   UNL     1     113.758 129.285 140.186  0.00  0.00    +0.000 A 
ATOM     19  C   UNL     1     113.365 129.841 139.720  0.00  0.00    +0.000 A 
ENDBRANCH  12  14
ENDBRANCH  11  12
ENDBRANCH  10  11
ENDBRANCH   4  10
BRANCH   3  20
ATOM     20  O   UNL     1     112.072 125.862 137.393  0.00  0.00    +0.000 OA
BRANCH  20  29
ATOM     21  O   UNL     1     111.937 126.781 136.306  0.00  0.00    +0.000 OA
ATOM     22  O   UNL     1     110.560 126.799 134.612  0.00  0.00    +0.000 OA
ATOM     23  O   UNL     1     110.074 125.430 135.394  0.00  0.00    +0.000 OA
ATOM     24  O   UNL     1     110.830 124.961 136.785  0.00  0.00    +0.000 OA
ATOM     25  C   UNL     1     110.939 126.565 135.308  0.00  0.00    +0.000 C 
ATOM     26  C   UNL     1     110.695 125.881 135.698  0.00  0.00    +0.000 C 
ATOM     27  C   UNL     1     111.560 127.015 135.611  0.00  0.00    +0.000 C 
ATOM     28  C   UNL     1     111.073 125.646 136.394  0.00  0.00    +0.000 C 
ATOM     29  C   UNL     1     111.694 126.096 136.697  0.00  0.00    +0.000 C 
BRANCH  27  30
ATOM     30  C   UNL     1     111.802 127.700 135.220  0.00  0.00    +0.000 C 
BRANCH  30  31
ATOM     31  O   UNL     1     112.203 128.291 135.631  0.00  0.00    +0.000 OA
BRANCH  31  33
ATOM     32  O   UNL     1     112.070 129.419 134.765  0.00  0.00    +0.000 OA
ATOM     33  C   UNL     1     112.543 128.921 135.222  0.00  0.00    +0.000 C 
ATOM     34  C   UNL     1     113.356 129.053 135.268  0.00  0.00    +0.000 C 
ENDBRANCH  31  33
ENDBRANCH  30  31
ENDBRANCH  27  30
ENDBRANCH  20  29
ENDBRANCH   3  20
TORSDOF 9
ENDMDL
MODEL 10
REMARK VINA RESULT:      -7.8      1.988      3.578
REMARK  Name = 42607694
REMARK  9 active torsions:
REMARK  status: ('A' for Active; 'I' for Inactive)
REMARK    1  A    between atoms: O_2  and  C_16
REMARK    2  A    between atoms: O_2  and  C_18
REMARK    3  A    between atoms: O_6  and  C_17
REMARK    4  A    between atoms: O_6  and  C_22
REMARK    5  A    between atoms: C_14  and  C_17
REMARK    6  A    between atoms: C_19  and  C_21
REMARK    7  A    between atoms: C_21  and  C_24
REMARK    8  A    between atoms: C_24  and  C_27
REMARK    9  A    between atoms: C_27  and  C_29
REMARK                            x       y       z     vdW  Elec       q    Type
REMARK                         _______ _______ _______ _____ _____    ______ ____
ROOT
ATOM      1  O   UNL     1     114.745 126.361 135.788  0.00  0.00    +0.000 OA
ATOM      2  O   UNL     1     114.585 124.377 137.839  0.00  0.00    +0.000 OA
ATOM      3  C   UNL     1     113.242 126.023 137.334  0.00  0.00    +0.000 A 
ATOM      4  C   UNL     1     113.638 126.355 136.691  0.00  0.00    +0.000 A 
ATOM      5  C   UNL     1     113.558 125.363 137.717  0.00  0.00    +0.000 A 
ATOM      6  C   UNL     1     114.349 126.028 136.431  0.00  0.00    +0.000 A 
ATOM      7  C   UNL     1     114.269 125.037 137.456  0.00  0.00    +0.000 A 
ATOM      8  C   UNL     1     114.665 125.370 136.813  0.00  0.00    +0.000 A 
ENDROOT
BRANCH   4  10
ATOM      9  O   UNL     1     112.689 126.926 135.788  0.00  0.00    +0.000 OA
ATOM     10  C   UNL     1     113.322 127.015 136.310  0.00  0.00    +0.000 C 
BRANCH  10  11
ATOM     11  C   UNL     1     113.640 127.764 136.450  0.00  0.00    +0.000 C 
BRANCH  11  12
ATOM     12  C   UNL     1     113.316 128.425 136.077  0.00  0.00    +0.000 C 
BRANCH  12  14
ATOM     13  O   UNL     1     114.550 131.425 136.679  0.00  0.00    +0.000 OA
ATOM     14  C   UNL     1     113.625 129.175 136.228  0.00  0.00    +0.000 A 
ATOM     15  C   UNL     1     114.126 129.532 135.679  0.00  0.00    +0.000 A 
ATOM     16  C   UNL     1     113.432 129.568 136.928  0.00  0.00    +0.000 A 
ATOM     17  C   UNL     1     114.434 130.283 135.829  0.00  0.00    +0.000 A 
ATOM     18  C   UNL     1     113.740 130.317 137.078  0.00  0.00    +0.000 A 
ATOM     19  C   UNL     1     114.242 130.676 136.529  0.00  0.00    +0.000 A 
ENDBRANCH  12  14
ENDBRANCH  11  12
ENDBRANCH  10  11
ENDBRANCH   4  10
BRANCH   3  20
ATOM     20  O   UNL     1     112.531 126.350 137.595  0.00  0.00    +0.000 OA
BRANCH  20  29
ATOM     21  O   UNL     1     112.867 126.700 138.940  0.00  0.00    +0.000 OA
ATOM     22  O   UNL     1     111.801 126.357 140.814  0.00  0.00    +0.000 OA
ATOM     23  O   UNL     1     110.765 125.663 139.735  0.00  0.00    +0.000 OA
ATOM     24  O   UNL     1     111.129 125.659 138.124  0.00  0.00    +0.000 OA
ATOM     25  C   UNL     1     111.984 126.356 140.009  0.00  0.00    +0.000 C 
ATOM     26  C   UNL     1     111.465 126.008 139.470  0.00  0.00    +0.000 C 
ATOM     27  C   UNL     1     112.685 126.701 139.744  0.00  0.00    +0.000 C 
ATOM     28  C   UNL     1     111.648 126.007 138.665  0.00  0.00    +0.000 C 
ATOM     29  C   UNL     1     112.349 126.352 138.400  0.00  0.00    +0.000 C 
BRANCH  27  30
ATOM     30  C   UNL     1     113.203 127.049 140.285  0.00  0.00    +0.000 C 
BRANCH  30  31
ATOM     31  O   UNL     1     113.710 127.652 140.042  0.00  0.00    +0.000 OA
BRANCH  31  33
ATOM     32  O   UNL     1     114.800 127.478 140.948  0.00  0.00    +0.000 OA
ATOM     33  C   UNL     1     114.255 127.970 140.572  0.00  0.00    +0.000 C 
ATOM     34  C   UNL     1     114.257 128.781 140.726  0.00  0.00    +0.000 C 
ENDBRANCH  31  33
ENDBRANCH  30  31
ENDBRANCH  27  30
ENDBRANCH  20  29
ENDBRANCH   3  20
TORSDOF 9
ENDMDL
