MODEL 1
REMARK VINA RESULT:      -8.5      0.000      0.000
REMARK  Name = 131752792
REMARK  3 active torsions:
REMARK  status: ('A' for Active; 'I' for Inactive)
REMARK    1  A    between atoms: O_5  and  C_18
REMARK    2  A    between atoms: O_7  and  C_22
REMARK    3  A    between atoms: C_8  and  C_12
REMARK                            x       y       z     vdW  Elec       q    Type
REMARK                         _______ _______ _______ _____ _____    ______ ____
ROOT
ATOM      1  O   UNL     1     104.849 124.314 147.280  0.00  0.00    +0.000 OA
ATOM      2  O   UNL     1     104.505 124.607 145.144  0.00  0.00    +0.000 OA
ATOM      3  O   UNL     1     106.038 125.198 145.297  0.00  0.00    +0.000 OA
ATOM      4  O   UNL     1     107.199 125.507 146.094  0.00  0.00    +0.000 OA
ATOM      5  O   UNL     1     107.156 124.912 148.953  0.00  0.00    +0.000 OA
ATOM      6  C   UNL     1     104.478 124.313 146.542  0.00  0.00    +0.000 C 
ATOM      7  C   UNL     1     104.874 124.607 145.881  0.00  0.00    +0.000 C 
ATOM      8  C   UNL     1     106.011 124.904 146.695  0.00  0.00    +0.000 A 
ATOM      9  C   UNL     1     105.641 124.903 145.958  0.00  0.00    +0.000 C 
ATOM     10  C   UNL     1     105.615 124.610 147.356  0.00  0.00    +0.000 A 
ATOM     11  C   UNL     1     106.810 125.215 146.761  0.00  0.00    +0.000 A 
ATOM     12  C   UNL     1     105.990 124.606 148.129  0.00  0.00    +0.000 A 
ATOM     13  C   UNL     1     107.201 125.219 147.526  0.00  0.00    +0.000 A 
ATOM     14  C   UNL     1     106.788 124.912 148.215  0.00  0.00    +0.000 A 
ENDROOT
BRANCH   6  15
ATOM     15  C   UNL     1     103.712 124.018 146.466  0.00  0.00    +0.000 A 
ATOM     16  C   UNL     1     103.588 123.269 146.142  0.00  0.00    +0.000 A 
ATOM     17  C   UNL     1     103.069 124.471 146.714  0.00  0.00    +0.000 A 
ATOM     18  C   UNL     1     102.822 122.974 146.065  0.00  0.00    +0.000 A 
ATOM     19  C   UNL     1     102.302 124.176 146.638  0.00  0.00    +0.000 A 
ATOM     20  C   UNL     1     102.179 123.427 146.313  0.00  0.00    +0.000 A 
BRANCH  20  21
ATOM     21  O   UNL     1     101.412 123.132 146.237  0.00  0.00    +0.000 OA
ATOM     22  C   UNL     1     101.057 123.093 145.494  0.00  0.00    +0.000 C 
ENDBRANCH  20  21
ENDBRANCH   6  15
BRANCH  13  23
ATOM     23  O   UNL     1     107.967 125.515 147.599  0.00  0.00    +0.000 OA
ATOM     24  C   UNL     1     108.590 125.006 147.785  0.00  0.00    +0.000 C 
ENDBRANCH  13  23
TORSDOF 3
ENDMDL
MODEL 2
REMARK VINA RESULT:      -8.0      6.330      7.302
REMARK  Name = 131752792
REMARK  3 active torsions:
REMARK  status: ('A' for Active; 'I' for Inactive)
REMARK    1  A    between atoms: O_5  and  C_18
REMARK    2  A    between atoms: O_7  and  C_22
REMARK    3  A    between atoms: C_8  and  C_12
REMARK                            x       y       z     vdW  Elec       q    Type
REMARK                         _______ _______ _______ _____ _____    ______ ____
ROOT
ATOM      1  O   UNL     1     104.586 124.849 139.576  0.00  0.00    +0.000 OA
ATOM      2  O   UNL     1     105.102 122.739 139.358  0.00  0.00    +0.000 OA
ATOM      3  O   UNL     1     106.113 123.182 140.585  0.00  0.00    +0.000 OA
ATOM      4  O   UNL     1     106.637 124.169 141.496  0.00  0.00    +0.000 OA
ATOM      5  O   UNL     1     105.596 126.896 141.384  0.00  0.00    +0.000 OA
ATOM      6  C   UNL     1     104.590 124.072 139.298  0.00  0.00    +0.000 C 
ATOM      7  C   UNL     1     105.098 123.516 139.635  0.00  0.00    +0.000 C 
ATOM      8  C   UNL     1     105.600 124.514 140.526  0.00  0.00    +0.000 A 
ATOM      9  C   UNL     1     105.604 123.737 140.249  0.00  0.00    +0.000 C 
ATOM     10  C   UNL     1     105.091 125.070 140.190  0.00  0.00    +0.000 A 
ATOM     11  C   UNL     1     106.131 124.732 141.166  0.00  0.00    +0.000 A 
ATOM     12  C   UNL     1     105.078 125.883 140.470  0.00  0.00    +0.000 A 
ATOM     13  C   UNL     1     106.132 125.539 141.459  0.00  0.00    +0.000 A 
ATOM     14  C   UNL     1     105.602 126.119 141.109  0.00  0.00    +0.000 A 
ENDROOT
BRANCH   6  15
ATOM     15  C   UNL     1     104.085 123.851 138.685  0.00  0.00    +0.000 A 
ATOM     16  C   UNL     1     103.279 123.746 138.830  0.00  0.00    +0.000 A 
ATOM     17  C   UNL     1     104.385 123.733 137.926  0.00  0.00    +0.000 A 
ATOM     18  C   UNL     1     102.775 123.525 138.217  0.00  0.00    +0.000 A 
ATOM     19  C   UNL     1     103.880 123.512 137.312  0.00  0.00    +0.000 A 
ATOM     20  C   UNL     1     103.075 123.408 137.458  0.00  0.00    +0.000 A 
BRANCH  20  21
ATOM     21  O   UNL     1     102.570 123.186 136.843  0.00  0.00    +0.000 OA
ATOM     22  C   UNL     1     102.881 122.887 136.141  0.00  0.00    +0.000 C 
ENDBRANCH  20  21
ENDBRANCH   6  15
BRANCH  13  23
ATOM     23  O   UNL     1     106.638 125.758 142.073  0.00  0.00    +0.000 OA
ATOM     24  C   UNL     1     106.349 125.823 142.843  0.00  0.00    +0.000 C 
ENDBRANCH  13  23
TORSDOF 3
ENDMDL
MODEL 3
REMARK VINA RESULT:      -8.0      7.406      8.288
REMARK  Name = 131752792
REMARK  3 active torsions:
REMARK  status: ('A' for Active; 'I' for Inactive)
REMARK    1  A    between atoms: O_5  and  C_18
REMARK    2  A    between atoms: O_7  and  C_22
REMARK    3  A    between atoms: C_8  and  C_12
REMARK                            x       y       z     vdW  Elec       q    Type
REMARK                         _______ _______ _______ _____ _____    ______ ____
ROOT
ATOM      1  O   UNL     1     103.160 130.360 142.295  0.00  0.00    +0.000 OA
ATOM      2  O   UNL     1     102.246 130.398 140.313  0.00  0.00    +0.000 OA
ATOM      3  O   UNL     1     103.154 129.025 140.211  0.00  0.00    +0.000 OA
ATOM      4  O   UNL     1     104.073 128.072 140.784  0.00  0.00    +0.000 OA
ATOM      5  O   UNL     1     105.015 128.478 143.519  0.00  0.00    +0.000 OA
ATOM      6  C   UNL     1     102.703 130.602 141.652  0.00  0.00    +0.000 C 
ATOM      7  C   UNL     1     102.701 130.157 140.957  0.00  0.00    +0.000 C 
ATOM      8  C   UNL     1     103.612 129.229 141.549  0.00  0.00    +0.000 A 
ATOM      9  C   UNL     1     103.156 129.470 140.905  0.00  0.00    +0.000 C 
ATOM     10  C   UNL     1     103.614 129.673 142.244  0.00  0.00    +0.000 A 
ATOM     11  C   UNL     1     104.081 128.511 141.483  0.00  0.00    +0.000 A 
ATOM     12  C   UNL     1     104.085 129.432 142.921  0.00  0.00    +0.000 A 
ATOM     13  C   UNL     1     104.558 128.254 142.149  0.00  0.00    +0.000 A 
ATOM     14  C   UNL     1     104.560 128.718 142.874  0.00  0.00    +0.000 A 
ENDROOT
BRANCH   6  15
ATOM     15  C   UNL     1     102.249 131.288 141.703  0.00  0.00    +0.000 A 
ATOM     16  C   UNL     1     102.576 132.016 141.492  0.00  0.00    +0.000 A 
ATOM     17  C   UNL     1     101.468 131.247 141.964  0.00  0.00    +0.000 A 
ATOM     18  C   UNL     1     102.122 132.703 141.543  0.00  0.00    +0.000 A 
ATOM     19  C   UNL     1     101.013 131.934 142.015  0.00  0.00    +0.000 A 
ATOM     20  C   UNL     1     101.340 132.662 141.805  0.00  0.00    +0.000 A 
BRANCH  20  21
ATOM     21  O   UNL     1     100.885 133.349 141.856  0.00  0.00    +0.000 OA
ATOM     22  C   UNL     1     101.229 134.083 141.709  0.00  0.00    +0.000 C 
ENDBRANCH  20  21
ENDBRANCH   6  15
BRANCH  13  23
ATOM     23  O   UNL     1     105.011 127.567 142.095  0.00  0.00    +0.000 OA
ATOM     24  C   UNL     1     105.830 127.618 142.007  0.00  0.00    +0.000 C 
ENDBRANCH  13  23
TORSDOF 3
ENDMDL
MODEL 4
REMARK VINA RESULT:      -7.8      0.986      4.589
REMARK  Name = 131752792
REMARK  3 active torsions:
REMARK  status: ('A' for Active; 'I' for Inactive)
REMARK    1  A    between atoms: O_5  and  C_18
REMARK    2  A    between atoms: O_7  and  C_22
REMARK    3  A    between atoms: C_8  and  C_12
REMARK                            x       y       z     vdW  Elec       q    Type
REMARK                         _______ _______ _______ _____ _____    ______ ____
ROOT
ATOM      1  O   UNL     1     104.201 124.885 147.554  0.00  0.00    +0.000 OA
ATOM      2  O   UNL     1     105.208 124.106 145.780  0.00  0.00    +0.000 OA
ATOM      3  O   UNL     1     103.645 123.682 145.463  0.00  0.00    +0.000 OA
ATOM      4  O   UNL     1     102.249 123.644 145.822  0.00  0.00    +0.000 OA
ATOM      5  O   UNL     1     101.399 124.846 148.345  0.00  0.00    +0.000 OA
ATOM      6  C   UNL     1     104.798 124.696 147.015  0.00  0.00    +0.000 C 
ATOM      7  C   UNL     1     104.612 124.295 146.319  0.00  0.00    +0.000 C 
ATOM      8  C   UNL     1     103.235 124.272 146.699  0.00  0.00    +0.000 A 
ATOM      9  C   UNL     1     103.830 124.083 146.160  0.00  0.00    +0.000 C 
ATOM     10  C   UNL     1     103.420 124.673 147.396  0.00  0.00    +0.000 A 
ATOM     11  C   UNL     1     102.424 124.045 146.522  0.00  0.00    +0.000 A 
ATOM     12  C   UNL     1     102.808 124.875 147.964  0.00  0.00    +0.000 A 
ATOM     13  C   UNL     1     101.800 124.238 147.079  0.00  0.00    +0.000 A 
ATOM     14  C   UNL     1     101.993 124.656 147.805  0.00  0.00    +0.000 A 
ENDROOT
BRANCH   6  15
ATOM     15  C   UNL     1     105.578 124.908 147.173  0.00  0.00    +0.000 A 
ATOM     16  C   UNL     1     105.915 125.559 146.793  0.00  0.00    +0.000 A 
ATOM     17  C   UNL     1     106.024 124.470 147.712  0.00  0.00    +0.000 A 
ATOM     18  C   UNL     1     106.696 125.771 146.951  0.00  0.00    +0.000 A 
ATOM     19  C   UNL     1     106.806 124.683 147.871  0.00  0.00    +0.000 A 
ATOM     20  C   UNL     1     107.141 125.333 147.490  0.00  0.00    +0.000 A 
BRANCH  20  21
ATOM     21  O   UNL     1     107.923 125.545 147.648  0.00  0.00    +0.000 OA
ATOM     22  C   UNL     1     108.428 125.011 148.021  0.00  0.00    +0.000 C 
ENDBRANCH  20  21
ENDBRANCH   6  15
BRANCH  13  23
ATOM     23  O   UNL     1     101.019 124.025 146.918  0.00  0.00    +0.000 OA
ATOM     24  C   UNL     1     100.711 123.325 147.227  0.00  0.00    +0.000 C 
ENDBRANCH  13  23
TORSDOF 3
ENDMDL
MODEL 5
REMARK VINA RESULT:      -7.8     11.963     12.881
REMARK  Name = 131752792
REMARK  3 active torsions:
REMARK  status: ('A' for Active; 'I' for Inactive)
REMARK    1  A    between atoms: O_5  and  C_18
REMARK    2  A    between atoms: O_7  and  C_22
REMARK    3  A    between atoms: C_8  and  C_12
REMARK                            x       y       z     vdW  Elec       q    Type
REMARK                         _______ _______ _______ _____ _____    ______ ____
ROOT
ATOM      1  O   UNL     1     110.330 128.120 135.866  0.00  0.00    +0.000 OA
ATOM      2  O   UNL     1     108.558 126.849 135.764  0.00  0.00    +0.000 OA
ATOM      3  O   UNL     1     107.868 128.348 135.757  0.00  0.00    +0.000 OA
ATOM      4  O   UNL     1     107.971 129.787 135.785  0.00  0.00    +0.000 OA
ATOM      5  O   UNL     1     110.616 131.017 135.927  0.00  0.00    +0.000 OA
ATOM      6  C   UNL     1     109.855 127.446 135.833  0.00  0.00    +0.000 C 
ATOM      7  C   UNL     1     109.034 127.522 135.797  0.00  0.00    +0.000 C 
ATOM      8  C   UNL     1     109.165 128.945 135.826  0.00  0.00    +0.000 A 
ATOM      9  C   UNL     1     108.689 128.272 135.793  0.00  0.00    +0.000 C 
ATOM     10  C   UNL     1     109.986 128.868 135.863  0.00  0.00    +0.000 A 
ATOM     11  C   UNL     1     108.793 129.720 135.822  0.00  0.00    +0.000 A 
ATOM     12  C   UNL     1     110.492 129.563 135.897  0.00  0.00    +0.000 A 
ATOM     13  C   UNL     1     109.283 130.425 135.856  0.00  0.00    +0.000 A 
ATOM     14  C   UNL     1     110.138 130.345 135.894  0.00  0.00    +0.000 A 
ENDROOT
BRANCH   6  15
ATOM     15  C   UNL     1     110.199 126.697 135.837  0.00  0.00    +0.000 A 
ATOM     16  C   UNL     1     110.404 126.340 136.552  0.00  0.00    +0.000 A 
ATOM     17  C   UNL     1     110.339 126.304 135.125  0.00  0.00    +0.000 A 
ATOM     18  C   UNL     1     110.748 125.591 136.556  0.00  0.00    +0.000 A 
ATOM     19  C   UNL     1     110.684 125.554 135.129  0.00  0.00    +0.000 A 
ATOM     20  C   UNL     1     110.889 125.198 135.844  0.00  0.00    +0.000 A 
BRANCH  20  21
ATOM     21  O   UNL     1     111.234 124.448 135.847  0.00  0.00    +0.000 OA
ATOM     22  C   UNL     1     111.769 124.243 136.439  0.00  0.00    +0.000 C 
ENDBRANCH  20  21
ENDBRANCH   6  15
BRANCH  13  23
ATOM     23  O   UNL     1     108.935 131.173 135.852  0.00  0.00    +0.000 OA
ATOM     24  C   UNL     1     108.897 131.606 135.151  0.00  0.00    +0.000 C 
ENDBRANCH  13  23
TORSDOF 3
ENDMDL
MODEL 6
REMARK VINA RESULT:      -7.8     12.216     13.762
REMARK  Name = 131752792
REMARK  3 active torsions:
REMARK  status: ('A' for Active; 'I' for Inactive)
REMARK    1  A    between atoms: O_5  and  C_18
REMARK    2  A    between atoms: O_7  and  C_22
REMARK    3  A    between atoms: C_8  and  C_12
REMARK                            x       y       z     vdW  Elec       q    Type
REMARK                         _______ _______ _______ _____ _____    ______ ____
ROOT
ATOM      1  O   UNL     1     113.448 126.758 136.624  0.00  0.00    +0.000 OA
ATOM      2  O   UNL     1     111.762 127.907 135.848  0.00  0.00    +0.000 OA
ATOM      3  O   UNL     1     111.146 126.377 135.799  0.00  0.00    +0.000 OA
ATOM      4  O   UNL     1     111.271 124.957 136.017  0.00  0.00    +0.000 OA
ATOM      5  O   UNL     1     113.774 123.903 137.092  0.00  0.00    +0.000 OA
ATOM      6  C   UNL     1     112.989 127.397 136.374  0.00  0.00    +0.000 C 
ATOM      7  C   UNL     1     112.222 127.270 136.098  0.00  0.00    +0.000 C 
ATOM      8  C   UNL     1     112.373 125.867 136.325  0.00  0.00    +0.000 A 
ATOM      9  C   UNL     1     111.913 126.504 136.074  0.00  0.00    +0.000 C 
ATOM     10  C   UNL     1     113.140 125.994 136.600  0.00  0.00    +0.000 A 
ATOM     11  C   UNL     1     112.039 125.074 136.294  0.00  0.00    +0.000 A 
ATOM     12  C   UNL     1     113.628 125.337 136.864  0.00  0.00    +0.000 A 
ATOM     13  C   UNL     1     112.513 124.406 136.554  0.00  0.00    +0.000 A 
ATOM     14  C   UNL     1     113.312 124.539 136.841  0.00  0.00    +0.000 A 
ENDROOT
BRANCH   6  15
ATOM     15  C   UNL     1     113.297 128.161 136.398  0.00  0.00    +0.000 A 
ATOM     16  C   UNL     1     113.733 128.452 135.761  0.00  0.00    +0.000 A 
ATOM     17  C   UNL     1     113.169 128.636 137.061  0.00  0.00    +0.000 A 
ATOM     18  C   UNL     1     114.040 129.216 135.785  0.00  0.00    +0.000 A 
ATOM     19  C   UNL     1     113.477 129.402 137.085  0.00  0.00    +0.000 A 
ATOM     20  C   UNL     1     113.913 129.691 136.447  0.00  0.00    +0.000 A 
BRANCH  20  21
ATOM     21  O   UNL     1     114.221 130.457 136.472  0.00  0.00    +0.000 OA
ATOM     22  C   UNL     1     113.827 131.046 136.893  0.00  0.00    +0.000 C 
ENDBRANCH  20  21
ENDBRANCH   6  15
BRANCH  13  23
ATOM     23  O   UNL     1     112.202 123.643 136.528  0.00  0.00    +0.000 OA
ATOM     24  C   UNL     1     111.904 123.295 137.215  0.00  0.00    +0.000 C 
ENDBRANCH  13  23
TORSDOF 3
ENDMDL
MODEL 7
REMARK VINA RESULT:      -7.7      0.902      1.772
REMARK  Name = 131752792
REMARK  3 active torsions:
REMARK  status: ('A' for Active; 'I' for Inactive)
REMARK    1  A    between atoms: O_5  and  C_18
REMARK    2  A    between atoms: O_7  and  C_22
REMARK    3  A    between atoms: C_8  and  C_12
REMARK                            x       y       z     vdW  Elec       q    Type
REMARK                         _______ _______ _______ _____ _____    ______ ____
ROOT
ATOM      1  O   UNL     1     104.328 124.617 146.155  0.00  0.00    +0.000 OA
ATOM      2  O   UNL     1     103.612 124.053 148.138  0.00  0.00    +0.000 OA
ATOM      3  O   UNL     1     105.095 124.677 148.507  0.00  0.00    +0.000 OA
ATOM      4  O   UNL     1     106.342 125.287 148.116  0.00  0.00    +0.000 OA
ATOM      5  O   UNL     1     106.822 125.847 145.289  0.00  0.00    +0.000 OA
ATOM      6  C   UNL     1     103.842 124.325 146.754  0.00  0.00    +0.000 C 
ATOM      7  C   UNL     1     104.097 124.345 147.538  0.00  0.00    +0.000 C 
ATOM      8  C   UNL     1     105.324 124.949 147.123  0.00  0.00    +0.000 A 
ATOM      9  C   UNL     1     104.839 124.657 147.723  0.00  0.00    +0.000 C 
ATOM     10  C   UNL     1     105.069 124.929 146.339  0.00  0.00    +0.000 A 
ATOM     11  C   UNL     1     106.095 125.271 147.329  0.00  0.00    +0.000 A 
ATOM     12  C   UNL     1     105.565 125.230 145.705  0.00  0.00    +0.000 A 
ATOM     13  C   UNL     1     106.605 125.576 146.708  0.00  0.00    +0.000 A 
ATOM     14  C   UNL     1     106.338 125.556 145.891  0.00  0.00    +0.000 A 
ENDROOT
BRANCH   6  15
ATOM     15  C   UNL     1     103.101 124.013 146.570  0.00  0.00    +0.000 A 
ATOM     16  C   UNL     1     103.038 123.246 146.273  0.00  0.00    +0.000 A 
ATOM     17  C   UNL     1     102.423 124.468 146.683  0.00  0.00    +0.000 A 
ATOM     18  C   UNL     1     102.297 122.934 146.089  0.00  0.00    +0.000 A 
ATOM     19  C   UNL     1     101.681 124.157 146.498  0.00  0.00    +0.000 A 
ATOM     20  C   UNL     1     101.619 123.389 146.202  0.00  0.00    +0.000 A 
BRANCH  20  21
ATOM     21  O   UNL     1     100.877 123.078 146.017  0.00  0.00    +0.000 OA
ATOM     22  C   UNL     1     100.743 122.741 145.277  0.00  0.00    +0.000 C 
ENDBRANCH  20  21
ENDBRANCH   6  15
BRANCH  13  23
ATOM     23  O   UNL     1     107.345 125.888 146.896  0.00  0.00    +0.000 OA
ATOM     24  C   UNL     1     107.460 126.705 146.903  0.00  0.00    +0.000 C 
ENDBRANCH  13  23
TORSDOF 3
ENDMDL
MODEL 8
REMARK VINA RESULT:      -7.6      1.847      2.221
REMARK  Name = 131752792
REMARK  3 active torsions:
REMARK  status: ('A' for Active; 'I' for Inactive)
REMARK    1  A    between atoms: O_5  and  C_18
REMARK    2  A    between atoms: O_7  and  C_22
REMARK    3  A    between atoms: C_8  and  C_12
REMARK                            x       y       z     vdW  Elec       q    Type
REMARK                         _______ _______ _______ _____ _____    ______ ____
ROOT
ATOM      1  O   UNL     1     103.888 125.084 146.732  0.00  0.00    +0.000 OA
ATOM      2  O   UNL     1     103.575 123.033 146.054  0.00  0.00    +0.000 OA
ATOM      3  O   UNL     1     104.935 123.436 145.212  0.00  0.00    +0.000 OA
ATOM      4  O   UNL     1     105.968 124.378 144.856  0.00  0.00    +0.000 OA
ATOM      5  O   UNL     1     105.940 127.038 146.061  0.00  0.00    +0.000 OA
ATOM      6  C   UNL     1     103.556 124.333 146.647  0.00  0.00    +0.000 C 
ATOM      7  C   UNL     1     103.905 123.784 146.141  0.00  0.00    +0.000 C 
ATOM      8  C   UNL     1     104.917 124.736 145.805  0.00  0.00    +0.000 A 
ATOM      9  C   UNL     1     104.586 123.985 145.719  0.00  0.00    +0.000 C 
ATOM     10  C   UNL     1     104.567 125.286 146.312  0.00  0.00    +0.000 A 
ATOM     11  C   UNL     1     105.626 124.934 145.360  0.00  0.00    +0.000 A 
ATOM     12  C   UNL     1     104.903 126.071 146.409  0.00  0.00    +0.000 A 
ATOM     13  C   UNL     1     105.975 125.714 145.446  0.00  0.00    +0.000 A 
ATOM     14  C   UNL     1     105.611 126.287 145.974  0.00  0.00    +0.000 A 
ENDROOT
BRANCH   6  15
ATOM     15  C   UNL     1     102.876 124.132 147.068  0.00  0.00    +0.000 A 
ATOM     16  C   UNL     1     102.937 123.844 147.839  0.00  0.00    +0.000 A 
ATOM     17  C   UNL     1     102.134 124.219 146.718  0.00  0.00    +0.000 A 
ATOM     18  C   UNL     1     102.258 123.643 148.259  0.00  0.00    +0.000 A 
ATOM     19  C   UNL     1     101.453 124.017 147.139  0.00  0.00    +0.000 A 
ATOM     20  C   UNL     1     101.515 123.729 147.909  0.00  0.00    +0.000 A 
BRANCH  20  21
ATOM     21  O   UNL     1     100.834 123.527 148.330  0.00  0.00    +0.000 OA
ATOM     22  C   UNL     1     100.714 122.748 148.571  0.00  0.00    +0.000 C 
ENDBRANCH  20  21
ENDBRANCH   6  15
BRANCH  13  23
ATOM     23  O   UNL     1     106.656 125.913 145.023  0.00  0.00    +0.000 OA
ATOM     24  C   UNL     1     106.600 126.390 144.353  0.00  0.00    +0.000 C 
ENDBRANCH  13  23
TORSDOF 3
ENDMDL
MODEL 9
REMARK VINA RESULT:      -7.5     11.741     12.916
REMARK  Name = 131752792
REMARK  3 active torsions:
REMARK  status: ('A' for Active; 'I' for Inactive)
REMARK    1  A    between atoms: O_5  and  C_18
REMARK    2  A    between atoms: O_7  and  C_22
REMARK    3  A    between atoms: C_8  and  C_12
REMARK                            x       y       z     vdW  Elec       q    Type
REMARK                         _______ _______ _______ _____ _____    ______ ____
ROOT
ATOM      1  O   UNL     1     110.023 126.993 136.171  0.00  0.00    +0.000 OA
ATOM      2  O   UNL     1     112.152 127.067 135.694  0.00  0.00    +0.000 OA
ATOM      3  O   UNL     1     111.662 128.549 135.161  0.00  0.00    +0.000 OA
ATOM      4  O   UNL     1     110.635 129.540 134.951  0.00  0.00    +0.000 OA
ATOM      5  O   UNL     1     107.898 128.945 135.779  0.00  0.00    +0.000 OA
ATOM      6  C   UNL     1     110.814 126.770 136.101  0.00  0.00    +0.000 C 
ATOM      7  C   UNL     1     111.361 127.289 135.764  0.00  0.00    +0.000 C 
ATOM      8  C   UNL     1     110.324 128.253 135.568  0.00  0.00    +0.000 A 
ATOM      9  C   UNL     1     111.115 128.031 135.497  0.00  0.00    +0.000 C 
ATOM     10  C   UNL     1     109.778 127.734 135.905  0.00  0.00    +0.000 A 
ATOM     11  C   UNL     1     110.081 129.028 135.286  0.00  0.00    +0.000 A 
ATOM     12  C   UNL     1     108.951 127.955 135.983  0.00  0.00    +0.000 A 
ATOM     13  C   UNL     1     109.259 129.266 135.357  0.00  0.00    +0.000 A 
ATOM     14  C   UNL     1     108.690 128.725 135.708  0.00  0.00    +0.000 A 
ENDROOT
BRANCH   6  15
ATOM     15  C   UNL     1     111.059 126.029 136.367  0.00  0.00    +0.000 A 
ATOM     16  C   UNL     1     111.302 125.931 137.149  0.00  0.00    +0.000 A 
ATOM     17  C   UNL     1     111.062 125.386 135.851  0.00  0.00    +0.000 A 
ATOM     18  C   UNL     1     111.547 125.190 137.416  0.00  0.00    +0.000 A 
ATOM     19  C   UNL     1     111.308 124.644 136.117  0.00  0.00    +0.000 A 
ATOM     20  C   UNL     1     111.550 124.546 136.899  0.00  0.00    +0.000 A 
BRANCH  20  21
ATOM     21  O   UNL     1     111.796 123.804 137.166  0.00  0.00    +0.000 OA
ATOM     22  C   UNL     1     112.517 123.495 136.916  0.00  0.00    +0.000 C 
ENDBRANCH  20  21
ENDBRANCH   6  15
BRANCH  13  23
ATOM     23  O   UNL     1     109.017 130.008 135.090  0.00  0.00    +0.000 OA
ATOM     24  C   UNL     1     108.897 130.621 135.628  0.00  0.00    +0.000 C 
ENDBRANCH  13  23
TORSDOF 3
ENDMDL
MODEL 10
REMARK VINA RESULT:      -7.5     12.241     13.713
REMARK  Name = 131752792
REMARK  3 active torsions:
REMARK  status: ('A' for Active; 'I' for Inactive)
REMARK    1  A    between atoms: O_5  and  C_18
REMARK    2  A    between atoms: O_7  and  C_22
REMARK    3  A    between atoms: C_8  and  C_12
REMARK                            x       y       z     vdW  Elec       q    Type
REMARK                         _______ _______ _______ _____ _____    ______ ____
ROOT
ATOM      1  O   UNL     1     113.608 127.228 136.134  0.00  0.00    +0.000 OA
ATOM      2  O   UNL     1     112.589 126.947 138.043  0.00  0.00    +0.000 OA
ATOM      3  O   UNL     1     112.788 128.585 138.034  0.00  0.00    +0.000 OA
ATOM      4  O   UNL     1     113.256 129.797 137.408  0.00  0.00    +0.000 OA
ATOM      5  O   UNL     1     114.578 129.632 134.809  0.00  0.00    +0.000 OA
ATOM      6  C   UNL     1     113.235 126.860 136.772  0.00  0.00    +0.000 C 
ATOM      7  C   UNL     1     112.962 127.313 137.405  0.00  0.00    +0.000 C 
ATOM      8  C   UNL     1     113.435 128.498 136.762  0.00  0.00    +0.000 A 
ATOM      9  C   UNL     1     113.062 128.132 137.401  0.00  0.00    +0.000 C 
ATOM     10  C   UNL     1     113.708 128.046 136.129  0.00  0.00    +0.000 A 
ATOM     11  C   UNL     1     113.532 129.353 136.770  0.00  0.00    +0.000 A 
ATOM     12  C   UNL     1     114.098 128.416 135.458  0.00  0.00    +0.000 A 
ATOM     13  C   UNL     1     113.920 129.740 136.108  0.00  0.00    +0.000 A 
ATOM     14  C   UNL     1     114.205 129.268 135.448  0.00  0.00    +0.000 A 
ENDROOT
BRANCH   6  15
ATOM     15  C   UNL     1     113.135 126.042 136.776  0.00  0.00    +0.000 A 
ATOM     16  C   UNL     1     113.719 125.556 137.099  0.00  0.00    +0.000 A 
ATOM     17  C   UNL     1     112.451 125.708 136.459  0.00  0.00    +0.000 A 
ATOM     18  C   UNL     1     113.619 124.738 137.103  0.00  0.00    +0.000 A 
ATOM     19  C   UNL     1     112.351 124.889 136.463  0.00  0.00    +0.000 A 
ATOM     20  C   UNL     1     112.935 124.404 136.786  0.00  0.00    +0.000 A 
BRANCH  20  21
ATOM     21  O   UNL     1     112.835 123.585 136.791  0.00  0.00    +0.000 OA
ATOM     22  C   UNL     1     112.155 123.254 137.120  0.00  0.00    +0.000 C 
ENDBRANCH  20  21
ENDBRANCH   6  15
BRANCH  13  23
ATOM     23  O   UNL     1     114.019 130.559 136.106  0.00  0.00    +0.000 OA
ATOM     24  C   UNL     1     114.765 130.885 136.237  0.00  0.00    +0.000 C 
ENDBRANCH  13  23
TORSDOF 3
ENDMDL
