MODEL 1
REMARK VINA RESULT:      -7.3      0.000      0.000
REMARK  Name = 389001
REMARK  8 active torsions:
REMARK  status: ('A' for Active; 'I' for Inactive)
REMARK    1  A    between atoms: O_2  and  C_14
REMARK    2  A    between atoms: O_3  and  C_15
REMARK    3  A    between atoms: O_4  and  C_18
REMARK    4  A    between atoms: O_5  and  C_19
REMARK    5  A    between atoms: O_7  and  C_22
REMARK    6  A    between atoms: O_8  and  C_23
REMARK    7  A    between atoms: O_9  and  C_24
REMARK    8  A    between atoms: C_12  and  C_13
REMARK                            x       y       z     vdW  Elec       q    Type
REMARK                         _______ _______ _______ _____ _____    ______ ____
ROOT
ATOM      1  O   UNL     1     113.242 127.359 136.334  0.00  0.00    +0.000 OA
ATOM      2  O   UNL     1     112.347 128.497 138.341  0.00  0.00    +0.000 OA
ATOM      3  C   UNL     1     113.062 128.548 137.106  0.00  0.00    +0.000 A 
ATOM      4  C   UNL     1     113.360 128.169 136.437  0.00  0.00    +0.000 A 
ATOM      5  C   UNL     1     112.825 126.928 136.902  0.00  0.00    +0.000 A 
ATOM      6  C   UNL     1     112.527 127.307 137.571  0.00  0.00    +0.000 A 
ATOM      7  C   UNL     1     113.178 129.392 137.223  0.00  0.00    +0.000 A 
ATOM      8  C   UNL     1     112.645 128.117 137.672  0.00  0.00    +0.000 A 
ATOM      9  C   UNL     1     113.796 128.607 135.839  0.00  0.00    +0.000 A 
ATOM     10  C   UNL     1     113.611 129.845 136.636  0.00  0.00    +0.000 A 
ATOM     11  C   UNL     1     113.922 129.450 135.940  0.00  0.00    +0.000 A 
ENDROOT
BRANCH   5  12
ATOM     12  C   UNL     1     112.708 126.118 136.799  0.00  0.00    +0.000 A 
ATOM     13  C   UNL     1     112.013 125.842 136.450  0.00  0.00    +0.000 A 
ATOM     14  C   UNL     1     113.286 125.583 137.046  0.00  0.00    +0.000 A 
ATOM     15  C   UNL     1     113.168 124.773 136.944  0.00  0.00    +0.000 A 
ATOM     16  C   UNL     1     111.896 125.032 136.348  0.00  0.00    +0.000 A 
ATOM     17  C   UNL     1     112.473 124.497 136.595  0.00  0.00    +0.000 A 
BRANCH  15  18
ATOM     18  O   UNL     1     113.747 124.238 137.191  0.00  0.00    +0.000 OA
ATOM     19  C   UNL     1     114.515 124.500 137.337  0.00  0.00    +0.000 C 
ENDBRANCH  15  18
BRANCH  16  20
ATOM     20  O   UNL     1     111.201 124.756 135.999  0.00  0.00    +0.000 OA
ATOM     21  C   UNL     1     110.777 125.242 135.483  0.00  0.00    +0.000 C 
ENDBRANCH  16  20
BRANCH  17  22
ATOM     22  O   UNL     1     112.357 123.687 136.493  0.00  0.00    +0.000 OA
ATOM     23  C   UNL     1     112.011 123.241 137.095  0.00  0.00    +0.000 C 
ENDBRANCH  17  22
ENDBRANCH   5  12
BRANCH   6  24
ATOM     24  O   UNL     1     112.111 126.876 138.137  0.00  0.00    +0.000 OA
ATOM     25  C   UNL     1     112.203 127.051 138.938  0.00  0.00    +0.000 C 
ENDBRANCH   6  24
BRANCH   7  26
ATOM     26  O   UNL     1     112.876 129.762 137.896  0.00  0.00    +0.000 OA
ATOM     27  C   UNL     1     112.116 130.084 137.883  0.00  0.00    +0.000 C 
ENDBRANCH   7  26
BRANCH  10  28
ATOM     28  O   UNL     1     113.728 130.655 136.741  0.00  0.00    +0.000 OA
ATOM     29  C   UNL     1     114.441 130.934 137.048  0.00  0.00    +0.000 C 
ENDBRANCH  10  28
BRANCH  11  30
ATOM     30  O   UNL     1     114.339 129.879 135.371  0.00  0.00    +0.000 OA
ATOM     31  C   UNL     1     114.518 129.533 134.644  0.00  0.00    +0.000 C 
ENDBRANCH  11  30
TORSDOF 8
ENDMDL
MODEL 2
REMARK VINA RESULT:      -7.3      0.468      1.474
REMARK  Name = 389001
REMARK  8 active torsions:
REMARK  status: ('A' for Active; 'I' for Inactive)
REMARK    1  A    between atoms: O_2  and  C_14
REMARK    2  A    between atoms: O_3  and  C_15
REMARK    3  A    between atoms: O_4  and  C_18
REMARK    4  A    between atoms: O_5  and  C_19
REMARK    5  A    between atoms: O_7  and  C_22
REMARK    6  A    between atoms: O_8  and  C_23
REMARK    7  A    between atoms: O_9  and  C_24
REMARK    8  A    between atoms: C_12  and  C_13
REMARK                            x       y       z     vdW  Elec       q    Type
REMARK                         _______ _______ _______ _____ _____    ______ ____
ROOT
ATOM      1  O   UNL     1     113.338 127.555 136.419  0.00  0.00    +0.000 OA
ATOM      2  O   UNL     1     112.622 128.567 138.561  0.00  0.00    +0.000 OA
ATOM      3  C   UNL     1     113.230 128.694 137.275  0.00  0.00    +0.000 A 
ATOM      4  C   UNL     1     113.469 128.357 136.561  0.00  0.00    +0.000 A 
ATOM      5  C   UNL     1     112.968 127.090 136.992  0.00  0.00    +0.000 A 
ATOM      6  C   UNL     1     112.730 127.427 137.706  0.00  0.00    +0.000 A 
ATOM      7  C   UNL     1     113.361 129.529 137.434  0.00  0.00    +0.000 A 
ATOM      8  C   UNL     1     112.861 128.230 137.847  0.00  0.00    +0.000 A 
ATOM      9  C   UNL     1     113.855 128.831 135.956  0.00  0.00    +0.000 A 
ATOM     10  C   UNL     1     113.746 130.018 136.841  0.00  0.00    +0.000 A 
ATOM     11  C   UNL     1     113.995 129.667 136.098  0.00  0.00    +0.000 A 
ENDROOT
BRANCH   5  12
ATOM     12  C   UNL     1     112.838 126.288 136.850  0.00  0.00    +0.000 A 
ATOM     13  C   UNL     1     113.402 125.731 137.077  0.00  0.00    +0.000 A 
ATOM     14  C   UNL     1     112.141 126.043 136.481  0.00  0.00    +0.000 A 
ATOM     15  C   UNL     1     112.010 125.241 136.339  0.00  0.00    +0.000 A 
ATOM     16  C   UNL     1     113.270 124.929 136.935  0.00  0.00    +0.000 A 
ATOM     17  C   UNL     1     112.575 124.684 136.566  0.00  0.00    +0.000 A 
BRANCH  15  18
ATOM     18  O   UNL     1     111.314 124.996 135.969  0.00  0.00    +0.000 OA
ATOM     19  C   UNL     1     110.909 125.513 135.470  0.00  0.00    +0.000 C 
ENDBRANCH  15  18
BRANCH  16  20
ATOM     20  O   UNL     1     113.835 124.372 137.162  0.00  0.00    +0.000 OA
ATOM     21  C   UNL     1     114.624 124.598 137.255  0.00  0.00    +0.000 C 
ENDBRANCH  16  20
BRANCH  17  22
ATOM     22  O   UNL     1     112.443 123.882 136.423  0.00  0.00    +0.000 OA
ATOM     23  C   UNL     1     112.051 123.423 136.986  0.00  0.00    +0.000 C 
ENDBRANCH  17  22
ENDBRANCH   5  12
BRANCH   6  24
ATOM     24  O   UNL     1     112.360 126.963 138.278  0.00  0.00    +0.000 OA
ATOM     25  C   UNL     1     111.762 127.284 138.747  0.00  0.00    +0.000 C 
ENDBRANCH   6  24
BRANCH   7  26
ATOM     26  O   UNL     1     113.119 129.858 138.151  0.00  0.00    +0.000 OA
ATOM     27  C   UNL     1     113.643 129.890 138.788  0.00  0.00    +0.000 C 
ENDBRANCH   7  26
BRANCH  10  28
ATOM     28  O   UNL     1     113.876 130.820 136.985  0.00  0.00    +0.000 OA
ATOM     29  C   UNL     1     113.340 131.381 136.707  0.00  0.00    +0.000 C 
ENDBRANCH  10  28
BRANCH  11  30
ATOM     30  O   UNL     1     114.365 130.129 135.524  0.00  0.00    +0.000 OA
ATOM     31  C   UNL     1     114.775 129.768 134.905  0.00  0.00    +0.000 C 
ENDBRANCH  11  30
TORSDOF 8
ENDMDL
MODEL 3
REMARK VINA RESULT:      -7.1      0.943      4.876
REMARK  Name = 389001
REMARK  8 active torsions:
REMARK  status: ('A' for Active; 'I' for Inactive)
REMARK    1  A    between atoms: O_2  and  C_14
REMARK    2  A    between atoms: O_3  and  C_15
REMARK    3  A    between atoms: O_4  and  C_18
REMARK    4  A    between atoms: O_5  and  C_19
REMARK    5  A    between atoms: O_7  and  C_22
REMARK    6  A    between atoms: O_8  and  C_23
REMARK    7  A    between atoms: O_9  and  C_24
REMARK    8  A    between atoms: C_12  and  C_13
REMARK                            x       y       z     vdW  Elec       q    Type
REMARK                         _______ _______ _______ _____ _____    ______ ____
ROOT
ATOM      1  O   UNL     1     113.431 127.215 136.667  0.00  0.00    +0.000 OA
ATOM      2  O   UNL     1     111.070 126.939 135.979  0.00  0.00    +0.000 OA
ATOM      3  C   UNL     1     112.310 126.370 136.399  0.00  0.00    +0.000 A 
ATOM      4  C   UNL     1     113.098 126.462 136.629  0.00  0.00    +0.000 A 
ATOM      5  C   UNL     1     112.976 127.878 136.475  0.00  0.00    +0.000 A 
ATOM      6  C   UNL     1     112.189 127.785 136.246  0.00  0.00    +0.000 A 
ATOM      7  C   UNL     1     111.952 125.589 136.356  0.00  0.00    +0.000 A 
ATOM      8  C   UNL     1     111.857 127.031 136.208  0.00  0.00    +0.000 A 
ATOM      9  C   UNL     1     113.581 125.780 136.830  0.00  0.00    +0.000 A 
ATOM     10  C   UNL     1     112.420 124.897 136.554  0.00  0.00    +0.000 A 
ATOM     11  C   UNL     1     113.240 124.993 136.793  0.00  0.00    +0.000 A 
ENDROOT
BRANCH   5  12
ATOM     12  C   UNL     1     113.310 128.631 136.514  0.00  0.00    +0.000 A 
ATOM     13  C   UNL     1     113.279 129.061 137.217  0.00  0.00    +0.000 A 
ATOM     14  C   UNL     1     113.674 128.955 135.847  0.00  0.00    +0.000 A 
ATOM     15  C   UNL     1     114.008 129.708 135.885  0.00  0.00    +0.000 A 
ATOM     16  C   UNL     1     113.613 129.815 137.254  0.00  0.00    +0.000 A 
ATOM     17  C   UNL     1     113.977 130.138 136.589  0.00  0.00    +0.000 A 
BRANCH  15  18
ATOM     18  O   UNL     1     114.372 130.032 135.219  0.00  0.00    +0.000 OA
ATOM     19  C   UNL     1     114.741 129.538 134.670  0.00  0.00    +0.000 C 
ENDBRANCH  15  18
BRANCH  16  20
ATOM     20  O   UNL     1     113.583 130.245 137.957  0.00  0.00    +0.000 OA
ATOM     21  C   UNL     1     113.557 129.850 138.682  0.00  0.00    +0.000 C 
ENDBRANCH  16  20
BRANCH  17  22
ATOM     22  O   UNL     1     114.311 130.892 136.626  0.00  0.00    +0.000 OA
ATOM     23  C   UNL     1     113.844 131.557 136.482  0.00  0.00    +0.000 C 
ENDBRANCH  17  22
ENDBRANCH   5  12
BRANCH   6  24
ATOM     24  O   UNL     1     111.736 128.447 136.055  0.00  0.00    +0.000 OA
ATOM     25  C   UNL     1     110.935 128.468 136.251  0.00  0.00    +0.000 C 
ENDBRANCH   6  24
BRANCH   7  26
ATOM     26  O   UNL     1     111.164 125.507 136.125  0.00  0.00    +0.000 OA
ATOM     27  C   UNL     1     110.977 125.401 135.329  0.00  0.00    +0.000 C 
ENDBRANCH   7  26
BRANCH  10  28
ATOM     28  O   UNL     1     112.085 124.144 136.515  0.00  0.00    +0.000 OA
ATOM     29  C   UNL     1     111.821 123.773 137.203  0.00  0.00    +0.000 C 
ENDBRANCH  10  28
BRANCH  11  30
ATOM     30  O   UNL     1     113.696 124.333 136.984  0.00  0.00    +0.000 OA
ATOM     31  C   UNL     1     114.487 124.427 137.198  0.00  0.00    +0.000 C 
ENDBRANCH  11  30
TORSDOF 8
ENDMDL
MODEL 4
REMARK VINA RESULT:      -7.1      0.911      4.840
REMARK  Name = 389001
REMARK  8 active torsions:
REMARK  status: ('A' for Active; 'I' for Inactive)
REMARK    1  A    between atoms: O_2  and  C_14
REMARK    2  A    between atoms: O_3  and  C_15
REMARK    3  A    between atoms: O_4  and  C_18
REMARK    4  A    between atoms: O_5  and  C_19
REMARK    5  A    between atoms: O_7  and  C_22
REMARK    6  A    between atoms: O_8  and  C_23
REMARK    7  A    between atoms: O_9  and  C_24
REMARK    8  A    between atoms: C_12  and  C_13
REMARK                            x       y       z     vdW  Elec       q    Type
REMARK                         _______ _______ _______ _____ _____    ______ ____
ROOT
ATOM      1  O   UNL     1     113.404 127.177 136.697  0.00  0.00    +0.000 OA
ATOM      2  O   UNL     1     111.045 126.894 136.005  0.00  0.00    +0.000 OA
ATOM      3  C   UNL     1     112.290 126.328 136.417  0.00  0.00    +0.000 A 
ATOM      4  C   UNL     1     113.076 126.422 136.648  0.00  0.00    +0.000 A 
ATOM      5  C   UNL     1     112.945 127.839 136.516  0.00  0.00    +0.000 A 
ATOM      6  C   UNL     1     112.159 127.745 136.285  0.00  0.00    +0.000 A 
ATOM      7  C   UNL     1     111.937 125.546 136.362  0.00  0.00    +0.000 A 
ATOM      8  C   UNL     1     111.832 126.989 136.236  0.00  0.00    +0.000 A 
ATOM      9  C   UNL     1     113.564 125.741 136.840  0.00  0.00    +0.000 A 
ATOM     10  C   UNL     1     112.410 124.854 136.550  0.00  0.00    +0.000 A 
ATOM     11  C   UNL     1     113.229 124.952 136.790  0.00  0.00    +0.000 A 
ENDROOT
BRANCH   5  12
ATOM     12  C   UNL     1     113.273 128.594 136.565  0.00  0.00    +0.000 A 
ATOM     13  C   UNL     1     113.635 128.932 135.904  0.00  0.00    +0.000 A 
ATOM     14  C   UNL     1     113.240 129.013 137.276  0.00  0.00    +0.000 A 
ATOM     15  C   UNL     1     113.568 129.768 137.325  0.00  0.00    +0.000 A 
ATOM     16  C   UNL     1     113.963 129.687 135.955  0.00  0.00    +0.000 A 
ATOM     17  C   UNL     1     113.930 130.105 136.665  0.00  0.00    +0.000 A 
BRANCH  15  18
ATOM     18  O   UNL     1     113.535 130.186 138.037  0.00  0.00    +0.000 OA
ATOM     19  C   UNL     1     113.514 129.778 138.753  0.00  0.00    +0.000 C 
ENDBRANCH  15  18
BRANCH  16  20
ATOM     20  O   UNL     1     114.324 130.024 135.295  0.00  0.00    +0.000 OA
ATOM     21  C   UNL     1     114.692 129.542 134.734  0.00  0.00    +0.000 C 
ENDBRANCH  16  20
BRANCH  17  22
ATOM     22  O   UNL     1     114.258 130.860 136.716  0.00  0.00    +0.000 OA
ATOM     23  C   UNL     1     113.791 131.523 136.563  0.00  0.00    +0.000 C 
ENDBRANCH  17  22
ENDBRANCH   5  12
BRANCH   6  24
ATOM     24  O   UNL     1     111.701 128.406 136.103  0.00  0.00    +0.000 OA
ATOM     25  C   UNL     1     110.899 128.418 136.300  0.00  0.00    +0.000 C 
ENDBRANCH   6  24
BRANCH   7  26
ATOM     26  O   UNL     1     111.150 125.461 136.131  0.00  0.00    +0.000 OA
ATOM     27  C   UNL     1     110.961 125.386 135.331  0.00  0.00    +0.000 C 
ENDBRANCH   7  26
BRANCH  10  28
ATOM     28  O   UNL     1     112.080 124.099 136.500  0.00  0.00    +0.000 OA
ATOM     29  C   UNL     1     111.821 123.716 137.183  0.00  0.00    +0.000 C 
ENDBRANCH  10  28
BRANCH  11  30
ATOM     30  O   UNL     1     113.690 124.292 136.973  0.00  0.00    +0.000 OA
ATOM     31  C   UNL     1     114.477 124.389 137.198  0.00  0.00    +0.000 C 
ENDBRANCH  11  30
TORSDOF 8
ENDMDL
MODEL 5
REMARK VINA RESULT:      -6.6      9.624     11.714
REMARK  Name = 389001
REMARK  8 active torsions:
REMARK  status: ('A' for Active; 'I' for Inactive)
REMARK    1  A    between atoms: O_2  and  C_14
REMARK    2  A    between atoms: O_3  and  C_15
REMARK    3  A    between atoms: O_4  and  C_18
REMARK    4  A    between atoms: O_5  and  C_19
REMARK    5  A    between atoms: O_7  and  C_22
REMARK    6  A    between atoms: O_8  and  C_23
REMARK    7  A    between atoms: O_9  and  C_24
REMARK    8  A    between atoms: C_12  and  C_13
REMARK                            x       y       z     vdW  Elec       q    Type
REMARK                         _______ _______ _______ _____ _____    ______ ____
ROOT
ATOM      1  O   UNL     1     106.449 126.383 145.612  0.00  0.00    +0.000 OA
ATOM      2  O   UNL     1     105.351 124.614 144.275  0.00  0.00    +0.000 OA
ATOM      3  C   UNL     1     105.996 125.886 144.351  0.00  0.00    +0.000 A 
ATOM      4  C   UNL     1     106.361 126.476 144.797  0.00  0.00    +0.000 A 
ATOM      5  C   UNL     1     106.170 125.700 145.982  0.00  0.00    +0.000 A 
ATOM      6  C   UNL     1     105.804 125.110 145.536  0.00  0.00    +0.000 A 
ATOM      7  C   UNL     1     105.899 125.972 143.501  0.00  0.00    +0.000 A 
ATOM      8  C   UNL     1     105.717 125.204 144.720  0.00  0.00    +0.000 A 
ATOM      9  C   UNL     1     106.656 127.192 144.424  0.00  0.00    +0.000 A 
ATOM     10  C   UNL     1     106.187 126.681 143.112  0.00  0.00    +0.000 A 
ATOM     11  C   UNL     1     106.568 127.295 143.576  0.00  0.00    +0.000 A 
ENDROOT
BRANCH   5  12
ATOM     12  C   UNL     1     106.257 125.607 146.797  0.00  0.00    +0.000 A 
ATOM     13  C   UNL     1     106.934 125.246 147.101  0.00  0.00    +0.000 A 
ATOM     14  C   UNL     1     105.666 125.876 147.308  0.00  0.00    +0.000 A 
ATOM     15  C   UNL     1     105.754 125.783 148.122  0.00  0.00    +0.000 A 
ATOM     16  C   UNL     1     107.020 125.154 147.917  0.00  0.00    +0.000 A 
ATOM     17  C   UNL     1     106.430 125.422 148.427  0.00  0.00    +0.000 A 
BRANCH  15  18
ATOM     18  O   UNL     1     105.163 126.051 148.633  0.00  0.00    +0.000 OA
ATOM     19  C   UNL     1     104.720 126.718 148.436  0.00  0.00    +0.000 C 
ENDBRANCH  15  18
BRANCH  16  20
ATOM     20  O   UNL     1     107.696 124.794 148.221  0.00  0.00    +0.000 OA
ATOM     21  C   UNL     1     108.436 124.960 147.894  0.00  0.00    +0.000 C 
ENDBRANCH  16  20
BRANCH  17  22
ATOM     22  O   UNL     1     106.517 125.330 149.243  0.00  0.00    +0.000 OA
ATOM     23  C   UNL     1     106.243 124.644 149.611  0.00  0.00    +0.000 C 
ENDBRANCH  17  22
ENDBRANCH   5  12
BRANCH   6  24
ATOM     24  O   UNL     1     105.525 124.427 145.905  0.00  0.00    +0.000 OA
ATOM     25  C   UNL     1     104.814 124.088 145.662  0.00  0.00    +0.000 C 
ENDBRANCH   6  24
BRANCH   7  26
ATOM     26  O   UNL     1     105.532 125.376 143.064  0.00  0.00    +0.000 OA
ATOM     27  C   UNL     1     105.986 124.786 142.708  0.00  0.00    +0.000 C 
ENDBRANCH   7  26
BRANCH  10  28
ATOM     28  O   UNL     1     106.099 126.771 142.296  0.00  0.00    +0.000 OA
ATOM     29  C   UNL     1     105.488 127.236 141.996  0.00  0.00    +0.000 C 
ENDBRANCH  10  28
BRANCH  11  30
ATOM     30  O   UNL     1     106.848 127.979 143.209  0.00  0.00    +0.000 OA
ATOM     31  C   UNL     1     107.425 128.438 143.579  0.00  0.00    +0.000 C 
ENDBRANCH  11  30
TORSDOF 8
ENDMDL
MODEL 6
REMARK VINA RESULT:      -6.6     12.122     14.429
REMARK  Name = 389001
REMARK  8 active torsions:
REMARK  status: ('A' for Active; 'I' for Inactive)
REMARK    1  A    between atoms: O_2  and  C_14
REMARK    2  A    between atoms: O_3  and  C_15
REMARK    3  A    between atoms: O_4  and  C_18
REMARK    4  A    between atoms: O_5  and  C_19
REMARK    5  A    between atoms: O_7  and  C_22
REMARK    6  A    between atoms: O_8  and  C_23
REMARK    7  A    between atoms: O_9  and  C_24
REMARK    8  A    between atoms: C_12  and  C_13
REMARK                            x       y       z     vdW  Elec       q    Type
REMARK                         _______ _______ _______ _____ _____    ______ ____
ROOT
ATOM      1  O   UNL     1     103.771 124.896 147.342  0.00  0.00    +0.000 OA
ATOM      2  O   UNL     1     103.201 122.984 145.877  0.00  0.00    +0.000 OA
ATOM      3  C   UNL     1     102.855 123.877 146.937  0.00  0.00    +0.000 A 
ATOM      4  C   UNL     1     103.045 124.514 147.425  0.00  0.00    +0.000 A 
ATOM      5  C   UNL     1     104.308 124.640 146.769  0.00  0.00    +0.000 A 
ATOM      6  C   UNL     1     104.118 124.002 146.281  0.00  0.00    +0.000 A 
ATOM      7  C   UNL     1     102.101 123.471 147.014  0.00  0.00    +0.000 A 
ATOM      8  C   UNL     1     103.391 123.621 146.365  0.00  0.00    +0.000 A 
ATOM      9  C   UNL     1     102.494 124.790 148.025  0.00  0.00    +0.000 A 
ATOM     10  C   UNL     1     101.538 123.733 147.608  0.00  0.00    +0.000 A 
ATOM     11  C   UNL     1     101.736 124.396 148.117  0.00  0.00    +0.000 A 
ENDROOT
BRANCH   5  12
ATOM     12  C   UNL     1     105.035 125.021 146.686  0.00  0.00    +0.000 A 
ATOM     13  C   UNL     1     105.121 125.629 146.135  0.00  0.00    +0.000 A 
ATOM     14  C   UNL     1     105.676 124.794 147.154  0.00  0.00    +0.000 A 
ATOM     15  C   UNL     1     106.402 125.176 147.071  0.00  0.00    +0.000 A 
ATOM     16  C   UNL     1     105.848 126.011 146.052  0.00  0.00    +0.000 A 
ATOM     17  C   UNL     1     106.488 125.784 146.520  0.00  0.00    +0.000 A 
BRANCH  15  18
ATOM     18  O   UNL     1     107.043 124.949 147.539  0.00  0.00    +0.000 OA
ATOM     19  C   UNL     1     106.915 124.523 148.233  0.00  0.00    +0.000 C 
ENDBRANCH  15  18
BRANCH  16  20
ATOM     20  O   UNL     1     105.935 126.619 145.501  0.00  0.00    +0.000 OA
ATOM     21  C   UNL     1     105.278 126.890 145.080  0.00  0.00    +0.000 C 
ENDBRANCH  16  20
BRANCH  17  22
ATOM     22  O   UNL     1     107.216 126.165 146.438  0.00  0.00    +0.000 OA
ATOM     23  C   UNL     1     107.379 126.841 146.882  0.00  0.00    +0.000 C 
ENDBRANCH  17  22
ENDBRANCH   5  12
BRANCH   6  24
ATOM     24  O   UNL     1     104.654 123.747 145.709  0.00  0.00    +0.000 OA
ATOM     25  C   UNL     1     104.432 123.168 145.165  0.00  0.00    +0.000 C 
ENDBRANCH   6  24
BRANCH   7  26
ATOM     26  O   UNL     1     101.919 122.835 146.521  0.00  0.00    +0.000 OA
ATOM     27  C   UNL     1     101.472 122.957 145.838  0.00  0.00    +0.000 C 
ENDBRANCH   7  26
BRANCH  10  28
ATOM     28  O   UNL     1     100.812 123.350 147.690  0.00  0.00    +0.000 OA
ATOM     29  C   UNL     1     100.710 122.779 148.276  0.00  0.00    +0.000 C 
ENDBRANCH  10  28
BRANCH  11  30
ATOM     30  O   UNL     1     101.201 124.654 148.690  0.00  0.00    +0.000 OA
ATOM     31  C   UNL     1     101.353 125.345 149.114  0.00  0.00    +0.000 C 
ENDBRANCH  11  30
TORSDOF 8
ENDMDL
MODEL 7
REMARK VINA RESULT:      -6.5     11.502     13.281
REMARK  Name = 389001
REMARK  8 active torsions:
REMARK  status: ('A' for Active; 'I' for Inactive)
REMARK    1  A    between atoms: O_2  and  C_14
REMARK    2  A    between atoms: O_3  and  C_15
REMARK    3  A    between atoms: O_4  and  C_18
REMARK    4  A    between atoms: O_5  and  C_19
REMARK    5  A    between atoms: O_7  and  C_22
REMARK    6  A    between atoms: O_8  and  C_23
REMARK    7  A    between atoms: O_9  and  C_24
REMARK    8  A    between atoms: C_12  and  C_13
REMARK                            x       y       z     vdW  Elec       q    Type
REMARK                         _______ _______ _______ _____ _____    ______ ____
ROOT
ATOM      1  O   UNL     1     104.508 125.668 146.317  0.00  0.00    +0.000 OA
ATOM      2  O   UNL     1     106.307 125.357 147.988  0.00  0.00    +0.000 OA
ATOM      3  C   UNL     1     105.806 126.000 146.816  0.00  0.00    +0.000 A 
ATOM      4  C   UNL     1     105.206 126.104 146.259  0.00  0.00    +0.000 A 
ATOM      5  C   UNL     1     104.410 125.128 146.934  0.00  0.00    +0.000 A 
ATOM      6  C   UNL     1     105.010 125.024 147.491  0.00  0.00    +0.000 A 
ATOM      7  C   UNL     1     106.537 126.449 146.765  0.00  0.00    +0.000 A 
ATOM      8  C   UNL     1     105.707 125.461 147.431  0.00  0.00    +0.000 A 
ATOM      9  C   UNL     1     105.296 126.663 145.612  0.00  0.00    +0.000 A 
ATOM     10  C   UNL     1     106.645 127.012 146.125  0.00  0.00    +0.000 A 
ATOM     11  C   UNL     1     106.021 127.120 145.545  0.00  0.00    +0.000 A 
ENDROOT
BRANCH   5  12
ATOM     12  C   UNL     1     103.712 124.692 146.993  0.00  0.00    +0.000 A 
ATOM     13  C   UNL     1     103.092 124.966 147.463  0.00  0.00    +0.000 A 
ATOM     14  C   UNL     1     103.634 123.981 146.580  0.00  0.00    +0.000 A 
ATOM     15  C   UNL     1     102.936 123.546 146.639  0.00  0.00    +0.000 A 
ATOM     16  C   UNL     1     102.395 124.529 147.521  0.00  0.00    +0.000 A 
ATOM     17  C   UNL     1     102.316 123.820 147.109  0.00  0.00    +0.000 A 
BRANCH  15  18
ATOM     18  O   UNL     1     102.858 122.835 146.226  0.00  0.00    +0.000 OA
ATOM     19  C   UNL     1     103.228 122.741 145.495  0.00  0.00    +0.000 C 
ENDBRANCH  15  18
BRANCH  16  20
ATOM     20  O   UNL     1     101.775 124.804 147.991  0.00  0.00    +0.000 OA
ATOM     21  C   UNL     1     101.704 125.610 148.153  0.00  0.00    +0.000 C 
ENDBRANCH  16  20
BRANCH  17  22
ATOM     22  O   UNL     1     101.619 123.383 147.167  0.00  0.00    +0.000 OA
ATOM     23  C   UNL     1     101.541 122.807 147.752  0.00  0.00    +0.000 C 
ENDBRANCH  17  22
ENDBRANCH   5  12
BRANCH   6  24
ATOM     24  O   UNL     1     104.912 124.485 148.107  0.00  0.00    +0.000 OA
ATOM     25  C   UNL     1     105.250 124.635 148.844  0.00  0.00    +0.000 C 
ENDBRANCH   6  24
BRANCH   7  26
ATOM     26  O   UNL     1     107.131 126.338 147.326  0.00  0.00    +0.000 OA
ATOM     27  C   UNL     1     107.686 125.734 147.227  0.00  0.00    +0.000 C 
ENDBRANCH   7  26
BRANCH  10  28
ATOM     28  O   UNL     1     107.344 127.447 146.069  0.00  0.00    +0.000 OA
ATOM     29  C   UNL     1     107.362 128.234 146.315  0.00  0.00    +0.000 C 
ENDBRANCH  10  28
BRANCH  11  30
ATOM     30  O   UNL     1     106.116 127.659 144.928  0.00  0.00    +0.000 OA
ATOM     31  C   UNL     1     105.625 127.619 144.266  0.00  0.00    +0.000 C 
ENDBRANCH  11  30
TORSDOF 8
ENDMDL
MODEL 8
REMARK VINA RESULT:      -6.5      1.981      2.892
REMARK  Name = 389001
REMARK  8 active torsions:
REMARK  status: ('A' for Active; 'I' for Inactive)
REMARK    1  A    between atoms: O_2  and  C_14
REMARK    2  A    between atoms: O_3  and  C_15
REMARK    3  A    between atoms: O_4  and  C_18
REMARK    4  A    between atoms: O_5  and  C_19
REMARK    5  A    between atoms: O_7  and  C_22
REMARK    6  A    between atoms: O_8  and  C_23
REMARK    7  A    between atoms: O_9  and  C_24
REMARK    8  A    between atoms: C_12  and  C_13
REMARK                            x       y       z     vdW  Elec       q    Type
REMARK                         _______ _______ _______ _____ _____    ______ ____
ROOT
ATOM      1  O   UNL     1     113.133 128.059 138.619  0.00  0.00    +0.000 OA
ATOM      2  O   UNL     1     113.084 127.887 141.087  0.00  0.00    +0.000 OA
ATOM      3  C   UNL     1     113.324 128.652 139.905  0.00  0.00    +0.000 A 
ATOM      4  C   UNL     1     113.341 128.709 139.082  0.00  0.00    +0.000 A 
ATOM      5  C   UNL     1     112.909 127.351 138.979  0.00  0.00    +0.000 A 
ATOM      6  C   UNL     1     112.892 127.294 139.802  0.00  0.00    +0.000 A 
ATOM      7  C   UNL     1     113.538 129.323 140.398  0.00  0.00    +0.000 A 
ATOM      8  C   UNL     1     113.100 127.945 140.264  0.00  0.00    +0.000 A 
ATOM      9  C   UNL     1     113.572 129.441 138.696  0.00  0.00    +0.000 A 
ATOM     10  C   UNL     1     113.773 130.062 140.030  0.00  0.00    +0.000 A 
ATOM     11  C   UNL     1     113.790 130.122 139.173  0.00  0.00    +0.000 A 
ENDROOT
BRANCH   5  12
ATOM     12  C   UNL     1     112.701 126.701 138.515  0.00  0.00    +0.000 A 
ATOM     13  C   UNL     1     113.275 126.152 138.293  0.00  0.00    +0.000 A 
ATOM     14  C   UNL     1     111.918 126.601 138.274  0.00  0.00    +0.000 A 
ATOM     15  C   UNL     1     111.710 125.951 137.810  0.00  0.00    +0.000 A 
ATOM     16  C   UNL     1     113.066 125.502 137.830  0.00  0.00    +0.000 A 
ATOM     17  C   UNL     1     112.284 125.402 137.588  0.00  0.00    +0.000 A 
BRANCH  15  18
ATOM     18  O   UNL     1     110.927 125.851 137.568  0.00  0.00    +0.000 OA
ATOM     19  C   UNL     1     110.440 126.508 137.468  0.00  0.00    +0.000 C 
ENDBRANCH  15  18
BRANCH  16  20
ATOM     20  O   UNL     1     113.640 124.953 137.608  0.00  0.00    +0.000 OA
ATOM     21  C   UNL     1     114.429 125.185 137.539  0.00  0.00    +0.000 C 
ENDBRANCH  16  20
BRANCH  17  22
ATOM     22  O   UNL     1     112.075 124.752 137.124  0.00  0.00    +0.000 OA
ATOM     23  C   UNL     1     111.802 124.061 137.483  0.00  0.00    +0.000 C 
ENDBRANCH  17  22
ENDBRANCH   5  12
BRANCH   6  24
ATOM     24  O   UNL     1     112.668 126.586 140.161  0.00  0.00    +0.000 OA
ATOM     25  C   UNL     1     112.285 126.598 140.892  0.00  0.00    +0.000 C 
ENDBRANCH   6  24
BRANCH   7  26
ATOM     26  O   UNL     1     113.519 129.256 141.220  0.00  0.00    +0.000 OA
ATOM     27  C   UNL     1     112.846 129.488 141.637  0.00  0.00    +0.000 C 
ENDBRANCH   7  26
BRANCH  10  28
ATOM     28  O   UNL     1     113.980 130.711 140.495  0.00  0.00    +0.000 OA
ATOM     29  C   UNL     1     114.773 130.862 140.663  0.00  0.00    +0.000 C 
ENDBRANCH  10  28
BRANCH  11  30
ATOM     30  O   UNL     1     114.014 130.829 138.810  0.00  0.00    +0.000 OA
ATOM     31  C   UNL     1     113.892 130.933 138.001  0.00  0.00    +0.000 C 
ENDBRANCH  11  30
TORSDOF 8
ENDMDL
MODEL 9
REMARK VINA RESULT:      -6.5      1.373      2.440
REMARK  Name = 389001
REMARK  8 active torsions:
REMARK  status: ('A' for Active; 'I' for Inactive)
REMARK    1  A    between atoms: O_2  and  C_14
REMARK    2  A    between atoms: O_3  and  C_15
REMARK    3  A    between atoms: O_4  and  C_18
REMARK    4  A    between atoms: O_5  and  C_19
REMARK    5  A    between atoms: O_7  and  C_22
REMARK    6  A    between atoms: O_8  and  C_23
REMARK    7  A    between atoms: O_9  and  C_24
REMARK    8  A    between atoms: C_12  and  C_13
REMARK                            x       y       z     vdW  Elec       q    Type
REMARK                         _______ _______ _______ _____ _____    ______ ____
ROOT
ATOM      1  O   UNL     1     112.922 127.394 138.517  0.00  0.00    +0.000 OA
ATOM      2  O   UNL     1     113.425 129.280 136.995  0.00  0.00    +0.000 OA
ATOM      3  C   UNL     1     113.245 128.772 138.318  0.00  0.00    +0.000 A 
ATOM      4  C   UNL     1     113.077 128.143 138.825  0.00  0.00    +0.000 A 
ATOM      5  C   UNL     1     112.935 127.273 137.700  0.00  0.00    +0.000 A 
ATOM      6  C   UNL     1     113.102 127.902 137.193  0.00  0.00    +0.000 A 
ATOM      7  C   UNL     1     113.408 129.557 138.628  0.00  0.00    +0.000 A 
ATOM      8  C   UNL     1     113.257 128.651 137.503  0.00  0.00    +0.000 A 
ATOM      9  C   UNL     1     113.061 128.256 139.677  0.00  0.00    +0.000 A 
ATOM     10  C   UNL     1     113.396 129.688 139.477  0.00  0.00    +0.000 A 
ATOM     11  C   UNL     1     113.221 129.034 140.005  0.00  0.00    +0.000 A 
ENDROOT
BRANCH   5  12
ATOM     12  C   UNL     1     112.780 126.524 137.392  0.00  0.00    +0.000 A 
ATOM     13  C   UNL     1     112.014 126.324 137.158  0.00  0.00    +0.000 A 
ATOM     14  C   UNL     1     113.391 125.974 137.318  0.00  0.00    +0.000 A 
ATOM     15  C   UNL     1     113.236 125.225 137.010  0.00  0.00    +0.000 A 
ATOM     16  C   UNL     1     111.861 125.574 136.849  0.00  0.00    +0.000 A 
ATOM     17  C   UNL     1     112.471 125.025 136.776  0.00  0.00    +0.000 A 
BRANCH  15  18
ATOM     18  O   UNL     1     113.848 124.675 136.936  0.00  0.00    +0.000 OA
ATOM     19  C   UNL     1     114.609 124.869 137.188  0.00  0.00    +0.000 C 
ENDBRANCH  15  18
BRANCH  16  20
ATOM     20  O   UNL     1     111.095 125.374 136.615  0.00  0.00    +0.000 OA
ATOM     21  C   UNL     1     110.498 125.945 136.623  0.00  0.00    +0.000 C 
ENDBRANCH  16  20
BRANCH  17  22
ATOM     22  O   UNL     1     112.317 124.275 136.467  0.00  0.00    +0.000 OA
ATOM     23  C   UNL     1     112.083 123.664 136.969  0.00  0.00    +0.000 C 
ENDBRANCH  17  22
ENDBRANCH   5  12
BRANCH   6  24
ATOM     24  O   UNL     1     113.115 127.782 136.378  0.00  0.00    +0.000 OA
ATOM     25  C   UNL     1     113.629 128.220 135.904  0.00  0.00    +0.000 C 
ENDBRANCH   6  24
BRANCH   7  26
ATOM     26  O   UNL     1     113.574 130.179 138.113  0.00  0.00    +0.000 OA
ATOM     27  C   UNL     1     112.965 130.666 137.843  0.00  0.00    +0.000 C 
ENDBRANCH   7  26
BRANCH  10  28
ATOM     28  O   UNL     1     113.551 130.438 139.783  0.00  0.00    +0.000 OA
ATOM     29  C   UNL     1     114.301 130.618 140.076  0.00  0.00    +0.000 C 
ENDBRANCH  10  28
BRANCH  11  30
ATOM     30  O   UNL     1     113.208 129.151 140.821  0.00  0.00    +0.000 OA
ATOM     31  C   UNL     1     112.873 128.581 141.315  0.00  0.00    +0.000 C 
ENDBRANCH  11  30
TORSDOF 8
ENDMDL
MODEL 10
REMARK VINA RESULT:      -6.5      1.362      2.173
REMARK  Name = 389001
REMARK  8 active torsions:
REMARK  status: ('A' for Active; 'I' for Inactive)
REMARK    1  A    between atoms: O_2  and  C_14
REMARK    2  A    between atoms: O_3  and  C_15
REMARK    3  A    between atoms: O_4  and  C_18
REMARK    4  A    between atoms: O_5  and  C_19
REMARK    5  A    between atoms: O_7  and  C_22
REMARK    6  A    between atoms: O_8  and  C_23
REMARK    7  A    between atoms: O_9  and  C_24
REMARK    8  A    between atoms: C_12  and  C_13
REMARK                            x       y       z     vdW  Elec       q    Type
REMARK                         _______ _______ _______ _____ _____    ______ ____
ROOT
ATOM      1  O   UNL     1     112.833 127.887 137.506  0.00  0.00    +0.000 OA
ATOM      2  O   UNL     1     111.503 128.946 135.707  0.00  0.00    +0.000 OA
ATOM      3  C   UNL     1     112.381 129.061 136.828  0.00  0.00    +0.000 A 
ATOM      4  C   UNL     1     112.824 128.708 137.427  0.00  0.00    +0.000 A 
ATOM      5  C   UNL     1     112.398 127.419 136.983  0.00  0.00    +0.000 A 
ATOM      6  C   UNL     1     111.954 127.771 136.384  0.00  0.00    +0.000 A 
ATOM      7  C   UNL     1     112.364 129.916 136.736  0.00  0.00    +0.000 A 
ATOM      8  C   UNL     1     111.946 128.593 136.307  0.00  0.00    +0.000 A 
ATOM      9  C   UNL     1     113.281 129.186 137.977  0.00  0.00    +0.000 A 
ATOM     10  C   UNL     1     112.814 130.409 137.277  0.00  0.00    +0.000 A 
ATOM     11  C   UNL     1     113.276 130.041 137.901  0.00  0.00    +0.000 A 
ENDROOT
BRANCH   5  12
ATOM     12  C   UNL     1     112.407 126.598 137.062  0.00  0.00    +0.000 A 
ATOM     13  C   UNL     1     113.003 126.155 136.702  0.00  0.00    +0.000 A 
ATOM     14  C   UNL     1     111.819 126.219 137.501  0.00  0.00    +0.000 A 
ATOM     15  C   UNL     1     111.828 125.398 137.579  0.00  0.00    +0.000 A 
ATOM     16  C   UNL     1     113.011 125.333 136.781  0.00  0.00    +0.000 A 
ATOM     17  C   UNL     1     112.424 124.955 137.219  0.00  0.00    +0.000 A 
BRANCH  15  18
ATOM     18  O   UNL     1     111.240 125.019 138.019  0.00  0.00    +0.000 OA
ATOM     19  C   UNL     1     110.852 125.425 138.623  0.00  0.00    +0.000 C 
ENDBRANCH  15  18
BRANCH  16  20
ATOM     20  O   UNL     1     113.606 124.891 136.421  0.00  0.00    +0.000 OA
ATOM     21  C   UNL     1     114.379 125.182 136.394  0.00  0.00    +0.000 C 
ENDBRANCH  16  20
BRANCH  17  22
ATOM     22  O   UNL     1     112.432 124.134 137.299  0.00  0.00    +0.000 OA
ATOM     23  C   UNL     1     112.025 123.664 136.756  0.00  0.00    +0.000 C 
ENDBRANCH  17  22
ENDBRANCH   5  12
BRANCH   6  24
ATOM     24  O   UNL     1     111.520 127.303 135.863  0.00  0.00    +0.000 OA
ATOM     25  C   UNL     1     111.367 127.571 135.098  0.00  0.00    +0.000 C 
ENDBRANCH   6  24
BRANCH   7  26
ATOM     26  O   UNL     1     111.917 130.260 136.134  0.00  0.00    +0.000 OA
ATOM     27  C   UNL     1     111.135 130.482 136.276  0.00  0.00    +0.000 C 
ENDBRANCH   7  26
BRANCH  10  28
ATOM     28  O   UNL     1     112.804 131.230 137.196  0.00  0.00    +0.000 OA
ATOM     29  C   UNL     1     113.421 131.615 136.807  0.00  0.00    +0.000 C 
ENDBRANCH  10  28
BRANCH  11  30
ATOM     30  O   UNL     1     113.712 130.507 138.424  0.00  0.00    +0.000 OA
ATOM     31  C   UNL     1     113.935 130.205 139.158  0.00  0.00    +0.000 C 
ENDBRANCH  11  30
TORSDOF 8
ENDMDL
