MODEL 1
REMARK VINA RESULT:     -11.3      0.000      0.000
REMARK  Name = 74977579
REMARK  5 active torsions:
REMARK  status: ('A' for Active; 'I' for Inactive)
REMARK    1  A    between atoms: O_1  and  C_17
REMARK    2  A    between atoms: O_1  and  C_22
REMARK    3  A    between atoms: C_19  and  C_27
REMARK    4  A    between atoms: C_21  and  C_28
REMARK    5  A    between atoms: C_36  and  C_38
REMARK                            x       y       z     vdW  Elec       q    Type
REMARK                         _______ _______ _______ _____ _____    ______ ____
ROOT
ATOM      1  O   UNL     1     111.818 126.228 136.561  0.00  0.00    +0.000 OA
ATOM      2  O   UNL     1     114.509 126.026 137.656  0.00  0.00    +0.000 OA
ATOM      3  O   UNL     1     113.168 123.673 136.565  0.00  0.00    +0.000 OA
ATOM      4  O   UNL     1     111.835 123.810 136.030  0.00  0.00    +0.000 OA
ATOM      5  O   UNL     1     110.509 124.724 135.672  0.00  0.00    +0.000 OA
ATOM      6  C   UNL     1     113.160 126.145 137.111  0.00  0.00    +0.000 A 
ATOM      7  C   UNL     1     112.481 125.770 136.740  0.00  0.00    +0.000 A 
ATOM      8  C   UNL     1     113.854 125.675 137.300  0.00  0.00    +0.000 A 
ATOM      9  C   UNL     1     112.487 124.965 136.563  0.00  0.00    +0.000 A 
ATOM     10  C   UNL     1     113.859 124.836 137.116  0.00  0.00    +0.000 A 
ATOM     11  C   UNL     1     113.171 124.478 136.745  0.00  0.00    +0.000 A 
ATOM     12  C   UNL     1     111.829 124.616 136.207  0.00  0.00    +0.000 A 
ATOM     13  C   UNL     1     111.161 125.879 136.205  0.00  0.00    +0.000 A 
ATOM     14  C   UNL     1     111.166 125.073 136.028  0.00  0.00    +0.000 A 
ENDROOT
BRANCH   6  20
ATOM     15  O   UNL     1     113.450 127.496 136.743  0.00  0.00    +0.000 OA
ATOM     16  O   UNL     1     112.493 128.284 138.886  0.00  0.00    +0.000 OA
ATOM     17  O   UNL     1     113.101 129.371 137.804  0.00  0.00    +0.000 OA
ATOM     18  C   UNL     1     112.826 127.214 137.998  0.00  0.00    +0.000 C 
ATOM     19  C   UNL     1     112.812 128.022 138.172  0.00  0.00    +0.000 C 
ATOM     20  C   UNL     1     113.145 126.952 137.284  0.00  0.00    +0.000 C 
ATOM     21  C   UNL     1     113.116 128.565 137.631  0.00  0.00    +0.000 C 
ATOM     22  C   UNL     1     113.435 128.302 136.917  0.00  0.00    +0.000 C 
BRANCH  22  24
ATOM     23  O   UNL     1     113.837 128.631 135.585  0.00  0.00    +0.000 OA
ATOM     24  C   UNL     1     113.739 128.846 136.376  0.00  0.00    +0.000 C 
ENDBRANCH  22  24
BRANCH  18  25
ATOM     25  O   UNL     1     112.522 126.671 138.539  0.00  0.00    +0.000 OA
BRANCH  25  30
ATOM     26  O   UNL     1     113.477 126.972 139.559  0.00  0.00    +0.000 OA
ATOM     27  O   UNL     1     111.404 126.300 139.695  0.00  0.00    +0.000 OA
ATOM     28  O   UNL     1     111.800 126.416 141.292  0.00  0.00    +0.000 OA
ATOM     29  O   UNL     1     113.314 126.903 141.734  0.00  0.00    +0.000 OA
ATOM     30  C   UNL     1     112.721 126.729 139.338  0.00  0.00    +0.000 C 
ATOM     31  C   UNL     1     112.162 126.544 139.916  0.00  0.00    +0.000 C 
ATOM     32  C   UNL     1     112.359 126.602 140.715  0.00  0.00    +0.000 C 
ATOM     33  C   UNL     1     113.116 126.845 140.935  0.00  0.00    +0.000 C 
ATOM     34  C   UNL     1     113.675 127.030 140.357  0.00  0.00    +0.000 C 
ATOM     35  C   UNL     1     114.431 127.273 140.579  0.00  0.00    +0.000 C 
ENDBRANCH  25  30
ENDBRANCH  18  25
ENDBRANCH   6  20
BRANCH  13  38
ATOM     36  O   UNL     1     108.628 126.969 136.957  0.00  0.00    +0.000 OA
ATOM     37  O   UNL     1     108.510 127.709 135.486  0.00  0.00    +0.000 OA
ATOM     38  C   UNL     1     110.498 126.336 136.026  0.00  0.00    +0.000 A 
ATOM     39  C   UNL     1     109.894 126.424 136.581  0.00  0.00    +0.000 A 
ATOM     40  C   UNL     1     110.439 126.706 135.290  0.00  0.00    +0.000 A 
ATOM     41  C   UNL     1     109.232 126.881 136.401  0.00  0.00    +0.000 A 
ATOM     42  C   UNL     1     109.776 127.163 135.111  0.00  0.00    +0.000 A 
ATOM     43  C   UNL     1     109.172 127.251 135.666  0.00  0.00    +0.000 A 
ENDBRANCH  13  38
TORSDOF 5
ENDMDL
MODEL 2
REMARK VINA RESULT:     -10.7      1.396      3.368
REMARK  Name = 74977579
REMARK  5 active torsions:
REMARK  status: ('A' for Active; 'I' for Inactive)
REMARK    1  A    between atoms: O_1  and  C_17
REMARK    2  A    between atoms: O_1  and  C_22
REMARK    3  A    between atoms: C_19  and  C_27
REMARK    4  A    between atoms: C_21  and  C_28
REMARK    5  A    between atoms: C_36  and  C_38
REMARK                            x       y       z     vdW  Elec       q    Type
REMARK                         _______ _______ _______ _____ _____    ______ ____
ROOT
ATOM      1  O   UNL     1     112.436 127.357 136.008  0.00  0.00    +0.000 OA
ATOM      2  O   UNL     1     111.454 124.652 136.453  0.00  0.00    +0.000 OA
ATOM      3  O   UNL     1     109.939 126.533 134.811  0.00  0.00    +0.000 OA
ATOM      4  O   UNL     1     110.456 127.865 134.612  0.00  0.00    +0.000 OA
ATOM      5  O   UNL     1     111.605 129.021 134.864  0.00  0.00    +0.000 OA
ATOM      6  C   UNL     1     111.961 126.005 136.240  0.00  0.00    +0.000 A 
ATOM      7  C   UNL     1     111.861 126.779 135.882  0.00  0.00    +0.000 A 
ATOM      8  C   UNL     1     111.366 125.398 136.113  0.00  0.00    +0.000 A 
ATOM      9  C   UNL     1     111.201 126.948 135.417  0.00  0.00    +0.000 A 
ATOM     10  C   UNL     1     110.679 125.574 135.629  0.00  0.00    +0.000 A 
ATOM     11  C   UNL     1     110.596 126.355 135.278  0.00  0.00    +0.000 A 
ATOM     12  C   UNL     1     111.116 127.696 135.078  0.00  0.00    +0.000 A 
ATOM     13  C   UNL     1     112.351 128.105 135.669  0.00  0.00    +0.000 A 
ATOM     14  C   UNL     1     111.691 128.274 135.204  0.00  0.00    +0.000 A 
ENDROOT
BRANCH   6  20
ATOM     15  O   UNL     1     113.363 125.744 136.348  0.00  0.00    +0.000 OA
ATOM     16  O   UNL     1     113.140 125.566 138.807  0.00  0.00    +0.000 OA
ATOM     17  O   UNL     1     114.615 125.364 138.095  0.00  0.00    +0.000 OA
ATOM     18  C   UNL     1     112.551 125.785 137.523  0.00  0.00    +0.000 C 
ATOM     19  C   UNL     1     113.215 125.625 137.987  0.00  0.00    +0.000 C 
ATOM     20  C   UNL     1     112.625 125.844 136.704  0.00  0.00    +0.000 C 
ATOM     21  C   UNL     1     113.952 125.524 137.632  0.00  0.00    +0.000 C 
ATOM     22  C   UNL     1     114.026 125.584 136.812  0.00  0.00    +0.000 C 
BRANCH  22  24
ATOM     23  O   UNL     1     114.840 124.992 135.797  0.00  0.00    +0.000 OA
ATOM     24  C   UNL     1     114.763 125.483 136.456  0.00  0.00    +0.000 C 
ENDBRANCH  22  24
BRANCH  18  25
ATOM     25  O   UNL     1     111.813 125.886 137.879  0.00  0.00    +0.000 OA
BRANCH  25  30
ATOM     26  O   UNL     1     112.169 127.033 138.653  0.00  0.00    +0.000 OA
ATOM     27  O   UNL     1     110.836 125.364 139.102  0.00  0.00    +0.000 OA
ATOM     28  O   UNL     1     110.703 126.250 140.487  0.00  0.00    +0.000 OA
ATOM     29  O   UNL     1     111.547 127.658 140.650  0.00  0.00    +0.000 OA
ATOM     30  C   UNL     1     111.747 126.330 138.572  0.00  0.00    +0.000 C 
ATOM     31  C   UNL     1     111.258 126.068 139.183  0.00  0.00    +0.000 C 
ATOM     32  C   UNL     1     111.191 126.511 139.876  0.00  0.00    +0.000 C 
ATOM     33  C   UNL     1     111.614 127.215 139.957  0.00  0.00    +0.000 C 
ATOM     34  C   UNL     1     112.102 127.476 139.345  0.00  0.00    +0.000 C 
ATOM     35  C   UNL     1     112.524 128.181 139.428  0.00  0.00    +0.000 C 
ENDBRANCH  25  30
ENDBRANCH  18  25
ENDBRANCH   6  20
BRANCH  13  38
ATOM     36  O   UNL     1     114.895 129.245 135.039  0.00  0.00    +0.000 OA
ATOM     37  O   UNL     1     114.651 130.417 136.175  0.00  0.00    +0.000 OA
ATOM     38  C   UNL     1     112.926 128.683 135.795  0.00  0.00    +0.000 A 
ATOM     39  C   UNL     1     113.623 128.675 135.354  0.00  0.00    +0.000 A 
ATOM     40  C   UNL     1     112.804 129.268 136.363  0.00  0.00    +0.000 A 
ATOM     41  C   UNL     1     114.198 129.253 135.481  0.00  0.00    +0.000 A 
ATOM     42  C   UNL     1     113.379 129.846 136.490  0.00  0.00    +0.000 A 
ATOM     43  C   UNL     1     114.076 129.839 136.048  0.00  0.00    +0.000 A 
ENDBRANCH  13  38
TORSDOF 5
ENDMDL
MODEL 3
REMARK VINA RESULT:     -10.5      9.495     11.960
REMARK  Name = 74977579
REMARK  5 active torsions:
REMARK  status: ('A' for Active; 'I' for Inactive)
REMARK    1  A    between atoms: O_1  and  C_17
REMARK    2  A    between atoms: O_1  and  C_22
REMARK    3  A    between atoms: C_19  and  C_27
REMARK    4  A    between atoms: C_21  and  C_28
REMARK    5  A    between atoms: C_36  and  C_38
REMARK                            x       y       z     vdW  Elec       q    Type
REMARK                         _______ _______ _______ _____ _____    ______ ____
ROOT
ATOM      1  O   UNL     1     105.051 124.990 147.350  0.00  0.00    +0.000 OA
ATOM      2  O   UNL     1     107.792 125.691 146.663  0.00  0.00    +0.000 OA
ATOM      3  O   UNL     1     107.147 124.630 149.306  0.00  0.00    +0.000 OA
ATOM      4  O   UNL     1     105.778 124.294 149.612  0.00  0.00    +0.000 OA
ATOM      5  O   UNL     1     104.187 124.185 149.187  0.00  0.00    +0.000 OA
ATOM      6  C   UNL     1     106.412 125.345 146.991  0.00  0.00    +0.000 A 
ATOM      7  C   UNL     1     105.846 125.045 147.563  0.00  0.00    +0.000 A 
ATOM      8  C   UNL     1     107.242 125.404 147.206  0.00  0.00    +0.000 A 
ATOM      9  C   UNL     1     106.088 124.813 148.317  0.00  0.00    +0.000 A 
ATOM     10  C   UNL     1     107.494 125.162 147.991  0.00  0.00    +0.000 A 
ATOM     11  C   UNL     1     106.913 124.865 148.550  0.00  0.00    +0.000 A 
ATOM     12  C   UNL     1     105.535 124.526 148.858  0.00  0.00    +0.000 A 
ATOM     13  C   UNL     1     104.497 124.703 147.892  0.00  0.00    +0.000 A 
ATOM     14  C   UNL     1     104.739 124.471 148.645  0.00  0.00    +0.000 A 
ENDROOT
BRANCH   6  20
ATOM     15  O   UNL     1     106.194 125.040 145.611  0.00  0.00    +0.000 OA
ATOM     16  O   UNL     1     105.340 127.333 145.240  0.00  0.00    +0.000 OA
ATOM     17  O   UNL     1     105.406 126.264 143.985  0.00  0.00    +0.000 OA
ATOM     18  C   UNL     1     105.876 126.339 146.116  0.00  0.00    +0.000 C 
ATOM     19  C   UNL     1     105.625 126.569 145.364  0.00  0.00    +0.000 C 
ATOM     20  C   UNL     1     106.161 125.575 146.239  0.00  0.00    +0.000 C 
ATOM     21  C   UNL     1     105.658 126.034 144.736  0.00  0.00    +0.000 C 
ATOM     22  C   UNL     1     105.942 125.270 144.861  0.00  0.00    +0.000 C 
BRANCH  22  24
ATOM     23  O   UNL     1     106.057 123.928 144.383  0.00  0.00    +0.000 OA
ATOM     24  C   UNL     1     105.975 124.735 144.233  0.00  0.00    +0.000 C 
ENDBRANCH  22  24
BRANCH  18  25
ATOM     25  O   UNL     1     105.843 126.874 146.743  0.00  0.00    +0.000 OA
BRANCH  25  30
ATOM     26  O   UNL     1     106.800 127.791 146.208  0.00  0.00    +0.000 OA
ATOM     27  O   UNL     1     105.006 128.133 147.404  0.00  0.00    +0.000 OA
ATOM     28  O   UNL     1     105.544 129.679 147.199  0.00  0.00    +0.000 OA
ATOM     29  O   UNL     1     106.919 129.966 146.333  0.00  0.00    +0.000 OA
ATOM     30  C   UNL     1     106.113 127.647 146.640  0.00  0.00    +0.000 C 
ATOM     31  C   UNL     1     105.694 128.276 146.971  0.00  0.00    +0.000 C 
ATOM     32  C   UNL     1     105.963 129.050 146.869  0.00  0.00    +0.000 C 
ATOM     33  C   UNL     1     106.650 129.193 146.436  0.00  0.00    +0.000 C 
ATOM     34  C   UNL     1     107.069 128.563 146.106  0.00  0.00    +0.000 C 
ATOM     35  C   UNL     1     107.757 128.707 145.673  0.00  0.00    +0.000 C 
ENDBRANCH  25  30
ENDBRANCH  18  25
ENDBRANCH   6  20
BRANCH  13  38
ATOM     36  O   UNL     1     102.379 123.316 146.566  0.00  0.00    +0.000 OA
ATOM     37  O   UNL     1     101.316 124.488 147.040  0.00  0.00    +0.000 OA
ATOM     38  C   UNL     1     103.702 124.649 147.679  0.00  0.00    +0.000 A 
ATOM     39  C   UNL     1     103.438 124.010 147.229  0.00  0.00    +0.000 A 
ATOM     40  C   UNL     1     103.172 125.235 147.916  0.00  0.00    +0.000 A 
ATOM     41  C   UNL     1     102.643 123.956 147.016  0.00  0.00    +0.000 A 
ATOM     42  C   UNL     1     102.376 125.180 147.703  0.00  0.00    +0.000 A 
ATOM     43  C   UNL     1     102.111 124.541 147.253  0.00  0.00    +0.000 A 
ENDBRANCH  13  38
TORSDOF 5
ENDMDL
MODEL 4
REMARK VINA RESULT:     -10.4      1.336      2.956
REMARK  Name = 74977579
REMARK  5 active torsions:
REMARK  status: ('A' for Active; 'I' for Inactive)
REMARK    1  A    between atoms: O_1  and  C_17
REMARK    2  A    between atoms: O_1  and  C_22
REMARK    3  A    between atoms: C_19  and  C_27
REMARK    4  A    between atoms: C_21  and  C_28
REMARK    5  A    between atoms: C_36  and  C_38
REMARK                            x       y       z     vdW  Elec       q    Type
REMARK                         _______ _______ _______ _____ _____    ______ ____
ROOT
ATOM      1  O   UNL     1     112.308 126.091 137.366  0.00  0.00    +0.000 OA
ATOM      2  O   UNL     1     113.634 126.837 139.850  0.00  0.00    +0.000 OA
ATOM      3  O   UNL     1     114.986 125.143 137.893  0.00  0.00    +0.000 OA
ATOM      4  O   UNL     1     114.299 124.794 136.673  0.00  0.00    +0.000 OA
ATOM      5  O   UNL     1     112.977 124.865 135.688  0.00  0.00    +0.000 OA
ATOM      6  C   UNL     1     112.955 126.473 138.610  0.00  0.00    +0.000 A 
ATOM      7  C   UNL     1     112.969 126.055 137.859  0.00  0.00    +0.000 A 
ATOM      8  C   UNL     1     113.640 126.439 139.127  0.00  0.00    +0.000 A 
ATOM      9  C   UNL     1     113.633 125.623 137.628  0.00  0.00    +0.000 A 
ATOM     10  C   UNL     1     114.331 125.989 138.887  0.00  0.00    +0.000 A 
ATOM     11  C   UNL     1     114.327 125.578 138.132  0.00  0.00    +0.000 A 
ATOM     12  C   UNL     1     113.635 125.226 136.904  0.00  0.00    +0.000 A 
ATOM     13  C   UNL     1     112.311 125.695 136.643  0.00  0.00    +0.000 A 
ATOM     14  C   UNL     1     112.974 125.262 136.412  0.00  0.00    +0.000 A 
ENDROOT
BRANCH   6  20
ATOM     15  O   UNL     1     111.699 126.546 139.289  0.00  0.00    +0.000 OA
ATOM     16  O   UNL     1     111.458 128.907 138.588  0.00  0.00    +0.000 OA
ATOM     17  O   UNL     1     110.283 128.194 139.500  0.00  0.00    +0.000 OA
ATOM     18  C   UNL     1     112.206 127.690 138.599  0.00  0.00    +0.000 C 
ATOM     19  C   UNL     1     111.538 128.120 138.822  0.00  0.00    +0.000 C 
ATOM     20  C   UNL     1     112.286 126.903 138.833  0.00  0.00    +0.000 C 
ATOM     21  C   UNL     1     110.950 127.764 139.278  0.00  0.00    +0.000 C 
ATOM     22  C   UNL     1     111.032 126.976 139.511  0.00  0.00    +0.000 C 
BRANCH  22  24
ATOM     23  O   UNL     1     110.458 125.803 140.094  0.00  0.00    +0.000 OA
ATOM     24  C   UNL     1     110.444 126.619 139.968  0.00  0.00    +0.000 C 
ENDBRANCH  22  24
BRANCH  18  25
ATOM     25  O   UNL     1     112.794 128.047 138.142  0.00  0.00    +0.000 OA
BRANCH  25  30
ATOM     26  O   UNL     1     113.177 128.986 139.149  0.00  0.00    +0.000 OA
ATOM     27  O   UNL     1     113.196 129.138 136.972  0.00  0.00    +0.000 OA
ATOM     28  O   UNL     1     113.780 130.623 137.394  0.00  0.00    +0.000 OA
ATOM     29  O   UNL     1     113.962 131.016 138.986  0.00  0.00    +0.000 OA
ATOM     30  C   UNL     1     113.086 128.789 138.354  0.00  0.00    +0.000 C 
ATOM     31  C   UNL     1     113.287 129.335 137.769  0.00  0.00    +0.000 C 
ATOM     32  C   UNL     1     113.579 130.077 137.979  0.00  0.00    +0.000 C 
ATOM     33  C   UNL     1     113.670 130.273 138.775  0.00  0.00    +0.000 C 
ATOM     34  C   UNL     1     113.469 129.727 139.360  0.00  0.00    +0.000 C 
ATOM     35  C   UNL     1     113.560 129.924 140.156  0.00  0.00    +0.000 C 
ENDBRANCH  25  30
ENDBRANCH  18  25
ENDBRANCH   6  20
BRANCH  13  38
ATOM     36  O   UNL     1     110.806 127.029 134.612  0.00  0.00    +0.000 OA
ATOM     37  O   UNL     1     109.665 125.838 134.675  0.00  0.00    +0.000 OA
ATOM     38  C   UNL     1     111.650 125.731 136.150  0.00  0.00    +0.000 A 
ATOM     39  C   UNL     1     111.559 126.362 135.627  0.00  0.00    +0.000 A 
ATOM     40  C   UNL     1     111.080 125.135 136.182  0.00  0.00    +0.000 A 
ATOM     41  C   UNL     1     110.897 126.397 135.136  0.00  0.00    +0.000 A 
ATOM     42  C   UNL     1     110.419 125.171 135.690  0.00  0.00    +0.000 A 
ATOM     43  C   UNL     1     110.327 125.802 135.166  0.00  0.00    +0.000 A 
ENDBRANCH  13  38
TORSDOF 5
ENDMDL
MODEL 5
REMARK VINA RESULT:     -10.4      1.598      4.496
REMARK  Name = 74977579
REMARK  5 active torsions:
REMARK  status: ('A' for Active; 'I' for Inactive)
REMARK    1  A    between atoms: O_1  and  C_17
REMARK    2  A    between atoms: O_1  and  C_22
REMARK    3  A    between atoms: C_19  and  C_27
REMARK    4  A    between atoms: C_21  and  C_28
REMARK    5  A    between atoms: C_36  and  C_38
REMARK                            x       y       z     vdW  Elec       q    Type
REMARK                         _______ _______ _______ _____ _____    ______ ____
ROOT
ATOM      1  O   UNL     1     112.311 127.291 137.792  0.00  0.00    +0.000 OA
ATOM      2  O   UNL     1     111.748 130.145 137.929  0.00  0.00    +0.000 OA
ATOM      3  O   UNL     1     111.564 128.476 140.319  0.00  0.00    +0.000 OA
ATOM      4  O   UNL     1     111.850 127.066 140.214  0.00  0.00    +0.000 OA
ATOM      5  O   UNL     1     112.282 125.741 139.329  0.00  0.00    +0.000 OA
ATOM      6  C   UNL     1     112.034 128.715 137.842  0.00  0.00    +0.000 A 
ATOM      7  C   UNL     1     112.095 127.953 138.234  0.00  0.00    +0.000 A 
ATOM      8  C   UNL     1     111.809 129.409 138.297  0.00  0.00    +0.000 A 
ATOM      9  C   UNL     1     111.941 127.878 139.041  0.00  0.00    +0.000 A 
ATOM     10  C   UNL     1     111.649 129.331 139.138  0.00  0.00    +0.000 A 
ATOM     11  C   UNL     1     111.716 128.560 139.512  0.00  0.00    +0.000 A 
ATOM     12  C   UNL     1     112.004 127.140 139.406  0.00  0.00    +0.000 A 
ATOM     13  C   UNL     1     112.373 126.553 138.157  0.00  0.00    +0.000 A 
ATOM     14  C   UNL     1     112.220 126.478 138.964  0.00  0.00    +0.000 A 
ENDROOT
BRANCH   6  20
ATOM     15  O   UNL     1     112.949 128.970 136.774  0.00  0.00    +0.000 OA
ATOM     16  O   UNL     1     111.136 128.598 135.132  0.00  0.00    +0.000 OA
ATOM     17  O   UNL     1     112.656 128.977 134.612  0.00  0.00    +0.000 OA
ATOM     18  C   UNL     1     111.585 128.657 136.487  0.00  0.00    +0.000 C 
ATOM     19  C   UNL     1     111.741 128.722 135.679  0.00  0.00    +0.000 C 
ATOM     20  C   UNL     1     112.189 128.781 137.034  0.00  0.00    +0.000 C 
ATOM     21  C   UNL     1     112.500 128.912 135.419  0.00  0.00    +0.000 C 
ATOM     22  C   UNL     1     113.104 129.036 135.967  0.00  0.00    +0.000 C 
BRANCH  22  24
ATOM     23  O   UNL     1     114.318 129.775 136.124  0.00  0.00    +0.000 OA
ATOM     24  C   UNL     1     113.864 129.225 135.708  0.00  0.00    +0.000 C 
ENDBRANCH  22  24
BRANCH  18  25
ATOM     25  O   UNL     1     110.825 128.467 136.747  0.00  0.00    +0.000 OA
BRANCH  25  30
ATOM     26  O   UNL     1     110.216 129.667 136.265  0.00  0.00    +0.000 OA
ATOM     27  O   UNL     1     109.429 127.640 136.450  0.00  0.00    +0.000 OA
ATOM     28  O   UNL     1     108.122 128.426 135.820  0.00  0.00    +0.000 OA
ATOM     29  O   UNL     1     108.211 130.039 135.486  0.00  0.00    +0.000 OA
ATOM     30  C   UNL     1     110.172 128.861 136.432  0.00  0.00    +0.000 C 
ATOM     31  C   UNL     1     109.474 128.447 136.283  0.00  0.00    +0.000 C 
ATOM     32  C   UNL     1     108.820 128.839 135.968  0.00  0.00    +0.000 C 
ATOM     33  C   UNL     1     108.865 129.646 135.802  0.00  0.00    +0.000 C 
ATOM     34  C   UNL     1     109.563 130.060 135.950  0.00  0.00    +0.000 C 
ATOM     35  C   UNL     1     109.607 130.867 135.783  0.00  0.00    +0.000 C 
ENDBRANCH  25  30
ENDBRANCH  18  25
ENDBRANCH   6  20
BRANCH  13  38
ATOM     36  O   UNL     1     111.646 124.311 136.541  0.00  0.00    +0.000 OA
ATOM     37  O   UNL     1     113.239 123.905 136.388  0.00  0.00    +0.000 OA
ATOM     38  C   UNL     1     112.589 125.891 137.714  0.00  0.00    +0.000 A 
ATOM     39  C   UNL     1     112.010 125.432 137.349  0.00  0.00    +0.000 A 
ATOM     40  C   UNL     1     113.385 125.689 137.638  0.00  0.00    +0.000 A 
ATOM     41  C   UNL     1     112.227 124.770 136.907  0.00  0.00    +0.000 A 
ATOM     42  C   UNL     1     113.601 125.027 137.196  0.00  0.00    +0.000 A 
ATOM     43  C   UNL     1     113.022 124.567 136.830  0.00  0.00    +0.000 A 
ENDBRANCH  13  38
TORSDOF 5
ENDMDL
MODEL 6
REMARK VINA RESULT:     -10.4      1.349      2.802
REMARK  Name = 74977579
REMARK  5 active torsions:
REMARK  status: ('A' for Active; 'I' for Inactive)
REMARK    1  A    between atoms: O_1  and  C_17
REMARK    2  A    between atoms: O_1  and  C_22
REMARK    3  A    between atoms: C_19  and  C_27
REMARK    4  A    between atoms: C_21  and  C_28
REMARK    5  A    between atoms: C_36  and  C_38
REMARK                            x       y       z     vdW  Elec       q    Type
REMARK                         _______ _______ _______ _____ _____    ______ ____
ROOT
ATOM      1  O   UNL     1     111.614 127.821 136.210  0.00  0.00    +0.000 OA
ATOM      2  O   UNL     1     114.080 126.562 137.111  0.00  0.00    +0.000 OA
ATOM      3  O   UNL     1     114.150 128.770 135.201  0.00  0.00    +0.000 OA
ATOM      4  O   UNL     1     112.908 129.370 134.777  0.00  0.00    +0.000 OA
ATOM      5  O   UNL     1     111.262 129.466 134.818  0.00  0.00    +0.000 OA
ATOM      6  C   UNL     1     112.834 127.182 136.670  0.00  0.00    +0.000 A 
ATOM      7  C   UNL     1     112.437 127.774 136.189  0.00  0.00    +0.000 A 
ATOM      8  C   UNL     1     113.691 127.127 136.653  0.00  0.00    +0.000 A 
ATOM      9  C   UNL     1     112.868 128.290 135.712  0.00  0.00    +0.000 A 
ATOM     10  C   UNL     1     114.140 127.664 136.155  0.00  0.00    +0.000 A 
ATOM     11  C   UNL     1     113.726 128.250 135.682  0.00  0.00    +0.000 A 
ATOM     12  C   UNL     1     112.476 128.854 135.254  0.00  0.00    +0.000 A 
ATOM     13  C   UNL     1     111.221 128.386 135.753  0.00  0.00    +0.000 A 
ATOM     14  C   UNL     1     111.653 128.902 135.275  0.00  0.00    +0.000 A 
ENDROOT
BRANCH   6  20
ATOM     15  O   UNL     1     112.182 125.924 136.862  0.00  0.00    +0.000 OA
ATOM     16  O   UNL     1     111.499 126.626 139.135  0.00  0.00    +0.000 OA
ATOM     17  O   UNL     1     111.075 125.135 138.569  0.00  0.00    +0.000 OA
ATOM     18  C   UNL     1     112.166 126.904 137.902  0.00  0.00    +0.000 C 
ATOM     19  C   UNL     1     111.726 126.391 138.377  0.00  0.00    +0.000 C 
ATOM     20  C   UNL     1     112.394 126.670 137.145  0.00  0.00    +0.000 C 
ATOM     21  C   UNL     1     111.514 125.646 138.094  0.00  0.00    +0.000 C 
ATOM     22  C   UNL     1     111.742 125.413 137.336  0.00  0.00    +0.000 C 
BRANCH  22  24
ATOM     23  O   UNL     1     111.284 124.578 136.270  0.00  0.00    +0.000 OA
ATOM     24  C   UNL     1     111.530 124.668 137.053  0.00  0.00    +0.000 C 
ENDBRANCH  22  24
BRANCH  18  25
ATOM     25  O   UNL     1     112.378 127.649 138.185  0.00  0.00    +0.000 OA
BRANCH  25  30
ATOM     26  O   UNL     1     113.245 127.163 139.212  0.00  0.00    +0.000 OA
ATOM     27  O   UNL     1     111.965 128.930 139.140  0.00  0.00    +0.000 OA
ATOM     28  O   UNL     1     112.626 129.084 140.645  0.00  0.00    +0.000 OA
ATOM     29  O   UNL     1     113.699 127.957 141.194  0.00  0.00    +0.000 OA
ATOM     30  C   UNL     1     112.709 127.726 138.937  0.00  0.00    +0.000 C 
ATOM     31  C   UNL     1     112.502 128.366 139.415  0.00  0.00    +0.000 C 
ATOM     32  C   UNL     1     112.832 128.443 140.167  0.00  0.00    +0.000 C 
ATOM     33  C   UNL     1     113.369 127.880 140.441  0.00  0.00    +0.000 C 
ATOM     34  C   UNL     1     113.575 127.240 139.963  0.00  0.00    +0.000 C 
ATOM     35  C   UNL     1     114.112 126.677 140.238  0.00  0.00    +0.000 C 
ENDBRANCH  25  30
ENDBRANCH  18  25
ENDBRANCH   6  20
BRANCH  13  38
ATOM     36  O   UNL     1     108.833 129.483 136.875  0.00  0.00    +0.000 OA
ATOM     37  O   UNL     1     107.928 128.575 135.835  0.00  0.00    +0.000 OA
ATOM     38  C   UNL     1     110.398 128.433 135.774  0.00  0.00    +0.000 A 
ATOM     39  C   UNL     1     110.027 128.934 136.314  0.00  0.00    +0.000 A 
ATOM     40  C   UNL     1     109.946 127.979 135.253  0.00  0.00    +0.000 A 
ATOM     41  C   UNL     1     109.204 128.981 136.334  0.00  0.00    +0.000 A 
ATOM     42  C   UNL     1     109.123 128.027 135.274  0.00  0.00    +0.000 A 
ATOM     43  C   UNL     1     108.751 128.528 135.815  0.00  0.00    +0.000 A 
ENDBRANCH  13  38
TORSDOF 5
ENDMDL
MODEL 7
REMARK VINA RESULT:     -10.3      2.631      4.684
REMARK  Name = 74977579
REMARK  5 active torsions:
REMARK  status: ('A' for Active; 'I' for Inactive)
REMARK    1  A    between atoms: O_1  and  C_17
REMARK    2  A    between atoms: O_1  and  C_22
REMARK    3  A    between atoms: C_19  and  C_27
REMARK    4  A    between atoms: C_21  and  C_28
REMARK    5  A    between atoms: C_36  and  C_38
REMARK                            x       y       z     vdW  Elec       q    Type
REMARK                         _______ _______ _______ _____ _____    ______ ____
ROOT
ATOM      1  O   UNL     1     110.712 128.201 137.035  0.00  0.00    +0.000 OA
ATOM      2  O   UNL     1     110.108 130.431 135.263  0.00  0.00    +0.000 OA
ATOM      3  O   UNL     1     108.136 128.328 135.732  0.00  0.00    +0.000 OA
ATOM      4  O   UNL     1     108.470 127.239 136.616  0.00  0.00    +0.000 OA
ATOM      5  O   UNL     1     109.523 126.468 137.626  0.00  0.00    +0.000 OA
ATOM      6  C   UNL     1     110.428 129.320 136.154  0.00  0.00    +0.000 A 
ATOM      7  C   UNL     1     110.186 128.585 136.529  0.00  0.00    +0.000 A 
ATOM      8  C   UNL     1     109.884 129.726 135.627  0.00  0.00    +0.000 A 
ATOM      9  C   UNL     1     109.439 128.265 136.390  0.00  0.00    +0.000 A 
ATOM     10  C   UNL     1     109.106 129.392 135.482  0.00  0.00    +0.000 A 
ATOM     11  C   UNL     1     108.882 128.656 135.866  0.00  0.00    +0.000 A 
ATOM     12  C   UNL     1     109.218 127.559 136.756  0.00  0.00    +0.000 A 
ATOM     13  C   UNL     1     110.491 127.495 137.401  0.00  0.00    +0.000 A 
ATOM     14  C   UNL     1     109.745 127.174 137.261  0.00  0.00    +0.000 A 
ENDROOT
BRANCH   6  20
ATOM     15  O   UNL     1     111.805 129.455 135.794  0.00  0.00    +0.000 OA
ATOM     16  O   UNL     1     112.170 130.930 137.748  0.00  0.00    +0.000 OA
ATOM     17  O   UNL     1     113.424 130.573 136.737  0.00  0.00    +0.000 OA
ATOM     18  C   UNL     1     111.299 130.125 136.951  0.00  0.00    +0.000 C 
ATOM     19  C   UNL     1     112.049 130.438 137.097  0.00  0.00    +0.000 C 
ATOM     20  C   UNL     1     111.178 129.633 136.300  0.00  0.00    +0.000 C 
ATOM     21  C   UNL     1     112.676 130.260 136.591  0.00  0.00    +0.000 C 
ATOM     22  C   UNL     1     112.553 129.768 135.940  0.00  0.00    +0.000 C 
BRANCH  22  24
ATOM     23  O   UNL     1     113.224 128.847 135.076  0.00  0.00    +0.000 OA
ATOM     24  C   UNL     1     113.180 129.590 135.434  0.00  0.00    +0.000 C 
ENDBRANCH  22  24
BRANCH  18  25
ATOM     25  O   UNL     1     110.672 130.303 137.457  0.00  0.00    +0.000 OA
BRANCH  25  30
ATOM     26  O   UNL     1     110.632 131.700 137.155  0.00  0.00    +0.000 OA
ATOM     27  O   UNL     1     110.238 130.627 139.015  0.00  0.00    +0.000 OA
ATOM     28  O   UNL     1     109.982 132.185 139.493  0.00  0.00    +0.000 OA
ATOM     29  O   UNL     1     110.159 133.420 138.413  0.00  0.00    +0.000 OA
ATOM     30  C   UNL     1     110.544 131.083 137.695  0.00  0.00    +0.000 C 
ATOM     31  C   UNL     1     110.327 131.245 138.474  0.00  0.00    +0.000 C 
ATOM     32  C   UNL     1     110.199 132.023 138.714  0.00  0.00    +0.000 C 
ATOM     33  C   UNL     1     110.287 132.640 138.174  0.00  0.00    +0.000 C 
ATOM     34  C   UNL     1     110.504 132.478 137.394  0.00  0.00    +0.000 C 
ATOM     35  C   UNL     1     110.593 133.096 136.854  0.00  0.00    +0.000 C 
ENDBRANCH  25  30
ENDBRANCH  18  25
ENDBRANCH   6  20
BRANCH  13  38
ATOM     36  O   UNL     1     112.687 125.708 137.794  0.00  0.00    +0.000 OA
ATOM     37  O   UNL     1     112.597 125.956 139.423  0.00  0.00    +0.000 OA
ATOM     38  C   UNL     1     111.018 127.110 137.906  0.00  0.00    +0.000 A 
ATOM     39  C   UNL     1     111.589 126.601 137.597  0.00  0.00    +0.000 A 
ATOM     40  C   UNL     1     110.973 127.235 138.720  0.00  0.00    +0.000 A 
ATOM     41  C   UNL     1     112.115 126.217 138.103  0.00  0.00    +0.000 A 
ATOM     42  C   UNL     1     111.499 126.850 139.225  0.00  0.00    +0.000 A 
ATOM     43  C   UNL     1     112.071 126.341 138.917  0.00  0.00    +0.000 A 
ENDBRANCH  13  38
TORSDOF 5
ENDMDL
MODEL 8
REMARK VINA RESULT:     -10.3      2.537      5.145
REMARK  Name = 74977579
REMARK  5 active torsions:
REMARK  status: ('A' for Active; 'I' for Inactive)
REMARK    1  A    between atoms: O_1  and  C_17
REMARK    2  A    between atoms: O_1  and  C_22
REMARK    3  A    between atoms: C_19  and  C_27
REMARK    4  A    between atoms: C_21  and  C_28
REMARK    5  A    between atoms: C_36  and  C_38
REMARK                            x       y       z     vdW  Elec       q    Type
REMARK                         _______ _______ _______ _____ _____    ______ ____
ROOT
ATOM      1  O   UNL     1     111.361 130.148 137.251  0.00  0.00    +0.000 OA
ATOM      2  O   UNL     1     111.728 128.883 134.653  0.00  0.00    +0.000 OA
ATOM      3  O   UNL     1     114.028 129.820 136.190  0.00  0.00    +0.000 OA
ATOM      4  O   UNL     1     113.809 130.441 137.473  0.00  0.00    +0.000 OA
ATOM      5  O   UNL     1     112.803 130.963 138.673  0.00  0.00    +0.000 OA
ATOM      6  C   UNL     1     111.526 129.515 135.954  0.00  0.00    +0.000 A 
ATOM      7  C   UNL     1     111.864 129.887 136.651  0.00  0.00    +0.000 A 
ATOM      8  C   UNL     1     112.044 129.241 135.326  0.00  0.00    +0.000 A 
ATOM      9  C   UNL     1     112.680 129.985 136.725  0.00  0.00    +0.000 A 
ATOM     10  C   UNL     1     112.894 129.343 135.403  0.00  0.00    +0.000 A 
ATOM     11  C   UNL     1     113.214 129.718 136.108  0.00  0.00    +0.000 A 
ATOM     12  C   UNL     1     112.993 130.344 137.400  0.00  0.00    +0.000 A 
ATOM     13  C   UNL     1     111.674 130.507 137.925  0.00  0.00    +0.000 A 
ATOM     14  C   UNL     1     112.490 130.604 137.999  0.00  0.00    +0.000 A 
ENDROOT
BRANCH   6  20
ATOM     15  O   UNL     1     110.256 129.997 135.508  0.00  0.00    +0.000 OA
ATOM     16  O   UNL     1     109.162 127.989 136.455  0.00  0.00    +0.000 OA
ATOM     17  O   UNL     1     108.258 129.140 135.693  0.00  0.00    +0.000 OA
ATOM     18  C   UNL     1     110.344 128.752 136.204  0.00  0.00    +0.000 C 
ATOM     19  C   UNL     1     109.526 128.658 136.139  0.00  0.00    +0.000 C 
ATOM     20  C   UNL     1     110.708 129.421 135.889  0.00  0.00    +0.000 C 
ATOM     21  C   UNL     1     109.074 129.234 135.758  0.00  0.00    +0.000 C 
ATOM     22  C   UNL     1     109.440 129.903 135.443  0.00  0.00    +0.000 C 
BRANCH  22  24
ATOM     23  O   UNL     1     109.170 131.278 135.159  0.00  0.00    +0.000 OA
ATOM     24  C   UNL     1     108.988 130.478 135.062  0.00  0.00    +0.000 C 
ENDBRANCH  22  24
BRANCH  18  25
ATOM     25  O   UNL     1     110.796 128.177 136.585  0.00  0.00    +0.000 OA
BRANCH  25  30
ATOM     26  O   UNL     1     110.555 127.171 135.599  0.00  0.00    +0.000 OA
ATOM     27  O   UNL     1     110.927 127.009 137.744  0.00  0.00    +0.000 OA
ATOM     28  O   UNL     1     110.752 125.420 137.337  0.00  0.00    +0.000 OA
ATOM     29  O   UNL     1     110.445 124.998 135.772  0.00  0.00    +0.000 OA
ATOM     30  C   UNL     1     110.708 127.382 136.381  0.00  0.00    +0.000 C 
ATOM     31  C   UNL     1     110.774 126.798 136.961  0.00  0.00    +0.000 C 
ATOM     32  C   UNL     1     110.686 126.004 136.758  0.00  0.00    +0.000 C 
ATOM     33  C   UNL     1     110.533 125.793 135.975  0.00  0.00    +0.000 C 
ATOM     34  C   UNL     1     110.467 126.377 135.396  0.00  0.00    +0.000 C 
ATOM     35  C   UNL     1     110.314 126.165 134.613  0.00  0.00    +0.000 C 
ENDBRANCH  25  30
ENDBRANCH  18  25
ENDBRANCH   6  20
BRANCH  13  38
ATOM     36  O   UNL     1     109.961 132.515 139.021  0.00  0.00    +0.000 OA
ATOM     37  O   UNL     1     109.661 131.547 140.325  0.00  0.00    +0.000 OA
ATOM     38  C   UNL     1     111.171 130.767 138.525  0.00  0.00    +0.000 A 
ATOM     39  C   UNL     1     110.818 131.511 138.473  0.00  0.00    +0.000 A 
ATOM     40  C   UNL     1     111.021 130.283 139.176  0.00  0.00    +0.000 A 
ATOM     41  C   UNL     1     110.315 131.770 139.073  0.00  0.00    +0.000 A 
ATOM     42  C   UNL     1     110.518 130.544 139.775  0.00  0.00    +0.000 A 
ATOM     43  C   UNL     1     110.164 131.288 139.725  0.00  0.00    +0.000 A 
ENDBRANCH  13  38
TORSDOF 5
ENDMDL
MODEL 9
REMARK VINA RESULT:     -10.3      2.662      4.269
REMARK  Name = 74977579
REMARK  5 active torsions:
REMARK  status: ('A' for Active; 'I' for Inactive)
REMARK    1  A    between atoms: O_1  and  C_17
REMARK    2  A    between atoms: O_1  and  C_22
REMARK    3  A    between atoms: C_19  and  C_27
REMARK    4  A    between atoms: C_21  and  C_28
REMARK    5  A    between atoms: C_36  and  C_38
REMARK                            x       y       z     vdW  Elec       q    Type
REMARK                         _______ _______ _______ _____ _____    ______ ____
ROOT
ATOM      1  O   UNL     1     110.133 130.061 136.688  0.00  0.00    +0.000 OA
ATOM      2  O   UNL     1     110.856 127.367 135.852  0.00  0.00    +0.000 OA
ATOM      3  O   UNL     1     108.092 128.291 135.662  0.00  0.00    +0.000 OA
ATOM      4  O   UNL     1     107.771 129.632 136.086  0.00  0.00    +0.000 OA
ATOM      5  O   UNL     1     108.212 131.099 136.699  0.00  0.00    +0.000 OA
ATOM      6  C   UNL     1     110.511 128.721 136.275  0.00  0.00    +0.000 A 
ATOM      7  C   UNL     1     109.912 129.328 136.381  0.00  0.00    +0.000 A 
ATOM      8  C   UNL     1     110.288 127.955 135.956  0.00  0.00    +0.000 A 
ATOM      9  C   UNL     1     109.125 129.185 136.181  0.00  0.00    +0.000 A 
ATOM     10  C   UNL     1     109.468 127.806 135.748  0.00  0.00    +0.000 A 
ATOM     11  C   UNL     1     108.882 128.426 135.860  0.00  0.00    +0.000 A 
ATOM     12  C   UNL     1     108.558 129.776 136.287  0.00  0.00    +0.000 A 
ATOM     13  C   UNL     1     109.566 130.652 136.794  0.00  0.00    +0.000 A 
ATOM     14  C   UNL     1     108.779 130.509 136.593  0.00  0.00    +0.000 A 
ENDROOT
BRANCH   6  20
ATOM     15  O   UNL     1     111.826 129.146 135.908  0.00  0.00    +0.000 OA
ATOM     16  O   UNL     1     112.593 128.783 138.232  0.00  0.00    +0.000 OA
ATOM     17  O   UNL     1     113.651 129.329 137.090  0.00  0.00    +0.000 OA
ATOM     18  C   UNL     1     111.552 128.752 137.254  0.00  0.00    +0.000 C 
ATOM     19  C   UNL     1     112.338 128.904 137.457  0.00  0.00    +0.000 C 
ATOM     20  C   UNL     1     111.297 128.873 136.479  0.00  0.00    +0.000 C 
ATOM     21  C   UNL     1     112.867 129.177 136.886  0.00  0.00    +0.000 C 
ATOM     22  C   UNL     1     112.610 129.297 136.111  0.00  0.00    +0.000 C 
BRANCH  22  24
ATOM     23  O   UNL     1     112.971 129.465 134.738  0.00  0.00    +0.000 OA
ATOM     24  C   UNL     1     113.139 129.570 135.540  0.00  0.00    +0.000 C 
ENDBRANCH  22  24
BRANCH  18  25
ATOM     25  O   UNL     1     111.023 128.479 137.825  0.00  0.00    +0.000 OA
BRANCH  25  30
ATOM     26  O   UNL     1     111.693 127.236 138.041  0.00  0.00    +0.000 OA
ATOM     27  O   UNL     1     110.555 128.502 139.407  0.00  0.00    +0.000 OA
ATOM     28  O   UNL     1     110.992 127.271 140.415  0.00  0.00    +0.000 OA
ATOM     29  O   UNL     1     111.896 126.016 139.840  0.00  0.00    +0.000 OA
ATOM     30  C   UNL     1     111.242 127.863 138.328  0.00  0.00    +0.000 C 
ATOM     31  C   UNL     1     111.008 127.875 139.120  0.00  0.00    +0.000 C 
ATOM     32  C   UNL     1     111.226 127.259 139.624  0.00  0.00    +0.000 C 
ATOM     33  C   UNL     1     111.678 126.632 139.336  0.00  0.00    +0.000 C 
ATOM     34  C   UNL     1     111.912 126.621 138.545  0.00  0.00    +0.000 C 
ATOM     35  C   UNL     1     112.364 125.993 138.258  0.00  0.00    +0.000 C 
ENDBRANCH  25  30
ENDBRANCH  18  25
ENDBRANCH   6  20
BRANCH  13  38
ATOM     36  O   UNL     1     110.019 132.362 139.039  0.00  0.00    +0.000 OA
ATOM     37  O   UNL     1     110.452 133.586 138.019  0.00  0.00    +0.000 OA
ATOM     38  C   UNL     1     109.788 131.385 137.101  0.00  0.00    +0.000 A 
ATOM     39  C   UNL     1     109.793 131.507 137.916  0.00  0.00    +0.000 A 
ATOM     40  C   UNL     1     110.004 131.996 136.590  0.00  0.00    +0.000 A 
ATOM     41  C   UNL     1     110.014 132.241 138.222  0.00  0.00    +0.000 A 
ATOM     42  C   UNL     1     110.226 132.729 136.897  0.00  0.00    +0.000 A 
ATOM     43  C   UNL     1     110.231 132.852 137.713  0.00  0.00    +0.000 A 
ENDBRANCH  13  38
TORSDOF 5
ENDMDL
MODEL 10
REMARK VINA RESULT:     -10.2      2.467      5.383
REMARK  Name = 74977579
REMARK  5 active torsions:
REMARK  status: ('A' for Active; 'I' for Inactive)
REMARK    1  A    between atoms: O_1  and  C_17
REMARK    2  A    between atoms: O_1  and  C_22
REMARK    3  A    between atoms: C_19  and  C_27
REMARK    4  A    between atoms: C_21  and  C_28
REMARK    5  A    between atoms: C_36  and  C_38
REMARK                            x       y       z     vdW  Elec       q    Type
REMARK                         _______ _______ _______ _____ _____    ______ ____
ROOT
ATOM      1  O   UNL     1     112.960 129.031 139.607  0.00  0.00    +0.000 OA
ATOM      2  O   UNL     1     110.887 127.826 137.953  0.00  0.00    +0.000 OA
ATOM      3  O   UNL     1     112.666 126.157 139.558  0.00  0.00    +0.000 OA
ATOM      4  O   UNL     1     113.681 126.787 140.366  0.00  0.00    +0.000 OA
ATOM      5  O   UNL     1     114.455 128.135 140.921  0.00  0.00    +0.000 OA
ATOM      6  C   UNL     1     111.921 128.447 138.777  0.00  0.00    +0.000 A 
ATOM      7  C   UNL     1     112.573 128.357 139.329  0.00  0.00    +0.000 A 
ATOM      8  C   UNL     1     111.514 127.749 138.484  0.00  0.00    +0.000 A 
ATOM      9  C   UNL     1     112.814 127.609 139.582  0.00  0.00    +0.000 A 
ATOM     10  C   UNL     1     111.764 126.971 138.747  0.00  0.00    +0.000 A 
ATOM     11  C   UNL     1     112.419 126.900 139.300  0.00  0.00    +0.000 A 
ATOM     12  C   UNL     1     113.441 127.536 140.113  0.00  0.00    +0.000 A 
ATOM     13  C   UNL     1     113.587 128.957 140.138  0.00  0.00    +0.000 A 
ATOM     14  C   UNL     1     113.828 128.210 140.391  0.00  0.00    +0.000 A 
ENDROOT
BRANCH   6  20
ATOM     15  O   UNL     1     111.289 129.699 139.050  0.00  0.00    +0.000 OA
ATOM     16  O   UNL     1     111.783 130.451 136.744  0.00  0.00    +0.000 OA
ATOM     17  O   UNL     1     110.986 131.453 137.786  0.00  0.00    +0.000 OA
ATOM     18  C   UNL     1     111.852 129.449 137.761  0.00  0.00    +0.000 C 
ATOM     19  C   UNL     1     111.618 130.201 137.513  0.00  0.00    +0.000 C 
ATOM     20  C   UNL     1     111.687 129.199 138.529  0.00  0.00    +0.000 C 
ATOM     21  C   UNL     1     111.220 130.702 138.034  0.00  0.00    +0.000 C 
ATOM     22  C   UNL     1     111.056 130.450 138.803  0.00  0.00    +0.000 C 
BRANCH  22  24
ATOM     23  O   UNL     1     110.156 130.635 139.898  0.00  0.00    +0.000 OA
ATOM     24  C   UNL     1     110.657 130.951 139.323  0.00  0.00    +0.000 C 
ENDBRANCH  22  24
BRANCH  18  25
ATOM     25  O   UNL     1     112.250 128.948 137.240  0.00  0.00    +0.000 OA
BRANCH  25  30
ATOM     26  O   UNL     1     113.386 129.800 137.081  0.00  0.00    +0.000 OA
ATOM     27  O   UNL     1     112.428 128.421 135.686  0.00  0.00    +0.000 OA
ATOM     28  O   UNL     1     113.652 129.010 134.750  0.00  0.00    +0.000 OA
ATOM     29  O   UNL     1     114.700 130.126 135.368  0.00  0.00    +0.000 OA
ATOM     30  C   UNL     1     112.863 129.243 136.772  0.00  0.00    +0.000 C 
ATOM     31  C   UNL     1     112.952 128.980 135.995  0.00  0.00    +0.000 C 
ATOM     32  C   UNL     1     113.564 129.274 135.527  0.00  0.00    +0.000 C 
ATOM     33  C   UNL     1     114.087 129.831 135.837  0.00  0.00    +0.000 C 
ATOM     34  C   UNL     1     113.998 130.094 136.613  0.00  0.00    +0.000 C 
ATOM     35  C   UNL     1     114.522 130.652 136.922  0.00  0.00    +0.000 C 
ENDBRANCH  25  30
ENDBRANCH  18  25
ENDBRANCH   6  20
BRANCH  13  38
ATOM     36  O   UNL     1     113.665 131.230 141.868  0.00  0.00    +0.000 OA
ATOM     37  O   UNL     1     115.135 131.652 141.246  0.00  0.00    +0.000 OA
ATOM     38  C   UNL     1     113.974 129.631 140.415  0.00  0.00    +0.000 A 
ATOM     39  C   UNL     1     113.626 130.094 141.003  0.00  0.00    +0.000 A 
ATOM     40  C   UNL     1     114.709 129.841 140.104  0.00  0.00    +0.000 A 
ATOM     41  C   UNL     1     114.014 130.767 141.279  0.00  0.00    +0.000 A 
ATOM     42  C   UNL     1     115.095 130.515 140.381  0.00  0.00    +0.000 A 
ATOM     43  C   UNL     1     114.748 130.979 140.969  0.00  0.00    +0.000 A 
ENDBRANCH  13  38
TORSDOF 5
ENDMDL
