MODEL 1
REMARK VINA RESULT:     -10.0      0.000      0.000
REMARK  Name = 131838796
REMARK  4 active torsions:
REMARK  status: ('A' for Active; 'I' for Inactive)
REMARK    1  A    between atoms: O_2  and  C_14
REMARK    2  A    between atoms: O_2  and  C_21
REMARK    3  A    between atoms: C_15  and  C_22
REMARK    4  A    between atoms: C_17  and  C_23
REMARK                            x       y       z     vdW  Elec       q    Type
REMARK                         _______ _______ _______ _____ _____    ______ ____
ROOT
ATOM      1  O   UNL     1     112.271 126.223 136.333  0.00  0.00    +0.000 OA
ATOM      2  O   UNL     1     112.165 124.065 136.639  0.00  0.00    +0.000 OA
ATOM      3  C   UNL     1     111.954 124.833 136.425  0.00  0.00    +0.000 C 
ATOM      4  C   UNL     1     112.482 125.455 136.547  0.00  0.00    +0.000 C 
ATOM      5  C   UNL     1     111.215 124.979 136.088  0.00  0.00    +0.000 C 
ATOM      6  C   UNL     1     111.004 125.747 135.873  0.00  0.00    +0.000 A 
ATOM      7  C   UNL     1     111.532 126.369 135.996  0.00  0.00    +0.000 A 
ATOM      8  C   UNL     1     110.555 127.331 135.425  0.00  0.00    +0.000 A 
ATOM      9  C   UNL     1     111.323 127.173 135.777  0.00  0.00    +0.000 A 
ATOM     10  C   UNL     1     110.232 125.885 135.523  0.00  0.00    +0.000 A 
ATOM     11  C   UNL     1     110.006 126.683 135.298  0.00  0.00    +0.000 A 
ENDROOT
BRANCH   4  13
ATOM     12  O   UNL     1     114.318 125.765 138.715  0.00  0.00    +0.000 OA
ATOM     13  C   UNL     1     113.221 125.309 136.884  0.00  0.00    +0.000 A 
ATOM     14  C   UNL     1     113.399 125.610 137.632  0.00  0.00    +0.000 A 
ATOM     15  C   UNL     1     113.780 124.862 136.474  0.00  0.00    +0.000 A 
ATOM     16  C   UNL     1     114.138 125.464 137.968  0.00  0.00    +0.000 A 
ATOM     17  C   UNL     1     114.518 124.717 136.811  0.00  0.00    +0.000 A 
ATOM     18  C   UNL     1     114.698 125.018 137.558  0.00  0.00    +0.000 A 
ENDBRANCH   4  13
BRANCH   8  19
ATOM     19  O   UNL     1     110.346 128.101 135.211  0.00  0.00    +0.000 OA
BRANCH  19  27
ATOM     20  O   UNL     1     110.041 128.544 136.535  0.00  0.00    +0.000 OA
ATOM     21  O   UNL     1     108.241 129.986 135.637  0.00  0.00    +0.000 OA
ATOM     22  O   UNL     1     109.147 129.062 134.612  0.00  0.00    +0.000 OA
ATOM     23  O   UNL     1     108.535 129.948 137.259  0.00  0.00    +0.000 OA
ATOM     24  C   UNL     1     108.841 129.505 135.936  0.00  0.00    +0.000 C 
ATOM     25  C   UNL     1     109.294 129.043 135.424  0.00  0.00    +0.000 C 
ATOM     26  C   UNL     1     108.988 129.486 136.748  0.00  0.00    +0.000 C 
ATOM     27  C   UNL     1     109.894 128.562 135.723  0.00  0.00    +0.000 C 
ATOM     28  C   UNL     1     109.588 129.005 137.047  0.00  0.00    +0.000 C 
BRANCH  28  31
ATOM     29  O   UNL     1     110.310 129.479 138.185  0.00  0.00    +0.000 OA
ATOM     30  O   UNL     1     109.307 128.474 138.343  0.00  0.00    +0.000 OA
ATOM     31  C   UNL     1     109.735 128.986 137.858  0.00  0.00    +0.000 C 
ENDBRANCH  28  31
ENDBRANCH  19  27
ENDBRANCH   8  19
TORSDOF 4
ENDMDL
MODEL 2
REMARK VINA RESULT:      -9.8     12.087     14.176
REMARK  Name = 131838796
REMARK  4 active torsions:
REMARK  status: ('A' for Active; 'I' for Inactive)
REMARK    1  A    between atoms: O_2  and  C_14
REMARK    2  A    between atoms: O_2  and  C_21
REMARK    3  A    between atoms: C_15  and  C_22
REMARK    4  A    between atoms: C_17  and  C_23
REMARK                            x       y       z     vdW  Elec       q    Type
REMARK                         _______ _______ _______ _____ _____    ______ ____
ROOT
ATOM      1  O   UNL     1     103.050 124.059 147.739  0.00  0.00    +0.000 OA
ATOM      2  O   UNL     1     101.293 125.354 147.687  0.00  0.00    +0.000 OA
ATOM      3  C   UNL     1     102.054 125.078 147.847  0.00  0.00    +0.000 C 
ATOM      4  C   UNL     1     102.289 124.334 147.579  0.00  0.00    +0.000 C 
ATOM      5  C   UNL     1     102.581 125.546 148.277  0.00  0.00    +0.000 C 
ATOM      6  C   UNL     1     103.341 125.271 148.438  0.00  0.00    +0.000 A 
ATOM      7  C   UNL     1     103.576 124.527 148.169  0.00  0.00    +0.000 A 
ATOM      8  C   UNL     1     104.919 124.713 148.777  0.00  0.00    +0.000 A 
ATOM      9  C   UNL     1     104.366 124.229 148.330  0.00  0.00    +0.000 A 
ATOM     10  C   UNL     1     103.880 125.768 148.886  0.00  0.00    +0.000 A 
ATOM     11  C   UNL     1     104.673 125.487 149.057  0.00  0.00    +0.000 A 
ENDROOT
BRANCH   4  13
ATOM     12  O   UNL     1     101.225 123.470 145.071  0.00  0.00    +0.000 OA
ATOM     13  C   UNL     1     101.763 123.866 147.149  0.00  0.00    +0.000 A 
ATOM     14  C   UNL     1     101.757 123.903 146.324  0.00  0.00    +0.000 A 
ATOM     15  C   UNL     1     101.242 123.362 147.544  0.00  0.00    +0.000 A 
ATOM     16  C   UNL     1     101.231 123.434 145.895  0.00  0.00    +0.000 A 
ATOM     17  C   UNL     1     100.717 122.894 147.114  0.00  0.00    +0.000 A 
ATOM     18  C   UNL     1     100.711 122.930 146.289  0.00  0.00    +0.000 A 
ENDBRANCH   4  13
BRANCH   8  19
ATOM     19  O   UNL     1     105.679 124.435 148.936  0.00  0.00    +0.000 OA
BRANCH  19  27
ATOM     20  O   UNL     1     106.172 124.897 147.677  0.00  0.00    +0.000 OA
ATOM     21  O   UNL     1     108.480 124.871 148.572  0.00  0.00    +0.000 OA
ATOM     22  O   UNL     1     107.217 124.417 149.532  0.00  0.00    +0.000 OA
ATOM     23  O   UNL     1     108.203 125.341 147.015  0.00  0.00    +0.000 OA
ATOM     24  C   UNL     1     107.710 124.880 148.273  0.00  0.00    +0.000 C 
ATOM     25  C   UNL     1     107.079 124.653 148.754  0.00  0.00    +0.000 C 
ATOM     26  C   UNL     1     107.572 125.115 147.495  0.00  0.00    +0.000 C 
ATOM     27  C   UNL     1     106.309 124.661 148.456  0.00  0.00    +0.000 C 
ATOM     28  C   UNL     1     106.802 125.123 147.197  0.00  0.00    +0.000 C 
BRANCH  28  31
ATOM     29  O   UNL     1     106.480 126.145 146.251  0.00  0.00    +0.000 OA
ATOM     30  O   UNL     1     106.712 124.807 145.807  0.00  0.00    +0.000 OA
ATOM     31  C   UNL     1     106.665 125.359 146.419  0.00  0.00    +0.000 C 
ENDBRANCH  28  31
ENDBRANCH  19  27
ENDBRANCH   8  19
TORSDOF 4
ENDMDL
MODEL 3
REMARK VINA RESULT:      -9.6      6.943      8.283
REMARK  Name = 131838796
REMARK  4 active torsions:
REMARK  status: ('A' for Active; 'I' for Inactive)
REMARK    1  A    between atoms: O_2  and  C_14
REMARK    2  A    between atoms: O_2  and  C_21
REMARK    3  A    between atoms: C_15  and  C_22
REMARK    4  A    between atoms: C_17  and  C_23
REMARK                            x       y       z     vdW  Elec       q    Type
REMARK                         _______ _______ _______ _____ _____    ______ ____
ROOT
ATOM      1  O   UNL     1     105.078 124.471 139.633  0.00  0.00    +0.000 OA
ATOM      2  O   UNL     1     103.865 122.740 140.176  0.00  0.00    +0.000 OA
ATOM      3  C   UNL     1     104.416 123.352 140.225  0.00  0.00    +0.000 C 
ATOM      4  C   UNL     1     104.527 123.859 139.584  0.00  0.00    +0.000 C 
ATOM      5  C   UNL     1     104.856 123.457 140.915  0.00  0.00    +0.000 C 
ATOM      6  C   UNL     1     105.406 124.069 140.964  0.00  0.00    +0.000 A 
ATOM      7  C   UNL     1     105.517 124.576 140.323  0.00  0.00    +0.000 A 
ATOM      8  C   UNL     1     106.549 125.332 141.079  0.00  0.00    +0.000 A 
ATOM      9  C   UNL     1     106.088 125.218 140.362  0.00  0.00    +0.000 A 
ATOM     10  C   UNL     1     105.858 124.168 141.688  0.00  0.00    +0.000 A 
ATOM     11  C   UNL     1     106.433 124.804 141.746  0.00  0.00    +0.000 A 
ENDROOT
BRANCH   4  13
ATOM     12  O   UNL     1     102.061 124.102 138.160  0.00  0.00    +0.000 OA
ATOM     13  C   UNL     1     104.087 123.754 138.894  0.00  0.00    +0.000 A 
ATOM     14  C   UNL     1     103.294 123.981 138.872  0.00  0.00    +0.000 A 
ATOM     15  C   UNL     1     104.440 123.422 138.226  0.00  0.00    +0.000 A 
ATOM     16  C   UNL     1     102.854 123.876 138.182  0.00  0.00    +0.000 A 
ATOM     17  C   UNL     1     104.000 123.318 137.537  0.00  0.00    +0.000 A 
ATOM     18  C   UNL     1     103.207 123.544 137.514  0.00  0.00    +0.000 A 
ENDBRANCH   4  13
BRANCH   8  19
ATOM     19  O   UNL     1     107.099 125.946 141.125  0.00  0.00    +0.000 OA
BRANCH  19  27
ATOM     20  O   UNL     1     106.222 126.993 141.542  0.00  0.00    +0.000 OA
ATOM     21  O   UNL     1     107.934 127.789 143.142  0.00  0.00    +0.000 OA
ATOM     22  O   UNL     1     108.241 126.476 142.191  0.00  0.00    +0.000 OA
ATOM     23  O   UNL     1     106.487 128.571 143.026  0.00  0.00    +0.000 OA
ATOM     24  C   UNL     1     107.363 127.524 142.609  0.00  0.00    +0.000 C 
ATOM     25  C   UNL     1     107.517 126.867 142.133  0.00  0.00    +0.000 C 
ATOM     26  C   UNL     1     106.639 127.915 142.551  0.00  0.00    +0.000 C 
ATOM     27  C   UNL     1     106.946 126.602 141.600  0.00  0.00    +0.000 C 
ATOM     28  C   UNL     1     106.069 127.649 142.017  0.00  0.00    +0.000 C 
BRANCH  28  31
ATOM     29  O   UNL     1     104.726 127.840 142.467  0.00  0.00    +0.000 OA
ATOM     30  O   UNL     1     105.240 128.632 141.395  0.00  0.00    +0.000 OA
ATOM     31  C   UNL     1     105.345 128.040 141.960  0.00  0.00    +0.000 C 
ENDBRANCH  28  31
ENDBRANCH  19  27
ENDBRANCH   8  19
TORSDOF 4
ENDMDL
MODEL 4
REMARK VINA RESULT:      -9.5      1.383      2.159
REMARK  Name = 131838796
REMARK  4 active torsions:
REMARK  status: ('A' for Active; 'I' for Inactive)
REMARK    1  A    between atoms: O_2  and  C_14
REMARK    2  A    between atoms: O_2  and  C_21
REMARK    3  A    between atoms: C_15  and  C_22
REMARK    4  A    between atoms: C_17  and  C_23
REMARK                            x       y       z     vdW  Elec       q    Type
REMARK                         _______ _______ _______ _____ _____    ______ ____
ROOT
ATOM      1  O   UNL     1     112.804 126.841 136.840  0.00  0.00    +0.000 OA
ATOM      2  O   UNL     1     113.680 126.373 138.784  0.00  0.00    +0.000 OA
ATOM      3  C   UNL     1     113.262 126.767 138.192  0.00  0.00    +0.000 C 
ATOM      4  C   UNL     1     113.222 126.447 137.433  0.00  0.00    +0.000 C 
ATOM      5  C   UNL     1     112.884 127.481 138.359  0.00  0.00    +0.000 C 
ATOM      6  C   UNL     1     112.466 127.875 137.766  0.00  0.00    +0.000 A 
ATOM      7  C   UNL     1     112.426 127.555 137.007  0.00  0.00    +0.000 A 
ATOM      8  C   UNL     1     111.599 128.700 136.549  0.00  0.00    +0.000 A 
ATOM      9  C   UNL     1     111.995 127.955 136.382  0.00  0.00    +0.000 A 
ATOM     10  C   UNL     1     112.077 128.618 137.953  0.00  0.00    +0.000 A 
ATOM     11  C   UNL     1     111.640 129.033 137.340  0.00  0.00    +0.000 A 
ENDROOT
BRANCH   4  13
ATOM     12  O   UNL     1     113.105 123.619 137.033  0.00  0.00    +0.000 OA
ATOM     13  C   UNL     1     113.600 125.732 137.266  0.00  0.00    +0.000 A 
ATOM     14  C   UNL     1     113.163 125.033 137.233  0.00  0.00    +0.000 A 
ATOM     15  C   UNL     1     114.414 125.718 137.132  0.00  0.00    +0.000 A 
ATOM     16  C   UNL     1     113.541 124.319 137.066  0.00  0.00    +0.000 A 
ATOM     17  C   UNL     1     114.791 125.004 136.965  0.00  0.00    +0.000 A 
ATOM     18  C   UNL     1     114.355 124.304 136.932  0.00  0.00    +0.000 A 
ENDBRANCH   4  13
BRANCH   8  19
ATOM     19  O   UNL     1     111.182 129.092 135.955  0.00  0.00    +0.000 OA
BRANCH  19  27
ATOM     20  O   UNL     1     110.020 128.262 136.023  0.00  0.00    +0.000 OA
ATOM     21  O   UNL     1     108.596 130.210 135.471  0.00  0.00    +0.000 OA
ATOM     22  O   UNL     1     110.233 130.390 135.587  0.00  0.00    +0.000 OA
ATOM     23  O   UNL     1     107.910 128.732 135.723  0.00  0.00    +0.000 OA
ATOM     24  C   UNL     1     109.071 129.561 135.655  0.00  0.00    +0.000 C 
ATOM     25  C   UNL     1     109.890 129.651 135.713  0.00  0.00    +0.000 C 
ATOM     26  C   UNL     1     108.728 128.821 135.781  0.00  0.00    +0.000 C 
ATOM     27  C   UNL     1     110.364 129.002 135.897  0.00  0.00    +0.000 C 
ATOM     28  C   UNL     1     109.203 128.172 135.965  0.00  0.00    +0.000 C 
BRANCH  28  31
ATOM     29  O   UNL     1     108.764 126.909 135.461  0.00  0.00    +0.000 OA
ATOM     30  O   UNL     1     108.610 127.217 136.847  0.00  0.00    +0.000 OA
ATOM     31  C   UNL     1     108.859 127.433 136.091  0.00  0.00    +0.000 C 
ENDBRANCH  28  31
ENDBRANCH  19  27
ENDBRANCH   8  19
TORSDOF 4
ENDMDL
MODEL 5
REMARK VINA RESULT:      -9.4      2.063      2.802
REMARK  Name = 131838796
REMARK  4 active torsions:
REMARK  status: ('A' for Active; 'I' for Inactive)
REMARK    1  A    between atoms: O_2  and  C_14
REMARK    2  A    between atoms: O_2  and  C_21
REMARK    3  A    between atoms: C_15  and  C_22
REMARK    4  A    between atoms: C_17  and  C_23
REMARK                            x       y       z     vdW  Elec       q    Type
REMARK                         _______ _______ _______ _____ _____    ______ ____
ROOT
ATOM      1  O   UNL     1     111.811 126.689 136.034  0.00  0.00    +0.000 OA
ATOM      2  O   UNL     1     110.260 125.333 135.313  0.00  0.00    +0.000 OA
ATOM      3  C   UNL     1     110.720 126.012 135.409  0.00  0.00    +0.000 C 
ATOM      4  C   UNL     1     111.352 126.011 135.939  0.00  0.00    +0.000 C 
ATOM      5  C   UNL     1     110.547 126.692 134.975  0.00  0.00    +0.000 C 
ATOM      6  C   UNL     1     111.006 127.370 135.070  0.00  0.00    +0.000 A 
ATOM      7  C   UNL     1     111.639 127.369 135.600  0.00  0.00    +0.000 A 
ATOM      8  C   UNL     1     111.949 128.781 135.259  0.00  0.00    +0.000 A 
ATOM      9  C   UNL     1     112.124 128.069 135.708  0.00  0.00    +0.000 A 
ATOM     10  C   UNL     1     110.816 128.072 134.612  0.00  0.00    +0.000 A 
ATOM     11  C   UNL     1     111.290 128.781 134.707  0.00  0.00    +0.000 A 
ENDROOT
BRANCH   4  13
ATOM     12  O   UNL     1     111.198 124.525 138.375  0.00  0.00    +0.000 OA
ATOM     13  C   UNL     1     111.525 125.331 136.373  0.00  0.00    +0.000 A 
ATOM     14  C   UNL     1     111.275 125.268 137.157  0.00  0.00    +0.000 A 
ATOM     15  C   UNL     1     111.948 124.714 136.024  0.00  0.00    +0.000 A 
ATOM     16  C   UNL     1     111.448 124.588 137.592  0.00  0.00    +0.000 A 
ATOM     17  C   UNL     1     112.120 124.035 136.459  0.00  0.00    +0.000 A 
ATOM     18  C   UNL     1     111.870 123.972 137.242  0.00  0.00    +0.000 A 
ENDBRANCH   4  13
BRANCH   8  19
ATOM     19  O   UNL     1     112.410 129.458 135.356  0.00  0.00    +0.000 OA
BRANCH  19  27
ATOM     20  O   UNL     1     111.513 130.157 136.221  0.00  0.00    +0.000 OA
ATOM     21  O   UNL     1     113.436 131.039 137.504  0.00  0.00    +0.000 OA
ATOM     22  O   UNL     1     113.692 130.046 136.212  0.00  0.00    +0.000 OA
ATOM     23  O   UNL     1     111.898 131.444 137.941  0.00  0.00    +0.000 OA
ATOM     24  C   UNL     1     112.795 130.745 137.077  0.00  0.00    +0.000 C 
ATOM     25  C   UNL     1     112.923 130.248 136.430  0.00  0.00    +0.000 C 
ATOM     26  C   UNL     1     112.026 130.947 137.294  0.00  0.00    +0.000 C 
ATOM     27  C   UNL     1     112.282 129.954 136.002  0.00  0.00    +0.000 C 
ATOM     28  C   UNL     1     111.384 130.654 136.867  0.00  0.00    +0.000 C 
BRANCH  28  31
ATOM     29  O   UNL     1     110.244 131.504 136.735  0.00  0.00    +0.000 OA
ATOM     30  O   UNL     1     110.218 130.410 137.654  0.00  0.00    +0.000 OA
ATOM     31  C   UNL     1     110.616 130.856 137.085  0.00  0.00    +0.000 C 
ENDBRANCH  28  31
ENDBRANCH  19  27
ENDBRANCH   8  19
TORSDOF 4
ENDMDL
MODEL 6
REMARK VINA RESULT:      -9.2      7.760     10.261
REMARK  Name = 131838796
REMARK  4 active torsions:
REMARK  status: ('A' for Active; 'I' for Inactive)
REMARK    1  A    between atoms: O_2  and  C_14
REMARK    2  A    between atoms: O_2  and  C_21
REMARK    3  A    between atoms: C_15  and  C_22
REMARK    4  A    between atoms: C_17  and  C_23
REMARK                            x       y       z     vdW  Elec       q    Type
REMARK                         _______ _______ _______ _____ _____    ______ ____
ROOT
ATOM      1  O   UNL     1     104.937 127.750 142.361  0.00  0.00    +0.000 OA
ATOM      2  O   UNL     1     105.741 129.637 141.615  0.00  0.00    +0.000 OA
ATOM      3  C   UNL     1     105.705 128.873 141.923  0.00  0.00    +0.000 C 
ATOM      4  C   UNL     1     104.973 128.515 142.053  0.00  0.00    +0.000 C 
ATOM      5  C   UNL     1     106.400 128.466 142.101  0.00  0.00    +0.000 C 
ATOM      6  C   UNL     1     106.364 127.701 142.409  0.00  0.00    +0.000 A 
ATOM      7  C   UNL     1     105.632 127.343 142.538  0.00  0.00    +0.000 A 
ATOM      8  C   UNL     1     106.303 126.119 143.046  0.00  0.00    +0.000 A 
ATOM      9  C   UNL     1     105.581 126.548 142.858  0.00  0.00    +0.000 A 
ATOM     10  C   UNL     1     107.095 127.289 142.589  0.00  0.00    +0.000 A 
ATOM     11  C   UNL     1     107.064 126.492 142.910  0.00  0.00    +0.000 A 
ENDROOT
BRANCH   4  13
ATOM     12  O   UNL     1     102.843 129.099 140.240  0.00  0.00    +0.000 OA
ATOM     13  C   UNL     1     104.277 128.921 141.875  0.00  0.00    +0.000 A 
ATOM     14  C   UNL     1     103.908 128.807 141.146  0.00  0.00    +0.000 A 
ATOM     15  C   UNL     1     103.952 129.442 142.426  0.00  0.00    +0.000 A 
ATOM     16  C   UNL     1     103.212 129.213 140.968  0.00  0.00    +0.000 A 
ATOM     17  C   UNL     1     103.256 129.848 142.248  0.00  0.00    +0.000 A 
ATOM     18  C   UNL     1     102.887 129.734 141.519  0.00  0.00    +0.000 A 
ENDBRANCH   4  13
BRANCH   8  19
ATOM     19  O   UNL     1     106.263 125.354 143.353  0.00  0.00    +0.000 OA
BRANCH  19  27
ATOM     20  O   UNL     1     106.493 125.697 144.721  0.00  0.00    +0.000 OA
ATOM     21  O   UNL     1     104.854 123.981 145.426  0.00  0.00    +0.000 OA
ATOM     22  O   UNL     1     105.171 124.210 143.823  0.00  0.00    +0.000 OA
ATOM     23  O   UNL     1     105.630 124.896 146.559  0.00  0.00    +0.000 OA
ATOM     24  C   UNL     1     105.401 124.553 145.191  0.00  0.00    +0.000 C 
ATOM     25  C   UNL     1     105.559 124.668 144.389  0.00  0.00    +0.000 C 
ATOM     26  C   UNL     1     105.789 125.011 145.757  0.00  0.00    +0.000 C 
ATOM     27  C   UNL     1     106.105 125.240 144.154  0.00  0.00    +0.000 C 
ATOM     28  C   UNL     1     106.335 125.583 145.522  0.00  0.00    +0.000 C 
BRANCH  28  31
ATOM     29  O   UNL     1     107.447 125.792 146.394  0.00  0.00    +0.000 OA
ATOM     30  O   UNL     1     106.384 126.746 146.350  0.00  0.00    +0.000 OA
ATOM     31  C   UNL     1     106.722 126.040 146.089  0.00  0.00    +0.000 C 
ENDBRANCH  28  31
ENDBRANCH  19  27
ENDBRANCH   8  19
TORSDOF 4
ENDMDL
MODEL 7
REMARK VINA RESULT:      -9.1      8.350     10.085
REMARK  Name = 131838796
REMARK  4 active torsions:
REMARK  status: ('A' for Active; 'I' for Inactive)
REMARK    1  A    between atoms: O_2  and  C_14
REMARK    2  A    between atoms: O_2  and  C_21
REMARK    3  A    between atoms: C_15  and  C_22
REMARK    4  A    between atoms: C_17  and  C_23
REMARK                            x       y       z     vdW  Elec       q    Type
REMARK                         _______ _______ _______ _____ _____    ______ ____
ROOT
ATOM      1  O   UNL     1     106.499 125.608 145.955  0.00  0.00    +0.000 OA
ATOM      2  O   UNL     1     106.860 127.150 147.458  0.00  0.00    +0.000 OA
ATOM      3  C   UNL     1     106.643 126.788 146.749  0.00  0.00    +0.000 C 
ATOM      4  C   UNL     1     106.716 125.970 146.664  0.00  0.00    +0.000 C 
ATOM      5  C   UNL     1     106.354 127.243 146.125  0.00  0.00    +0.000 C 
ATOM      6  C   UNL     1     106.137 126.881 145.416  0.00  0.00    +0.000 A 
ATOM      7  C   UNL     1     106.209 126.064 145.331  0.00  0.00    +0.000 A 
ATOM      8  C   UNL     1     105.684 126.144 143.944  0.00  0.00    +0.000 A 
ATOM      9  C   UNL     1     105.987 125.675 144.598  0.00  0.00    +0.000 A 
ATOM     10  C   UNL     1     105.837 127.366 144.774  0.00  0.00    +0.000 A 
ATOM     11  C   UNL     1     105.609 126.996 144.033  0.00  0.00    +0.000 A 
ENDROOT
BRANCH   4  13
ATOM     12  O   UNL     1     106.246 124.281 148.921  0.00  0.00    +0.000 OA
ATOM     13  C   UNL     1     107.006 125.515 147.288  0.00  0.00    +0.000 A 
ATOM     14  C   UNL     1     106.481 125.126 147.792  0.00  0.00    +0.000 A 
ATOM     15  C   UNL     1     107.819 125.449 147.408  0.00  0.00    +0.000 A 
ATOM     16  C   UNL     1     106.770 124.670 148.416  0.00  0.00    +0.000 A 
ATOM     17  C   UNL     1     108.108 124.993 148.031  0.00  0.00    +0.000 A 
ATOM     18  C   UNL     1     107.584 124.604 148.536  0.00  0.00    +0.000 A 
ENDBRANCH   4  13
BRANCH   8  19
ATOM     19  O   UNL     1     105.468 125.780 143.236  0.00  0.00    +0.000 OA
BRANCH  19  27
ATOM     20  O   UNL     1     106.617 126.201 142.498  0.00  0.00    +0.000 OA
ATOM     21  O   UNL     1     106.579 124.077 141.228  0.00  0.00    +0.000 OA
ATOM     22  O   UNL     1     105.443 124.364 142.389  0.00  0.00    +0.000 OA
ATOM     23  O   UNL     1     107.741 125.205 140.915  0.00  0.00    +0.000 OA
ATOM     24  C   UNL     1     106.592 124.785 141.652  0.00  0.00    +0.000 C 
ATOM     25  C   UNL     1     106.023 124.929 142.233  0.00  0.00    +0.000 C 
ATOM     26  C   UNL     1     107.173 125.349 141.495  0.00  0.00    +0.000 C 
ATOM     27  C   UNL     1     106.036 125.636 142.656  0.00  0.00    +0.000 C 
ATOM     28  C   UNL     1     107.185 126.057 141.918  0.00  0.00    +0.000 C 
BRANCH  28  31
ATOM     29  O   UNL     1     108.484 126.599 142.168  0.00  0.00    +0.000 OA
ATOM     30  O   UNL     1     107.629 127.207 141.197  0.00  0.00    +0.000 OA
ATOM     31  C   UNL     1     107.766 126.621 141.761  0.00  0.00    +0.000 C 
ENDBRANCH  28  31
ENDBRANCH  19  27
ENDBRANCH   8  19
TORSDOF 4
ENDMDL
MODEL 8
REMARK VINA RESULT:      -9.1      3.458      4.827
REMARK  Name = 131838796
REMARK  4 active torsions:
REMARK  status: ('A' for Active; 'I' for Inactive)
REMARK    1  A    between atoms: O_2  and  C_14
REMARK    2  A    between atoms: O_2  and  C_21
REMARK    3  A    between atoms: C_15  and  C_22
REMARK    4  A    between atoms: C_17  and  C_23
REMARK                            x       y       z     vdW  Elec       q    Type
REMARK                         _______ _______ _______ _____ _____    ______ ____
ROOT
ATOM      1  O   UNL     1     113.288 126.783 138.404  0.00  0.00    +0.000 OA
ATOM      2  O   UNL     1     112.389 126.780 136.415  0.00  0.00    +0.000 OA
ATOM      3  C   UNL     1     112.545 126.982 137.199  0.00  0.00    +0.000 C 
ATOM      4  C   UNL     1     113.132 126.581 137.619  0.00  0.00    +0.000 C 
ATOM      5  C   UNL     1     112.115 127.583 137.564  0.00  0.00    +0.000 C 
ATOM      6  C   UNL     1     112.271 127.785 138.349  0.00  0.00    +0.000 A 
ATOM      7  C   UNL     1     112.857 127.385 138.769  0.00  0.00    +0.000 A 
ATOM      8  C   UNL     1     112.583 128.211 139.972  0.00  0.00    +0.000 A 
ATOM      9  C   UNL     1     113.029 127.585 139.586  0.00  0.00    +0.000 A 
ATOM     10  C   UNL     1     111.815 128.413 138.717  0.00  0.00    +0.000 A 
ATOM     11  C   UNL     1     111.973 128.628 139.534  0.00  0.00    +0.000 A 
ENDROOT
BRANCH   4  13
ATOM     12  O   UNL     1     113.522 123.805 137.062  0.00  0.00    +0.000 OA
ATOM     13  C   UNL     1     113.562 125.979 137.254  0.00  0.00    +0.000 A 
ATOM     14  C   UNL     1     113.326 125.193 137.341  0.00  0.00    +0.000 A 
ATOM     15  C   UNL     1     114.228 126.163 136.803  0.00  0.00    +0.000 A 
ATOM     16  C   UNL     1     113.757 124.591 136.976  0.00  0.00    +0.000 A 
ATOM     17  C   UNL     1     114.658 125.561 136.439  0.00  0.00    +0.000 A 
ATOM     18  C   UNL     1     114.423 124.775 136.525  0.00  0.00    +0.000 A 
ENDBRANCH   4  13
BRANCH   8  19
ATOM     19  O   UNL     1     112.741 128.411 140.757  0.00  0.00    +0.000 OA
BRANCH  19  27
ATOM     20  O   UNL     1     113.719 129.420 140.496  0.00  0.00    +0.000 OA
ATOM     21  O   UNL     1     112.816 130.777 142.358  0.00  0.00    +0.000 OA
ATOM     22  O   UNL     1     112.139 129.316 141.998  0.00  0.00    +0.000 OA
ATOM     23  O   UNL     1     114.094 131.333 141.476  0.00  0.00    +0.000 OA
ATOM     24  C   UNL     1     113.117 130.325 141.737  0.00  0.00    +0.000 C 
ATOM     25  C   UNL     1     112.779 129.593 141.557  0.00  0.00    +0.000 C 
ATOM     26  C   UNL     1     113.756 130.602 141.296  0.00  0.00    +0.000 C 
ATOM     27  C   UNL     1     113.080 129.141 140.936  0.00  0.00    +0.000 C 
ATOM     28  C   UNL     1     114.057 130.150 140.675  0.00  0.00    +0.000 C 
BRANCH  28  31
ATOM     29  O   UNL     1     115.465 130.202 140.433  0.00  0.00    +0.000 OA
ATOM     30  O   UNL     1     114.567 130.932 139.595  0.00  0.00    +0.000 OA
ATOM     31  C   UNL     1     114.696 130.428 140.235  0.00  0.00    +0.000 C 
ENDBRANCH  28  31
ENDBRANCH  19  27
ENDBRANCH   8  19
TORSDOF 4
ENDMDL
MODEL 9
REMARK VINA RESULT:      -9.0      3.123      4.645
REMARK  Name = 131838796
REMARK  4 active torsions:
REMARK  status: ('A' for Active; 'I' for Inactive)
REMARK    1  A    between atoms: O_2  and  C_14
REMARK    2  A    between atoms: O_2  and  C_21
REMARK    3  A    between atoms: C_15  and  C_22
REMARK    4  A    between atoms: C_17  and  C_23
REMARK                            x       y       z     vdW  Elec       q    Type
REMARK                         _______ _______ _______ _____ _____    ______ ____
ROOT
ATOM      1  O   UNL     1     113.411 126.425 138.500  0.00  0.00    +0.000 OA
ATOM      2  O   UNL     1     113.321 127.044 136.409  0.00  0.00    +0.000 OA
ATOM      3  C   UNL     1     113.288 127.073 137.233  0.00  0.00    +0.000 C 
ATOM      4  C   UNL     1     113.444 126.395 137.676  0.00  0.00    +0.000 C 
ATOM      5  C   UNL     1     113.099 127.781 137.613  0.00  0.00    +0.000 C 
ATOM      6  C   UNL     1     113.066 127.810 138.437  0.00  0.00    +0.000 A 
ATOM      7  C   UNL     1     113.222 127.132 138.881  0.00  0.00    +0.000 A 
ATOM      8  C   UNL     1     112.994 127.884 140.141  0.00  0.00    +0.000 A 
ATOM      9  C   UNL     1     113.191 127.150 139.739  0.00  0.00    +0.000 A 
ATOM     10  C   UNL     1     112.868 128.552 138.821  0.00  0.00    +0.000 A 
ATOM     11  C   UNL     1     112.832 128.590 139.679  0.00  0.00    +0.000 A 
ENDROOT
BRANCH   4  13
ATOM     12  O   UNL     1     112.636 123.885 136.575  0.00  0.00    +0.000 OA
ATOM     13  C   UNL     1     113.633 125.688 137.296  0.00  0.00    +0.000 A 
ATOM     14  C   UNL     1     113.040 125.140 137.126  0.00  0.00    +0.000 A 
ATOM     15  C   UNL     1     114.415 125.529 137.086  0.00  0.00    +0.000 A 
ATOM     16  C   UNL     1     113.229 124.433 136.745  0.00  0.00    +0.000 A 
ATOM     17  C   UNL     1     114.603 124.822 136.706  0.00  0.00    +0.000 A 
ATOM     18  C   UNL     1     114.011 124.274 136.535  0.00  0.00    +0.000 A 
ENDBRANCH   4  13
BRANCH   8  19
ATOM     19  O   UNL     1     112.962 127.911 140.965  0.00  0.00    +0.000 OA
BRANCH  19  27
ATOM     20  O   UNL     1     111.678 127.306 141.131  0.00  0.00    +0.000 OA
ATOM     21  O   UNL     1     111.159 128.905 142.947  0.00  0.00    +0.000 OA
ATOM     22  O   UNL     1     112.616 128.977 142.176  0.00  0.00    +0.000 OA
ATOM     23  O   UNL     1     110.049 127.768 142.507  0.00  0.00    +0.000 OA
ATOM     24  C   UNL     1     111.332 128.372 142.342  0.00  0.00    +0.000 C 
ATOM     25  C   UNL     1     112.061 128.408 141.956  0.00  0.00    +0.000 C 
ATOM     26  C   UNL     1     110.777 127.803 142.121  0.00  0.00    +0.000 C 
ATOM     27  C   UNL     1     112.234 127.875 141.350  0.00  0.00    +0.000 C 
ATOM     28  C   UNL     1     110.950 127.270 141.516  0.00  0.00    +0.000 C 
BRANCH  28  31
ATOM     29  O   UNL     1     110.424 125.946 141.627  0.00  0.00    +0.000 OA
ATOM     30  O   UNL     1     109.810 126.888 140.746  0.00  0.00    +0.000 OA
ATOM     31  C   UNL     1     110.395 126.701 141.296  0.00  0.00    +0.000 C 
ENDBRANCH  28  31
ENDBRANCH  19  27
ENDBRANCH   8  19
TORSDOF 4
ENDMDL
