MODEL 1
REMARK VINA RESULT:      -8.4      0.000      0.000
REMARK  Name = 21721816
REMARK  2 active torsions:
REMARK  status: ('A' for Active; 'I' for Inactive)
REMARK    1  A    between atoms: O_2  and  C_11
REMARK    2  A    between atoms: C_5  and  C_10
REMARK                            x       y       z     vdW  Elec       q    Type
REMARK                         _______ _______ _______ _____ _____    ______ ____
ROOT
ATOM      1  O   UNL     1     105.473 124.315 147.291  0.00  0.00    +0.000 OA
ATOM      2  O   UNL     1     103.789 125.323 148.891  0.00  0.00    +0.000 OA
ATOM      3  O   UNL     1     103.301 123.506 145.579  0.00  0.00    +0.000 OA
ATOM      4  C   UNL     1     105.750 124.696 148.009  0.00  0.00    +0.000 C 
ATOM      5  C   UNL     1     105.182 125.039 148.554  0.00  0.00    +0.000 C 
ATOM      6  C   UNL     1     104.083 124.610 147.651  0.00  0.00    +0.000 A 
ATOM      7  C   UNL     1     104.629 124.281 147.128  0.00  0.00    +0.000 A 
ATOM      8  C   UNL     1     104.343 124.996 148.374  0.00  0.00    +0.000 C 
ATOM      9  C   UNL     1     103.277 124.571 147.484  0.00  0.00    +0.000 A 
ATOM     10  C   UNL     1     103.016 124.204 146.793  0.00  0.00    +0.000 A 
ATOM     11  C   UNL     1     104.369 123.913 146.437  0.00  0.00    +0.000 A 
ATOM     12  C   UNL     1     103.562 123.874 146.269  0.00  0.00    +0.000 A 
ATOM     13  C   UNL     1     102.209 124.165 146.625  0.00  0.00    +0.000 C 
ENDROOT
BRANCH   4  14
ATOM     14  C   UNL     1     106.558 124.733 148.173  0.00  0.00    +0.000 A 
ATOM     15  C   UNL     1     107.066 125.136 147.662  0.00  0.00    +0.000 A 
ATOM     16  C   UNL     1     106.858 124.367 148.848  0.00  0.00    +0.000 A 
ATOM     17  C   UNL     1     107.874 125.172 147.827  0.00  0.00    +0.000 A 
ATOM     18  C   UNL     1     107.666 124.403 149.013  0.00  0.00    +0.000 A 
ATOM     19  C   UNL     1     108.174 124.806 148.503  0.00  0.00    +0.000 A 
ENDBRANCH   4  14
BRANCH   9  20
ATOM     20  O   UNL     1     102.731 124.901 148.007  0.00  0.00    +0.000 OA
ATOM     21  C   UNL     1     102.311 124.415 148.526  0.00  0.00    +0.000 C 
ENDBRANCH   9  20
TORSDOF 2
ENDMDL
MODEL 2
REMARK VINA RESULT:      -8.2     13.349     13.877
REMARK  Name = 21721816
REMARK  2 active torsions:
REMARK  status: ('A' for Active; 'I' for Inactive)
REMARK    1  A    between atoms: O_2  and  C_11
REMARK    2  A    between atoms: C_5  and  C_10
REMARK                            x       y       z     vdW  Elec       q    Type
REMARK                         _______ _______ _______ _____ _____    ______ ____
ROOT
ATOM      1  O   UNL     1     112.692 126.599 136.288  0.00  0.00    +0.000 OA
ATOM      2  O   UNL     1     110.745 125.029 135.896  0.00  0.00    +0.000 OA
ATOM      3  O   UNL     1     111.110 128.761 135.227  0.00  0.00    +0.000 OA
ATOM      4  C   UNL     1     112.771 125.770 136.497  0.00  0.00    +0.000 C 
ATOM      5  C   UNL     1     112.112 125.235 136.365  0.00  0.00    +0.000 C 
ATOM      6  C   UNL     1     111.321 126.369 135.823  0.00  0.00    +0.000 A 
ATOM      7  C   UNL     1     111.954 126.883 135.950  0.00  0.00    +0.000 A 
ATOM      8  C   UNL     1     111.383 125.535 136.026  0.00  0.00    +0.000 C 
ATOM      9  C   UNL     1     110.619 126.652 135.498  0.00  0.00    +0.000 A 
ATOM     10  C   UNL     1     110.547 127.449 135.299  0.00  0.00    +0.000 A 
ATOM     11  C   UNL     1     111.884 127.680 135.751  0.00  0.00    +0.000 A 
ATOM     12  C   UNL     1     111.180 127.964 135.425  0.00  0.00    +0.000 A 
ATOM     13  C   UNL     1     109.845 127.733 134.974  0.00  0.00    +0.000 C 
ENDROOT
BRANCH   4  14
ATOM     14  C   UNL     1     113.476 125.490 136.822  0.00  0.00    +0.000 A 
ATOM     15  C   UNL     1     113.611 125.554 137.634  0.00  0.00    +0.000 A 
ATOM     16  C   UNL     1     114.046 125.146 136.335  0.00  0.00    +0.000 A 
ATOM     17  C   UNL     1     114.316 125.274 137.958  0.00  0.00    +0.000 A 
ATOM     18  C   UNL     1     114.751 124.865 136.660  0.00  0.00    +0.000 A 
ATOM     19  C   UNL     1     114.886 124.930 137.471  0.00  0.00    +0.000 A 
ENDBRANCH   4  14
BRANCH   9  20
ATOM     20  O   UNL     1     109.986 126.138 135.372  0.00  0.00    +0.000 OA
ATOM     21  C   UNL     1     109.834 125.848 134.613  0.00  0.00    +0.000 C 
ENDBRANCH   9  20
TORSDOF 2
ENDMDL
MODEL 3
REMARK VINA RESULT:      -8.2     13.482     13.900
REMARK  Name = 21721816
REMARK  2 active torsions:
REMARK  status: ('A' for Active; 'I' for Inactive)
REMARK    1  A    between atoms: O_2  and  C_11
REMARK    2  A    between atoms: C_5  and  C_10
REMARK                            x       y       z     vdW  Elec       q    Type
REMARK                         _______ _______ _______ _____ _____    ______ ____
ROOT
ATOM      1  O   UNL     1     112.223 125.598 136.152  0.00  0.00    +0.000 OA
ATOM      2  O   UNL     1     112.118 128.127 136.077  0.00  0.00    +0.000 OA
ATOM      3  O   UNL     1     109.650 125.492 134.859  0.00  0.00    +0.000 OA
ATOM      4  C   UNL     1     112.874 126.057 136.475  0.00  0.00    +0.000 C 
ATOM      5  C   UNL     1     112.841 126.915 136.451  0.00  0.00    +0.000 C 
ATOM      6  C   UNL     1     111.516 126.829 135.786  0.00  0.00    +0.000 A 
ATOM      7  C   UNL     1     111.548 126.005 135.809  0.00  0.00    +0.000 A 
ATOM      8  C   UNL     1     112.158 127.303 136.105  0.00  0.00    +0.000 C 
ATOM      9  C   UNL     1     110.863 127.207 135.454  0.00  0.00    +0.000 A 
ATOM     10  C   UNL     1     110.241 126.762 135.145  0.00  0.00    +0.000 A 
ATOM     11  C   UNL     1     110.926 125.559 135.500  0.00  0.00    +0.000 A 
ATOM     12  C   UNL     1     110.272 125.938 135.168  0.00  0.00    +0.000 A 
ATOM     13  C   UNL     1     109.587 127.141 134.814  0.00  0.00    +0.000 C 
ENDROOT
BRANCH   4  14
ATOM     14  C   UNL     1     113.526 125.674 136.806  0.00  0.00    +0.000 A 
ATOM     15  C   UNL     1     114.092 125.325 136.318  0.00  0.00    +0.000 A 
ATOM     16  C   UNL     1     113.612 125.641 137.626  0.00  0.00    +0.000 A 
ATOM     17  C   UNL     1     114.744 124.943 136.650  0.00  0.00    +0.000 A 
ATOM     18  C   UNL     1     114.264 125.259 137.958  0.00  0.00    +0.000 A 
ATOM     19  C   UNL     1     114.829 124.910 137.470  0.00  0.00    +0.000 A 
ENDBRANCH   4  14
BRANCH   9  20
ATOM     20  O   UNL     1     110.832 128.031 135.432  0.00  0.00    +0.000 OA
ATOM     21  C   UNL     1     110.994 128.431 134.728  0.00  0.00    +0.000 C 
ENDBRANCH   9  20
TORSDOF 2
ENDMDL
MODEL 4
REMARK VINA RESULT:      -8.1      2.433      3.289
REMARK  Name = 21721816
REMARK  2 active torsions:
REMARK  status: ('A' for Active; 'I' for Inactive)
REMARK    1  A    between atoms: O_2  and  C_11
REMARK    2  A    between atoms: C_5  and  C_10
REMARK                            x       y       z     vdW  Elec       q    Type
REMARK                         _______ _______ _______ _____ _____    ______ ____
ROOT
ATOM      1  O   UNL     1     106.508 124.918 146.816  0.00  0.00    +0.000 OA
ATOM      2  O   UNL     1     107.345 127.259 146.338  0.00  0.00    +0.000 OA
ATOM      3  O   UNL     1     105.366 124.829 144.172  0.00  0.00    +0.000 OA
ATOM      4  C   UNL     1     106.947 125.340 147.422  0.00  0.00    +0.000 C 
ATOM      5  C   UNL     1     107.232 126.134 147.263  0.00  0.00    +0.000 C 
ATOM      6  C   UNL     1     106.633 126.060 145.906  0.00  0.00    +0.000 A 
ATOM      7  C   UNL     1     106.359 125.297 146.059  0.00  0.00    +0.000 A 
ATOM      8  C   UNL     1     107.075 126.497 146.500  0.00  0.00    +0.000 C 
ATOM      9  C   UNL     1     106.485 126.412 145.175  0.00  0.00    +0.000 A 
ATOM     10  C   UNL     1     106.063 126.003 144.597  0.00  0.00    +0.000 A 
ATOM     11  C   UNL     1     105.937 124.886 145.481  0.00  0.00    +0.000 A 
ATOM     12  C   UNL     1     105.788 125.240 144.750  0.00  0.00    +0.000 A 
ATOM     13  C   UNL     1     105.914 126.355 143.867  0.00  0.00    +0.000 C 
ENDROOT
BRANCH   4  14
ATOM     14  C   UNL     1     107.094 124.984 148.152  0.00  0.00    +0.000 A 
ATOM     15  C   UNL     1     106.471 124.839 148.673  0.00  0.00    +0.000 A 
ATOM     16  C   UNL     1     107.864 124.772 148.360  0.00  0.00    +0.000 A 
ATOM     17  C   UNL     1     106.618 124.483 149.403  0.00  0.00    +0.000 A 
ATOM     18  C   UNL     1     108.011 124.416 149.089  0.00  0.00    +0.000 A 
ATOM     19  C   UNL     1     107.388 124.272 149.611  0.00  0.00    +0.000 A 
ENDBRANCH   4  14
BRANCH   9  20
ATOM     20  O   UNL     1     106.759 127.175 145.023  0.00  0.00    +0.000 OA
ATOM     21  C   UNL     1     106.240 127.816 145.062  0.00  0.00    +0.000 C 
ENDBRANCH   9  20
TORSDOF 2
ENDMDL
MODEL 5
REMARK VINA RESULT:      -8.1     12.968     14.417
REMARK  Name = 21721816
REMARK  2 active torsions:
REMARK  status: ('A' for Active; 'I' for Inactive)
REMARK    1  A    between atoms: O_2  and  C_11
REMARK    2  A    between atoms: C_5  and  C_10
REMARK                            x       y       z     vdW  Elec       q    Type
REMARK                         _______ _______ _______ _____ _____    ______ ____
ROOT
ATOM      1  O   UNL     1     113.955 127.043 136.615  0.00  0.00    +0.000 OA
ATOM      2  O   UNL     1     111.603 126.333 136.004  0.00  0.00    +0.000 OA
ATOM      3  O   UNL     1     114.547 124.319 137.341  0.00  0.00    +0.000 OA
ATOM      4  C   UNL     1     113.400 127.630 136.322  0.00  0.00    +0.000 C 
ATOM      5  C   UNL     1     112.601 127.392 136.114  0.00  0.00    +0.000 C 
ATOM      6  C   UNL     1     112.936 125.997 136.496  0.00  0.00    +0.000 A 
ATOM      7  C   UNL     1     113.703 126.225 136.696  0.00  0.00    +0.000 A 
ATOM      8  C   UNL     1     112.368 126.570 136.201  0.00  0.00    +0.000 C 
ATOM      9  C   UNL     1     112.706 125.209 136.578  0.00  0.00    +0.000 A 
ATOM     10  C   UNL     1     113.243 124.649 136.859  0.00  0.00    +0.000 A 
ATOM     11  C   UNL     1     114.240 125.666 136.977  0.00  0.00    +0.000 A 
ATOM     12  C   UNL     1     114.010 124.878 137.059  0.00  0.00    +0.000 A 
ATOM     13  C   UNL     1     113.013 123.862 136.941  0.00  0.00    +0.000 C 
ENDROOT
BRANCH   4  14
ATOM     14  C   UNL     1     113.634 128.418 136.241  0.00  0.00    +0.000 A 
ATOM     15  C   UNL     1     113.449 128.966 136.829  0.00  0.00    +0.000 A 
ATOM     16  C   UNL     1     114.053 128.657 135.572  0.00  0.00    +0.000 A 
ATOM     17  C   UNL     1     113.683 129.753 136.748  0.00  0.00    +0.000 A 
ATOM     18  C   UNL     1     114.287 129.444 135.490  0.00  0.00    +0.000 A 
ATOM     19  C   UNL     1     114.102 129.992 136.079  0.00  0.00    +0.000 A 
ENDBRANCH   4  14
BRANCH   9  20
ATOM     20  O   UNL     1     111.939 124.981 136.378  0.00  0.00    +0.000 OA
ATOM     21  C   UNL     1     111.378 124.856 136.970  0.00  0.00    +0.000 C 
ENDBRANCH   9  20
TORSDOF 2
ENDMDL
MODEL 6
REMARK VINA RESULT:      -8.0      0.725      1.735
REMARK  Name = 21721816
REMARK  2 active torsions:
REMARK  status: ('A' for Active; 'I' for Inactive)
REMARK    1  A    between atoms: O_2  and  C_11
REMARK    2  A    between atoms: C_5  and  C_10
REMARK                            x       y       z     vdW  Elec       q    Type
REMARK                         _______ _______ _______ _____ _____    ______ ____
ROOT
ATOM      1  O   UNL     1     104.798 124.912 147.910  0.00  0.00    +0.000 OA
ATOM      2  O   UNL     1     104.444 123.683 145.725  0.00  0.00    +0.000 OA
ATOM      3  O   UNL     1     101.941 125.157 148.190  0.00  0.00    +0.000 OA
ATOM      4  C   UNL     1     105.480 124.639 147.465  0.00  0.00    +0.000 C 
ATOM      5  C   UNL     1     105.364 124.222 146.723  0.00  0.00    +0.000 C 
ATOM      6  C   UNL     1     103.895 124.363 146.895  0.00  0.00    +0.000 A 
ATOM      7  C   UNL     1     104.007 124.764 147.607  0.00  0.00    +0.000 A 
ATOM      8  C   UNL     1     104.566 124.083 146.436  0.00  0.00    +0.000 C 
ATOM      9  C   UNL     1     103.132 124.227 146.615  0.00  0.00    +0.000 A 
ATOM     10  C   UNL     1     102.480 124.491 147.046  0.00  0.00    +0.000 A 
ATOM     11  C   UNL     1     103.357 125.029 148.039  0.00  0.00    +0.000 A 
ATOM     12  C   UNL     1     102.592 124.892 147.758  0.00  0.00    +0.000 A 
ATOM     13  C   UNL     1     101.717 124.355 146.766  0.00  0.00    +0.000 C 
ENDROOT
BRANCH   4  14
ATOM     14  C   UNL     1     106.243 124.777 147.749  0.00  0.00    +0.000 A 
ATOM     15  C   UNL     1     106.766 125.246 147.316  0.00  0.00    +0.000 A 
ATOM     16  C   UNL     1     106.482 124.446 148.466  0.00  0.00    +0.000 A 
ATOM     17  C   UNL     1     107.529 125.383 147.601  0.00  0.00    +0.000 A 
ATOM     18  C   UNL     1     107.244 124.583 148.750  0.00  0.00    +0.000 A 
ATOM     19  C   UNL     1     107.767 125.052 148.318  0.00  0.00    +0.000 A 
ENDBRANCH   4  14
BRANCH   9  20
ATOM     20  O   UNL     1     103.020 123.826 145.902  0.00  0.00    +0.000 OA
ATOM     21  C   UNL     1     102.820 123.025 145.906  0.00  0.00    +0.000 C 
ENDBRANCH   9  20
TORSDOF 2
ENDMDL
MODEL 7
REMARK VINA RESULT:      -8.0      1.174      4.007
REMARK  Name = 21721816
REMARK  2 active torsions:
REMARK  status: ('A' for Active; 'I' for Inactive)
REMARK    1  A    between atoms: O_2  and  C_11
REMARK    2  A    between atoms: C_5  and  C_10
REMARK                            x       y       z     vdW  Elec       q    Type
REMARK                         _______ _______ _______ _____ _____    ______ ____
ROOT
ATOM      1  O   UNL     1     104.083 124.353 146.045  0.00  0.00    +0.000 OA
ATOM      2  O   UNL     1     104.700 124.569 148.491  0.00  0.00    +0.000 OA
ATOM      3  O   UNL     1     106.700 125.329 145.339  0.00  0.00    +0.000 OA
ATOM      4  C   UNL     1     103.508 124.136 146.645  0.00  0.00    +0.000 C 
ATOM      5  C   UNL     1     103.714 124.208 147.475  0.00  0.00    +0.000 C 
ATOM      6  C   UNL     1     105.055 124.709 147.081  0.00  0.00    +0.000 A 
ATOM      7  C   UNL     1     104.857 124.639 146.284  0.00  0.00    +0.000 A 
ATOM      8  C   UNL     1     104.492 124.496 147.696  0.00  0.00    +0.000 C 
ATOM      9  C   UNL     1     105.801 124.985 147.298  0.00  0.00    +0.000 A 
ATOM     10  C   UNL     1     106.350 125.192 146.718  0.00  0.00    +0.000 A 
ATOM     11  C   UNL     1     105.405 124.846 145.703  0.00  0.00    +0.000 A 
ATOM     12  C   UNL     1     106.152 125.122 145.920  0.00  0.00    +0.000 A 
ATOM     13  C   UNL     1     107.096 125.468 146.935  0.00  0.00    +0.000 C 
ENDROOT
BRANCH   4  14
ATOM     14  C   UNL     1     102.762 123.860 146.424  0.00  0.00    +0.000 A 
ATOM     15  C   UNL     1     102.689 123.142 146.024  0.00  0.00    +0.000 A 
ATOM     16  C   UNL     1     102.089 124.302 146.603  0.00  0.00    +0.000 A 
ATOM     17  C   UNL     1     101.943 122.867 145.803  0.00  0.00    +0.000 A 
ATOM     18  C   UNL     1     101.343 124.027 146.383  0.00  0.00    +0.000 A 
ATOM     19  C   UNL     1     101.270 123.309 145.983  0.00  0.00    +0.000 A 
ENDBRANCH   4  14
BRANCH   9  20
ATOM     20  O   UNL     1     105.999 125.054 148.096  0.00  0.00    +0.000 OA
ATOM     21  C   UNL     1     106.481 124.486 148.453  0.00  0.00    +0.000 C 
ENDBRANCH   9  20
TORSDOF 2
ENDMDL
MODEL 8
REMARK VINA RESULT:      -7.8     11.654     12.664
REMARK  Name = 21721816
REMARK  2 active torsions:
REMARK  status: ('A' for Active; 'I' for Inactive)
REMARK    1  A    between atoms: O_2  and  C_11
REMARK    2  A    between atoms: C_5  and  C_10
REMARK                            x       y       z     vdW  Elec       q    Type
REMARK                         _______ _______ _______ _____ _____    ______ ____
ROOT
ATOM      1  O   UNL     1     113.868 126.336 138.578  0.00  0.00    +0.000 OA
ATOM      2  O   UNL     1     111.466 125.543 138.692  0.00  0.00    +0.000 OA
ATOM      3  O   UNL     1     114.282 124.628 136.294  0.00  0.00    +0.000 OA
ATOM      4  C   UNL     1     113.351 126.644 139.191  0.00  0.00    +0.000 C 
ATOM      5  C   UNL     1     112.536 126.377 139.232  0.00  0.00    +0.000 C 
ATOM      6  C   UNL     1     112.779 125.507 138.053  0.00  0.00    +0.000 A 
ATOM      7  C   UNL     1     113.562 125.763 138.014  0.00  0.00    +0.000 A 
ATOM      8  C   UNL     1     112.247 125.805 138.660  0.00  0.00    +0.000 C 
ATOM      9  C   UNL     1     112.497 124.958 137.507  0.00  0.00    +0.000 A 
ATOM     10  C   UNL     1     112.997 124.664 136.920  0.00  0.00    +0.000 A 
ATOM     11  C   UNL     1     114.063 125.471 137.428  0.00  0.00    +0.000 A 
ATOM     12  C   UNL     1     113.780 124.921 136.881  0.00  0.00    +0.000 A 
ATOM     13  C   UNL     1     112.715 124.115 136.374  0.00  0.00    +0.000 C 
ENDROOT
BRANCH   4  14
ATOM     14  C   UNL     1     113.637 127.194 139.736  0.00  0.00    +0.000 A 
ATOM     15  C   UNL     1     113.466 127.996 139.643  0.00  0.00    +0.000 A 
ATOM     16  C   UNL     1     114.094 126.941 140.375  0.00  0.00    +0.000 A 
ATOM     17  C   UNL     1     113.752 128.544 140.189  0.00  0.00    +0.000 A 
ATOM     18  C   UNL     1     114.380 127.490 140.921  0.00  0.00    +0.000 A 
ATOM     19  C   UNL     1     114.209 128.291 140.827  0.00  0.00    +0.000 A 
ENDBRANCH   4  14
BRANCH   9  20
ATOM     20  O   UNL     1     111.714 124.702 137.547  0.00  0.00    +0.000 OA
ATOM     21  C   UNL     1     111.152 125.007 137.024  0.00  0.00    +0.000 C 
ENDBRANCH   9  20
TORSDOF 2
ENDMDL
MODEL 9
REMARK VINA RESULT:      -7.8     13.474     14.647
REMARK  Name = 21721816
REMARK  2 active torsions:
REMARK  status: ('A' for Active; 'I' for Inactive)
REMARK    1  A    between atoms: O_2  and  C_11
REMARK    2  A    between atoms: C_5  and  C_10
REMARK                            x       y       z     vdW  Elec       q    Type
REMARK                         _______ _______ _______ _____ _____    ______ ____
ROOT
ATOM      1  O   UNL     1     113.910 127.138 136.226  0.00  0.00    +0.000 OA
ATOM      2  O   UNL     1     112.712 128.376 138.081  0.00  0.00    +0.000 OA
ATOM      3  O   UNL     1     114.469 129.663 134.956  0.00  0.00    +0.000 OA
ATOM      4  C   UNL     1     113.561 126.692 136.872  0.00  0.00    +0.000 C 
ATOM      5  C   UNL     1     113.154 127.109 137.503  0.00  0.00    +0.000 C 
ATOM      6  C   UNL     1     113.457 128.396 136.825  0.00  0.00    +0.000 A 
ATOM      7  C   UNL     1     113.848 127.995 136.219  0.00  0.00    +0.000 A 
ATOM      8  C   UNL     1     113.101 127.966 137.480  0.00  0.00    +0.000 C 
ATOM      9  C   UNL     1     113.404 129.218 136.808  0.00  0.00    +0.000 A 
ATOM     10  C   UNL     1     113.741 129.641 136.185  0.00  0.00    +0.000 A 
ATOM     11  C   UNL     1     114.186 128.417 135.596  0.00  0.00    +0.000 A 
ATOM     12  C   UNL     1     114.132 129.241 135.579  0.00  0.00    +0.000 A 
ATOM     13  C   UNL     1     113.687 130.464 136.168  0.00  0.00    +0.000 C 
ENDROOT
BRANCH   4  14
ATOM     14  C   UNL     1     113.617 125.869 136.886  0.00  0.00    +0.000 A 
ATOM     15  C   UNL     1     113.012 125.409 136.564  0.00  0.00    +0.000 A 
ATOM     16  C   UNL     1     114.278 125.506 137.221  0.00  0.00    +0.000 A 
ATOM     17  C   UNL     1     113.068 124.586 136.579  0.00  0.00    +0.000 A 
ATOM     18  C   UNL     1     114.334 124.683 137.235  0.00  0.00    +0.000 A 
ATOM     19  C   UNL     1     113.729 124.223 136.914  0.00  0.00    +0.000 A 
ENDBRANCH   4  14
BRANCH   9  20
ATOM     20  O   UNL     1     113.013 129.619 137.414  0.00  0.00    +0.000 OA
ATOM     21  C   UNL     1     113.446 129.996 138.007  0.00  0.00    +0.000 C 
ENDBRANCH   9  20
TORSDOF 2
ENDMDL
