MODEL 1
REMARK VINA RESULT:     -10.5      0.000      0.000
REMARK  Name = 42607980
REMARK  8 active torsions:
REMARK  status: ('A' for Active; 'I' for Inactive)
REMARK    1  A    between atoms: O_2  and  C_18
REMARK    2  A    between atoms: O_2  and  C_20
REMARK    3  A    between atoms: O_6  and  C_19
REMARK    4  A    between atoms: O_6  and  C_30
REMARK    5  A    between atoms: C_16  and  C_19
REMARK    6  A    between atoms: C_21  and  C_29
REMARK    7  A    between atoms: C_30  and  C_33
REMARK    8  A    between atoms: C_37  and  C_38
REMARK                            x       y       z     vdW  Elec       q    Type
REMARK                         _______ _______ _______ _____ _____    ______ ____
ROOT
ATOM      1  O   UNL     1     110.260 128.087 135.433  0.00  0.00    +0.000 OA
ATOM      2  O   UNL     1     108.348 127.204 136.007  0.00  0.00    +0.000 OA
ATOM      3  O   UNL     1     107.920 128.788 135.834  0.00  0.00    +0.000 OA
ATOM      4  O   UNL     1     109.052 129.905 135.393  0.00  0.00    +0.000 OA
ATOM      5  C   UNL     1     108.914 127.762 135.787  0.00  0.00    +0.000 C 
ATOM      6  C   UNL     1     108.700 128.554 135.700  0.00  0.00    +0.000 C 
ATOM      7  C   UNL     1     109.694 127.528 135.653  0.00  0.00    +0.000 C 
ATOM      8  C   UNL     1     109.266 129.112 135.480  0.00  0.00    +0.000 C 
ATOM      9  C   UNL     1     110.046 128.879 135.346  0.00  0.00    +0.000 C 
ENDROOT
BRANCH   9  10
ATOM     10  O   UNL     1     110.612 129.438 135.126  0.00  0.00    +0.000 OA
BRANCH  10  14
ATOM     11  O   UNL     1     112.547 129.495 137.302  0.00  0.00    +0.000 OA
ATOM     12  O   UNL     1     113.444 128.944 134.612  0.00  0.00    +0.000 OA
ATOM     13  O   UNL     1     114.374 128.980 135.715  0.00  0.00    +0.000 OA
ATOM     14  C   UNL     1     111.388 129.367 135.396  0.00  0.00    +0.000 A 
ATOM     15  C   UNL     1     113.322 129.425 137.574  0.00  0.00    +0.000 C 
ATOM     16  C   UNL     1     112.380 129.395 136.500  0.00  0.00    +0.000 A 
ATOM     17  C   UNL     1     111.568 129.471 136.229  0.00  0.00    +0.000 A 
ATOM     18  C   UNL     1     112.989 129.223 135.971  0.00  0.00    +0.000 A 
ATOM     19  C   UNL     1     113.931 129.253 137.046  0.00  0.00    +0.000 C 
ATOM     20  C   UNL     1     112.023 129.188 134.844  0.00  0.00    +0.000 A 
ATOM     21  C   UNL     1     113.764 129.152 136.244  0.00  0.00    +0.000 C 
ATOM     22  C   UNL     1     112.828 129.115 135.134  0.00  0.00    +0.000 A 
BRANCH  15  25
ATOM     23  O   UNL     1     114.307 131.044 139.713  0.00  0.00    +0.000 OA
ATOM     24  O   UNL     1     113.987 129.828 140.782  0.00  0.00    +0.000 OA
ATOM     25  C   UNL     1     113.489 129.526 138.377  0.00  0.00    +0.000 A 
ATOM     26  C   UNL     1     113.815 130.235 138.644  0.00  0.00    +0.000 A 
ATOM     27  C   UNL     1     113.329 128.918 138.911  0.00  0.00    +0.000 A 
ATOM     28  C   UNL     1     113.981 130.336 139.445  0.00  0.00    +0.000 A 
ATOM     29  C   UNL     1     113.495 129.019 139.712  0.00  0.00    +0.000 A 
ATOM     30  C   UNL     1     113.821 129.728 139.980  0.00  0.00    +0.000 A 
ENDBRANCH  15  25
ENDBRANCH  10  14
ENDBRANCH   9  10
BRANCH   7  31
ATOM     31  C   UNL     1     109.908 126.737 135.740  0.00  0.00    +0.000 C 
BRANCH  31  32
ATOM     32  O   UNL     1     110.676 126.494 135.560  0.00  0.00    +0.000 OA
BRANCH  32  34
ATOM     33  O   UNL     1     110.620 125.068 135.632  0.00  0.00    +0.000 OA
ATOM     34  C   UNL     1     110.965 125.782 135.859  0.00  0.00    +0.000 C 
BRANCH  34  35
ATOM     35  C   UNL     1     111.599 125.784 136.387  0.00  0.00    +0.000 C 
ATOM     36  C   UNL     1     112.335 125.500 136.149  0.00  0.00    +0.000 C 
BRANCH  36  38
ATOM     37  O   UNL     1     114.870 125.505 138.262  0.00  0.00    +0.000 OA
ATOM     38  C   UNL     1     112.970 125.502 136.677  0.00  0.00    +0.000 A 
ATOM     39  C   UNL     1     113.743 125.501 136.392  0.00  0.00    +0.000 A 
ATOM     40  C   UNL     1     112.829 125.503 137.489  0.00  0.00    +0.000 A 
ATOM     41  C   UNL     1     114.377 125.502 136.920  0.00  0.00    +0.000 A 
ATOM     42  C   UNL     1     113.462 125.504 138.018  0.00  0.00    +0.000 A 
ATOM     43  C   UNL     1     114.236 125.504 137.733  0.00  0.00    +0.000 A 
ENDBRANCH  36  38
ENDBRANCH  34  35
ENDBRANCH  32  34
ENDBRANCH  31  32
ENDBRANCH   7  31
TORSDOF 8
ENDMDL
MODEL 2
REMARK VINA RESULT:     -10.0      1.510      3.998
REMARK  Name = 42607980
REMARK  8 active torsions:
REMARK  status: ('A' for Active; 'I' for Inactive)
REMARK    1  A    between atoms: O_2  and  C_18
REMARK    2  A    between atoms: O_2  and  C_20
REMARK    3  A    between atoms: O_6  and  C_19
REMARK    4  A    between atoms: O_6  and  C_30
REMARK    5  A    between atoms: C_16  and  C_19
REMARK    6  A    between atoms: C_21  and  C_29
REMARK    7  A    between atoms: C_30  and  C_33
REMARK    8  A    between atoms: C_37  and  C_38
REMARK                            x       y       z     vdW  Elec       q    Type
REMARK                         _______ _______ _______ _____ _____    ______ ____
ROOT
ATOM      1  O   UNL     1     112.554 125.690 136.300  0.00  0.00    +0.000 OA
ATOM      2  O   UNL     1     111.615 123.734 136.539  0.00  0.00    +0.000 OA
ATOM      3  O   UNL     1     113.089 123.459 137.228  0.00  0.00    +0.000 OA
ATOM      4  O   UNL     1     114.206 124.672 137.298  0.00  0.00    +0.000 OA
ATOM      5  C   UNL     1     112.173 124.341 136.574  0.00  0.00    +0.000 C 
ATOM      6  C   UNL     1     112.910 124.203 136.919  0.00  0.00    +0.000 C 
ATOM      7  C   UNL     1     111.994 125.084 136.264  0.00  0.00    +0.000 C 
ATOM      8  C   UNL     1     113.468 124.809 136.953  0.00  0.00    +0.000 C 
ATOM      9  C   UNL     1     113.290 125.553 136.644  0.00  0.00    +0.000 C 
ENDROOT
BRANCH   9  10
ATOM     10  O   UNL     1     113.849 126.159 136.679  0.00  0.00    +0.000 OA
BRANCH  10  14
ATOM     11  O   UNL     1     112.527 128.399 137.988  0.00  0.00    +0.000 OA
ATOM     12  O   UNL     1     113.661 128.756 135.355  0.00  0.00    +0.000 OA
ATOM     13  O   UNL     1     112.999 129.843 136.034  0.00  0.00    +0.000 OA
ATOM     14  C   UNL     1     113.604 126.946 136.675  0.00  0.00    +0.000 A 
ATOM     15  C   UNL     1     112.280 129.187 137.987  0.00  0.00    +0.000 C 
ATOM     16  C   UNL     1     112.931 128.093 137.337  0.00  0.00    +0.000 A 
ATOM     17  C   UNL     1     113.182 127.272 137.350  0.00  0.00    +0.000 A 
ATOM     18  C   UNL     1     113.088 128.574 136.685  0.00  0.00    +0.000 A 
ATOM     19  C   UNL     1     112.437 129.667 137.336  0.00  0.00    +0.000 C 
ATOM     20  C   UNL     1     113.768 127.448 135.996  0.00  0.00    +0.000 A 
ATOM     21  C   UNL     1     112.841 129.361 136.685  0.00  0.00    +0.000 C 
ATOM     22  C   UNL     1     113.508 128.267 136.002  0.00  0.00    +0.000 A 
BRANCH  15  25
ATOM     23  O   UNL     1     112.296 130.606 140.467  0.00  0.00    +0.000 OA
ATOM     24  O   UNL     1     110.662 130.411 140.591  0.00  0.00    +0.000 OA
ATOM     25  C   UNL     1     111.875 129.493 138.638  0.00  0.00    +0.000 A 
ATOM     26  C   UNL     1     112.289 129.897 139.227  0.00  0.00    +0.000 A 
ATOM     27  C   UNL     1     111.058 129.395 138.700  0.00  0.00    +0.000 A 
ATOM     28  C   UNL     1     111.884 130.202 139.878  0.00  0.00    +0.000 A 
ATOM     29  C   UNL     1     110.655 129.701 139.350  0.00  0.00    +0.000 A 
ATOM     30  C   UNL     1     111.067 130.105 139.940  0.00  0.00    +0.000 A 
ENDBRANCH  15  25
ENDBRANCH  10  14
ENDBRANCH   9  10
BRANCH   7  31
ATOM     31  C   UNL     1     111.258 125.221 135.920  0.00  0.00    +0.000 C 
BRANCH  31  32
ATOM     32  O   UNL     1     111.174 125.802 135.340  0.00  0.00    +0.000 OA
BRANCH  32  34
ATOM     33  O   UNL     1     109.963 125.548 134.628  0.00  0.00    +0.000 OA
ATOM     34  C   UNL     1     110.423 126.043 135.102  0.00  0.00    +0.000 C 
BRANCH  34  35
ATOM     35  C   UNL     1     110.130 126.778 135.336  0.00  0.00    +0.000 C 
ATOM     36  C   UNL     1     110.015 127.373 134.778  0.00  0.00    +0.000 C 
BRANCH  36  38
ATOM     37  O   UNL     1     108.842 130.312 135.718  0.00  0.00    +0.000 OA
ATOM     38  C   UNL     1     109.722 128.108 135.013  0.00  0.00    +0.000 A 
ATOM     39  C   UNL     1     109.963 128.793 134.622  0.00  0.00    +0.000 A 
ATOM     40  C   UNL     1     109.187 128.158 135.639  0.00  0.00    +0.000 A 
ATOM     41  C   UNL     1     109.670 129.527 134.856  0.00  0.00    +0.000 A 
ATOM     42  C   UNL     1     108.894 128.892 135.874  0.00  0.00    +0.000 A 
ATOM     43  C   UNL     1     109.136 129.576 135.482  0.00  0.00    +0.000 A 
ENDBRANCH  36  38
ENDBRANCH  34  35
ENDBRANCH  32  34
ENDBRANCH  31  32
ENDBRANCH   7  31
TORSDOF 8
ENDMDL
MODEL 3
REMARK VINA RESULT:     -10.0      1.060      4.749
REMARK  Name = 42607980
REMARK  8 active torsions:
REMARK  status: ('A' for Active; 'I' for Inactive)
REMARK    1  A    between atoms: O_2  and  C_18
REMARK    2  A    between atoms: O_2  and  C_20
REMARK    3  A    between atoms: O_6  and  C_19
REMARK    4  A    between atoms: O_6  and  C_30
REMARK    5  A    between atoms: C_16  and  C_19
REMARK    6  A    between atoms: C_21  and  C_29
REMARK    7  A    between atoms: C_30  and  C_33
REMARK    8  A    between atoms: C_37  and  C_38
REMARK                            x       y       z     vdW  Elec       q    Type
REMARK                         _______ _______ _______ _____ _____    ______ ____
ROOT
ATOM      1  O   UNL     1     113.418 129.402 139.304  0.00  0.00    +0.000 OA
ATOM      2  O   UNL     1     114.566 128.740 141.039  0.00  0.00    +0.000 OA
ATOM      3  O   UNL     1     115.151 130.270 140.844  0.00  0.00    +0.000 OA
ATOM      4  O   UNL     1     114.581 131.222 139.622  0.00  0.00    +0.000 OA
ATOM      5  C   UNL     1     114.280 129.215 140.428  0.00  0.00    +0.000 C 
ATOM      6  C   UNL     1     114.573 129.981 140.330  0.00  0.00    +0.000 C 
ATOM      7  C   UNL     1     113.703 128.926 139.915  0.00  0.00    +0.000 C 
ATOM      8  C   UNL     1     114.288 130.456 139.720  0.00  0.00    +0.000 C 
ATOM      9  C   UNL     1     113.711 130.167 139.206  0.00  0.00    +0.000 C 
ENDROOT
BRANCH   9  10
ATOM     10  O   UNL     1     113.426 130.643 138.596  0.00  0.00    +0.000 OA
BRANCH  10  14
ATOM     11  O   UNL     1     111.320 129.581 136.888  0.00  0.00    +0.000 OA
ATOM     12  O   UNL     1     114.048 129.605 135.937  0.00  0.00    +0.000 OA
ATOM     13  O   UNL     1     112.978 129.087 135.119  0.00  0.00    +0.000 OA
ATOM     14  C   UNL     1     113.186 130.301 137.884  0.00  0.00    +0.000 A 
ATOM     15  C   UNL     1     111.077 129.239 136.177  0.00  0.00    +0.000 C 
ATOM     16  C   UNL     1     112.117 129.758 137.008  0.00  0.00    +0.000 A 
ATOM     17  C   UNL     1     112.358 130.114 137.752  0.00  0.00    +0.000 A 
ATOM     18  C   UNL     1     112.670 129.594 136.419  0.00  0.00    +0.000 A 
ATOM     19  C   UNL     1     111.629 129.074 135.588  0.00  0.00    +0.000 C 
ATOM     20  C   UNL     1     113.762 130.130 137.270  0.00  0.00    +0.000 A 
ATOM     21  C   UNL     1     112.426 129.252 135.709  0.00  0.00    +0.000 C 
ATOM     22  C   UNL     1     113.502 129.774 136.532  0.00  0.00    +0.000 A 
BRANCH  15  25
ATOM     23  O   UNL     1     108.442 130.062 135.435  0.00  0.00    +0.000 OA
ATOM     24  O   UNL     1     107.889 128.529 135.696  0.00  0.00    +0.000 OA
ATOM     25  C   UNL     1     110.279 129.062 136.057  0.00  0.00    +0.000 A 
ATOM     26  C   UNL     1     109.760 129.651 135.806  0.00  0.00    +0.000 A 
ATOM     27  C   UNL     1     110.003 128.295 136.188  0.00  0.00    +0.000 A 
ATOM     28  C   UNL     1     108.963 129.473 135.686  0.00  0.00    +0.000 A 
ATOM     29  C   UNL     1     109.206 128.118 136.067  0.00  0.00    +0.000 A 
ATOM     30  C   UNL     1     108.686 128.707 135.816  0.00  0.00    +0.000 A 
ENDBRANCH  15  25
ENDBRANCH  10  14
ENDBRANCH   9  10
BRANCH   7  31
ATOM     31  C   UNL     1     113.410 128.161 140.013  0.00  0.00    +0.000 C 
BRANCH  31  32
ATOM     32  O   UNL     1     113.450 127.621 139.390  0.00  0.00    +0.000 OA
BRANCH  32  34
ATOM     33  O   UNL     1     112.995 126.482 140.123  0.00  0.00    +0.000 OA
ATOM     34  C   UNL     1     113.018 126.920 139.424  0.00  0.00    +0.000 C 
BRANCH  34  35
ATOM     35  C   UNL     1     112.607 126.655 138.759  0.00  0.00    +0.000 C 
ATOM     36  C   UNL     1     112.846 125.968 138.372  0.00  0.00    +0.000 C 
BRANCH  36  38
ATOM     37  O   UNL     1     111.202 124.909 135.714  0.00  0.00    +0.000 OA
ATOM     38  C   UNL     1     112.435 125.703 137.707  0.00  0.00    +0.000 A 
ATOM     39  C   UNL     1     112.760 125.800 136.956  0.00  0.00    +0.000 A 
ATOM     40  C   UNL     1     111.699 125.341 137.794  0.00  0.00    +0.000 A 
ATOM     41  C   UNL     1     112.349 125.536 136.291  0.00  0.00    +0.000 A 
ATOM     42  C   UNL     1     111.288 125.076 137.130  0.00  0.00    +0.000 A 
ATOM     43  C   UNL     1     111.613 125.174 136.379  0.00  0.00    +0.000 A 
ENDBRANCH  36  38
ENDBRANCH  34  35
ENDBRANCH  32  34
ENDBRANCH  31  32
ENDBRANCH   7  31
TORSDOF 8
ENDMDL
MODEL 4
REMARK VINA RESULT:     -10.0      1.937      3.345
REMARK  Name = 42607980
REMARK  8 active torsions:
REMARK  status: ('A' for Active; 'I' for Inactive)
REMARK    1  A    between atoms: O_2  and  C_18
REMARK    2  A    between atoms: O_2  and  C_20
REMARK    3  A    between atoms: O_6  and  C_19
REMARK    4  A    between atoms: O_6  and  C_30
REMARK    5  A    between atoms: C_16  and  C_19
REMARK    6  A    between atoms: C_21  and  C_29
REMARK    7  A    between atoms: C_30  and  C_33
REMARK    8  A    between atoms: C_37  and  C_38
REMARK                            x       y       z     vdW  Elec       q    Type
REMARK                         _______ _______ _______ _____ _____    ______ ____
ROOT
ATOM      1  O   UNL     1     110.117 130.746 136.772  0.00  0.00    +0.000 OA
ATOM      2  O   UNL     1     108.186 131.455 137.503  0.00  0.00    +0.000 OA
ATOM      3  O   UNL     1     109.198 132.591 138.141  0.00  0.00    +0.000 OA
ATOM      4  O   UNL     1     110.822 132.497 137.867  0.00  0.00    +0.000 OA
ATOM      5  C   UNL     1     108.998 131.407 137.365  0.00  0.00    +0.000 C 
ATOM      6  C   UNL     1     109.504 131.976 137.685  0.00  0.00    +0.000 C 
ATOM      7  C   UNL     1     109.304 130.792 136.909  0.00  0.00    +0.000 C 
ATOM      8  C   UNL     1     110.316 131.929 137.547  0.00  0.00    +0.000 C 
ATOM      9  C   UNL     1     110.622 131.313 137.091  0.00  0.00    +0.000 C 
ENDROOT
BRANCH   9  10
ATOM     10  O   UNL     1     111.435 131.267 136.954  0.00  0.00    +0.000 OA
BRANCH  10  14
ATOM     11  O   UNL     1     112.250 128.816 138.299  0.00  0.00    +0.000 OA
ATOM     12  O   UNL     1     112.912 129.199 135.514  0.00  0.00    +0.000 OA
ATOM     13  O   UNL     1     113.300 127.998 136.213  0.00  0.00    +0.000 OA
ATOM     14  C   UNL     1     111.808 130.531 136.937  0.00  0.00    +0.000 A 
ATOM     15  C   UNL     1     112.623 128.080 138.286  0.00  0.00    +0.000 C 
ATOM     16  C   UNL     1     112.227 129.279 137.617  0.00  0.00    +0.000 A 
ATOM     17  C   UNL     1     111.836 130.044 137.644  0.00  0.00    +0.000 A 
ATOM     18  C   UNL     1     112.577 129.007 136.922  0.00  0.00    +0.000 A 
ATOM     19  C   UNL     1     112.972 127.808 137.591  0.00  0.00    +0.000 C 
ATOM     20  C   UNL     1     112.173 130.247 136.212  0.00  0.00    +0.000 A 
ATOM     21  C   UNL     1     112.949 128.271 136.909  0.00  0.00    +0.000 C 
ATOM     22  C   UNL     1     112.560 129.480 136.205  0.00  0.00    +0.000 A 
BRANCH  15  25
ATOM     23  O   UNL     1     111.500 126.019 139.918  0.00  0.00    +0.000 OA
ATOM     24  O   UNL     1     112.714 126.227 141.016  0.00  0.00    +0.000 OA
ATOM     25  C   UNL     1     112.645 127.616 138.969  0.00  0.00    +0.000 A 
ATOM     26  C   UNL     1     112.061 127.050 139.101  0.00  0.00    +0.000 A 
ATOM     27  C   UNL     1     113.252 127.720 139.518  0.00  0.00    +0.000 A 
ATOM     28  C   UNL     1     112.084 126.587 139.784  0.00  0.00    +0.000 A 
ATOM     29  C   UNL     1     113.275 127.257 140.200  0.00  0.00    +0.000 A 
ATOM     30  C   UNL     1     112.691 126.690 140.333  0.00  0.00    +0.000 A 
ENDBRANCH  15  25
ENDBRANCH  10  14
ENDBRANCH   9  10
BRANCH   7  31
ATOM     31  C   UNL     1     108.799 130.224 136.590  0.00  0.00    +0.000 C 
BRANCH  31  32
ATOM     32  O   UNL     1     109.079 129.690 136.027  0.00  0.00    +0.000 OA
BRANCH  32  34
ATOM     33  O   UNL     1     107.883 128.990 135.683  0.00  0.00    +0.000 OA
ATOM     34  C   UNL     1     108.680 128.981 135.896  0.00  0.00    +0.000 C 
BRANCH  34  35
ATOM     35  C   UNL     1     109.077 128.262 135.977  0.00  0.00    +0.000 C 
ATOM     36  C   UNL     1     109.331 127.853 135.308  0.00  0.00    +0.000 C 
BRANCH  36  38
ATOM     37  O   UNL     1     110.917 124.977 135.636  0.00  0.00    +0.000 OA
ATOM     38  C   UNL     1     109.728 127.134 135.390  0.00  0.00    +0.000 A 
ATOM     39  C   UNL     1     110.174 126.835 134.764  0.00  0.00    +0.000 A 
ATOM     40  C   UNL     1     109.678 126.713 136.098  0.00  0.00    +0.000 A 
ATOM     41  C   UNL     1     110.570 126.117 134.846  0.00  0.00    +0.000 A 
ATOM     42  C   UNL     1     110.074 125.995 136.180  0.00  0.00    +0.000 A 
ATOM     43  C   UNL     1     110.520 125.697 135.554  0.00  0.00    +0.000 A 
ENDBRANCH  36  38
ENDBRANCH  34  35
ENDBRANCH  32  34
ENDBRANCH  31  32
ENDBRANCH   7  31
TORSDOF 8
ENDMDL
MODEL 5
REMARK VINA RESULT:      -9.8      2.015      3.889
REMARK  Name = 42607980
REMARK  8 active torsions:
REMARK  status: ('A' for Active; 'I' for Inactive)
REMARK    1  A    between atoms: O_2  and  C_18
REMARK    2  A    between atoms: O_2  and  C_20
REMARK    3  A    between atoms: O_6  and  C_19
REMARK    4  A    between atoms: O_6  and  C_30
REMARK    5  A    between atoms: C_16  and  C_19
REMARK    6  A    between atoms: C_21  and  C_29
REMARK    7  A    between atoms: C_30  and  C_33
REMARK    8  A    between atoms: C_37  and  C_38
REMARK                            x       y       z     vdW  Elec       q    Type
REMARK                         _______ _______ _______ _____ _____    ______ ____
ROOT
ATOM      1  O   UNL     1     111.454 126.536 137.399  0.00  0.00    +0.000 OA
ATOM      2  O   UNL     1     111.478 124.464 138.085  0.00  0.00    +0.000 OA
ATOM      3  O   UNL     1     111.387 124.251 136.452  0.00  0.00    +0.000 OA
ATOM      4  O   UNL     1     111.340 125.561 135.450  0.00  0.00    +0.000 OA
ATOM      5  C   UNL     1     111.455 125.119 137.585  0.00  0.00    +0.000 C 
ATOM      6  C   UNL     1     111.409 125.012 136.768  0.00  0.00    +0.000 C 
ATOM      7  C   UNL     1     111.477 125.881 137.901  0.00  0.00    +0.000 C 
ATOM      8  C   UNL     1     111.385 125.668 136.267  0.00  0.00    +0.000 C 
ATOM      9  C   UNL     1     111.408 126.430 136.583  0.00  0.00    +0.000 C 
ENDROOT
BRANCH   9  10
ATOM     10  O   UNL     1     111.384 127.084 136.081  0.00  0.00    +0.000 OA
BRANCH  10  14
ATOM     11  O   UNL     1     111.338 129.817 137.088  0.00  0.00    +0.000 OA
ATOM     12  O   UNL     1     113.859 128.611 136.356  0.00  0.00    +0.000 OA
ATOM     13  O   UNL     1     113.798 129.963 136.859  0.00  0.00    +0.000 OA
ATOM     14  C   UNL     1     111.781 127.777 136.290  0.00  0.00    +0.000 A 
ATOM     15  C   UNL     1     111.732 130.511 137.297  0.00  0.00    +0.000 C 
ATOM     16  C   UNL     1     111.764 129.171 136.802  0.00  0.00    +0.000 A 
ATOM     17  C   UNL     1     111.343 128.454 136.588  0.00  0.00    +0.000 A 
ATOM     18  C   UNL     1     112.584 129.219 136.726  0.00  0.00    +0.000 A 
ATOM     19  C   UNL     1     112.551 130.560 137.221  0.00  0.00    +0.000 C 
ATOM     20  C   UNL     1     112.635 127.828 136.210  0.00  0.00    +0.000 A 
ATOM     21  C   UNL     1     112.977 129.914 136.935  0.00  0.00    +0.000 C 
ATOM     22  C   UNL     1     113.039 128.554 136.429  0.00  0.00    +0.000 A 
BRANCH  15  25
ATOM     23  O   UNL     1     110.351 131.818 139.431  0.00  0.00    +0.000 OA
ATOM     24  O   UNL     1     110.025 133.095 138.439  0.00  0.00    +0.000 OA
ATOM     25  C   UNL     1     111.305 131.158 137.583  0.00  0.00    +0.000 A 
ATOM     26  C   UNL     1     111.041 131.164 138.365  0.00  0.00    +0.000 A 
ATOM     27  C   UNL     1     111.142 131.796 137.087  0.00  0.00    +0.000 A 
ATOM     28  C   UNL     1     110.615 131.810 138.650  0.00  0.00    +0.000 A 
ATOM     29  C   UNL     1     110.715 132.442 137.373  0.00  0.00    +0.000 A 
ATOM     30  C   UNL     1     110.452 132.449 138.154  0.00  0.00    +0.000 A 
ENDBRANCH  15  25
ENDBRANCH  10  14
ENDBRANCH   9  10
BRANCH   7  31
ATOM     31  C   UNL     1     111.523 125.988 138.717  0.00  0.00    +0.000 C 
BRANCH  31  32
ATOM     32  O   UNL     1     112.170 126.380 139.047  0.00  0.00    +0.000 OA
BRANCH  32  34
ATOM     33  O   UNL     1     111.885 126.199 140.435  0.00  0.00    +0.000 OA
ATOM     34  C   UNL     1     112.121 126.685 139.811  0.00  0.00    +0.000 C 
BRANCH  34  35
ATOM     35  C   UNL     1     112.309 127.476 139.953  0.00  0.00    +0.000 C 
ATOM     36  C   UNL     1     113.014 127.671 140.335  0.00  0.00    +0.000 C 
BRANCH  36  38
ATOM     37  O   UNL     1     113.768 130.833 140.901  0.00  0.00    +0.000 OA
ATOM     38  C   UNL     1     113.202 128.462 140.477  0.00  0.00    +0.000 A 
ATOM     39  C   UNL     1     112.650 128.960 140.833  0.00  0.00    +0.000 A 
ATOM     40  C   UNL     1     113.942 128.754 140.261  0.00  0.00    +0.000 A 
ATOM     41  C   UNL     1     112.838 129.750 140.975  0.00  0.00    +0.000 A 
ATOM     42  C   UNL     1     114.131 129.545 140.403  0.00  0.00    +0.000 A 
ATOM     43  C   UNL     1     113.579 130.042 140.759  0.00  0.00    +0.000 A 
ENDBRANCH  36  38
ENDBRANCH  34  35
ENDBRANCH  32  34
ENDBRANCH  31  32
ENDBRANCH   7  31
TORSDOF 8
ENDMDL
MODEL 6
REMARK VINA RESULT:      -9.7      1.888      4.712
REMARK  Name = 42607980
REMARK  8 active torsions:
REMARK  status: ('A' for Active; 'I' for Inactive)
REMARK    1  A    between atoms: O_2  and  C_18
REMARK    2  A    between atoms: O_2  and  C_20
REMARK    3  A    between atoms: O_6  and  C_19
REMARK    4  A    between atoms: O_6  and  C_30
REMARK    5  A    between atoms: C_16  and  C_19
REMARK    6  A    between atoms: C_21  and  C_29
REMARK    7  A    between atoms: C_30  and  C_33
REMARK    8  A    between atoms: C_37  and  C_38
REMARK                            x       y       z     vdW  Elec       q    Type
REMARK                         _______ _______ _______ _____ _____    ______ ____
ROOT
ATOM      1  O   UNL     1     112.833 125.516 137.711  0.00  0.00    +0.000 OA
ATOM      2  O   UNL     1     113.839 124.345 136.168  0.00  0.00    +0.000 OA
ATOM      3  O   UNL     1     115.115 124.753 137.131  0.00  0.00    +0.000 OA
ATOM      4  O   UNL     1     114.869 125.669 138.481  0.00  0.00    +0.000 OA
ATOM      5  C   UNL     1     113.715 124.803 136.843  0.00  0.00    +0.000 C 
ATOM      6  C   UNL     1     114.354 125.007 137.325  0.00  0.00    +0.000 C 
ATOM      7  C   UNL     1     112.955 125.057 137.036  0.00  0.00    +0.000 C 
ATOM      8  C   UNL     1     114.231 125.465 137.999  0.00  0.00    +0.000 C 
ATOM      9  C   UNL     1     113.470 125.719 138.193  0.00  0.00    +0.000 C 
ENDROOT
BRANCH   9  10
ATOM     10  O   UNL     1     113.348 126.178 138.868  0.00  0.00    +0.000 OA
BRANCH  10  14
ATOM     11  O   UNL     1     112.034 128.705 138.260  0.00  0.00    +0.000 OA
ATOM     12  O   UNL     1     110.618 126.692 139.773  0.00  0.00    +0.000 OA
ATOM     13  O   UNL     1     110.000 127.955 139.453  0.00  0.00    +0.000 OA
ATOM     14  C   UNL     1     112.689 126.672 138.917  0.00  0.00    +0.000 A 
ATOM     15  C   UNL     1     111.377 129.201 138.308  0.00  0.00    +0.000 C 
ATOM     16  C   UNL     1     112.014 127.958 138.611  0.00  0.00    +0.000 A 
ATOM     17  C   UNL     1     112.704 127.451 138.555  0.00  0.00    +0.000 A 
ATOM     18  C   UNL     1     111.336 127.708 139.008  0.00  0.00    +0.000 A 
ATOM     19  C   UNL     1     110.700 128.952 138.705  0.00  0.00    +0.000 C 
ATOM     20  C   UNL     1     111.982 126.411 139.331  0.00  0.00    +0.000 A 
ATOM     21  C   UNL     1     110.679 128.205 139.055  0.00  0.00    +0.000 C 
ATOM     22  C   UNL     1     111.301 126.933 139.377  0.00  0.00    +0.000 A 
BRANCH  15  25
ATOM     23  O   UNL     1     110.976 132.026 138.473  0.00  0.00    +0.000 OA
ATOM     24  O   UNL     1     111.462 132.188 136.905  0.00  0.00    +0.000 OA
ATOM     25  C   UNL     1     111.398 129.949 137.957  0.00  0.00    +0.000 A 
ATOM     26  C   UNL     1     111.176 130.614 138.391  0.00  0.00    +0.000 A 
ATOM     27  C   UNL     1     111.642 130.029 137.173  0.00  0.00    +0.000 A 
ATOM     28  C   UNL     1     111.198 131.360 138.040  0.00  0.00    +0.000 A 
ATOM     29  C   UNL     1     111.663 130.776 136.823  0.00  0.00    +0.000 A 
ATOM     30  C   UNL     1     111.441 131.442 137.256  0.00  0.00    +0.000 A 
ENDBRANCH  15  25
ENDBRANCH  10  14
ENDBRANCH   9  10
BRANCH   7  31
ATOM     31  C   UNL     1     112.317 124.853 136.555  0.00  0.00    +0.000 C 
BRANCH  31  32
ATOM     32  O   UNL     1     111.944 125.430 136.097  0.00  0.00    +0.000 OA
BRANCH  32  34
ATOM     33  O   UNL     1     110.959 124.612 135.463  0.00  0.00    +0.000 OA
ATOM     34  C   UNL     1     111.169 125.315 135.841  0.00  0.00    +0.000 C 
BRANCH  34  35
ATOM     35  C   UNL     1     110.603 125.903 135.961  0.00  0.00    +0.000 C 
ATOM     36  C   UNL     1     110.404 126.417 135.348  0.00  0.00    +0.000 C 
BRANCH  36  38
ATOM     37  O   UNL     1     108.137 128.767 135.831  0.00  0.00    +0.000 OA
ATOM     38  C   UNL     1     109.837 127.005 135.468  0.00  0.00    +0.000 A 
ATOM     39  C   UNL     1     109.920 127.739 135.102  0.00  0.00    +0.000 A 
ATOM     40  C   UNL     1     109.188 126.858 135.955  0.00  0.00    +0.000 A 
ATOM     41  C   UNL     1     109.354 128.326 135.223  0.00  0.00    +0.000 A 
ATOM     42  C   UNL     1     108.621 127.445 136.076  0.00  0.00    +0.000 A 
ATOM     43  C   UNL     1     108.705 128.179 135.710  0.00  0.00    +0.000 A 
ENDBRANCH  36  38
ENDBRANCH  34  35
ENDBRANCH  32  34
ENDBRANCH  31  32
ENDBRANCH   7  31
TORSDOF 8
ENDMDL
MODEL 7
REMARK VINA RESULT:      -9.6      1.788      3.452
REMARK  Name = 42607980
REMARK  8 active torsions:
REMARK  status: ('A' for Active; 'I' for Inactive)
REMARK    1  A    between atoms: O_2  and  C_18
REMARK    2  A    between atoms: O_2  and  C_20
REMARK    3  A    between atoms: O_6  and  C_19
REMARK    4  A    between atoms: O_6  and  C_30
REMARK    5  A    between atoms: C_16  and  C_19
REMARK    6  A    between atoms: C_21  and  C_29
REMARK    7  A    between atoms: C_30  and  C_33
REMARK    8  A    between atoms: C_37  and  C_38
REMARK                            x       y       z     vdW  Elec       q    Type
REMARK                         _______ _______ _______ _____ _____    ______ ____
ROOT
ATOM      1  O   UNL     1     109.916 129.176 136.544  0.00  0.00    +0.000 OA
ATOM      2  O   UNL     1     108.387 130.558 137.262  0.00  0.00    +0.000 OA
ATOM      3  O   UNL     1     108.311 130.826 135.635  0.00  0.00    +0.000 OA
ATOM      4  O   UNL     1     109.305 129.993 134.615  0.00  0.00    +0.000 OA
ATOM      5  C   UNL     1     108.884 130.142 136.752  0.00  0.00    +0.000 C 
ATOM      6  C   UNL     1     108.846 130.276 135.938  0.00  0.00    +0.000 C 
ATOM      7  C   UNL     1     109.419 129.592 137.055  0.00  0.00    +0.000 C 
ATOM      8  C   UNL     1     109.343 129.859 135.429  0.00  0.00    +0.000 C 
ATOM      9  C   UNL     1     109.878 129.309 135.732  0.00  0.00    +0.000 C 
ENDROOT
BRANCH   9  10
ATOM     10  O   UNL     1     110.375 128.893 135.221  0.00  0.00    +0.000 OA
BRANCH  10  14
ATOM     11  O   UNL     1     112.438 127.065 136.162  0.00  0.00    +0.000 OA
ATOM     12  O   UNL     1     113.120 129.816 135.602  0.00  0.00    +0.000 OA
ATOM     13  O   UNL     1     114.115 128.882 136.070  0.00  0.00    +0.000 OA
ATOM     14  C   UNL     1     111.158 128.747 135.436  0.00  0.00    +0.000 A 
ATOM     15  C   UNL     1     113.220 126.916 136.377  0.00  0.00    +0.000 C 
ATOM     16  C   UNL     1     112.215 127.820 135.915  0.00  0.00    +0.000 A 
ATOM     17  C   UNL     1     111.397 127.963 135.693  0.00  0.00    +0.000 A 
ATOM     18  C   UNL     1     112.773 128.426 135.884  0.00  0.00    +0.000 A 
ATOM     19  C   UNL     1     113.779 127.521 136.347  0.00  0.00    +0.000 C 
ATOM     20  C   UNL     1     111.741 129.379 135.404  0.00  0.00    +0.000 A 
ATOM     21  C   UNL     1     113.555 128.276 136.100  0.00  0.00    +0.000 C 
ATOM     22  C   UNL     1     112.554 129.217 135.630  0.00  0.00    +0.000 A 
BRANCH  15  25
ATOM     23  O   UNL     1     112.559 124.182 136.885  0.00  0.00    +0.000 OA
ATOM     24  O   UNL     1     114.112 123.895 137.363  0.00  0.00    +0.000 OA
ATOM     25  C   UNL     1     113.443 126.160 136.624  0.00  0.00    +0.000 A 
ATOM     26  C   UNL     1     112.889 125.549 136.631  0.00  0.00    +0.000 A 
ATOM     27  C   UNL     1     114.220 126.017 136.863  0.00  0.00    +0.000 A 
ATOM     28  C   UNL     1     113.113 124.794 136.877  0.00  0.00    +0.000 A 
ATOM     29  C   UNL     1     114.442 125.262 137.109  0.00  0.00    +0.000 A 
ATOM     30  C   UNL     1     113.889 124.650 137.117  0.00  0.00    +0.000 A 
ENDBRANCH  15  25
ENDBRANCH  10  14
ENDBRANCH   9  10
BRANCH   7  31
ATOM     31  C   UNL     1     109.457 129.458 137.868  0.00  0.00    +0.000 C 
BRANCH  31  32
ATOM     32  O   UNL     1     109.706 128.726 138.155  0.00  0.00    +0.000 OA
BRANCH  32  34
ATOM     33  O   UNL     1     109.330 128.726 139.533  0.00  0.00    +0.000 OA
ATOM     34  C   UNL     1     109.907 128.641 138.950  0.00  0.00    +0.000 C 
BRANCH  34  35
ATOM     35  C   UNL     1     110.686 128.471 139.163  0.00  0.00    +0.000 C 
ATOM     36  C   UNL     1     110.875 127.737 139.488  0.00  0.00    +0.000 C 
BRANCH  36  38
ATOM     37  O   UNL     1     113.989 127.054 140.341  0.00  0.00    +0.000 OA
ATOM     38  C   UNL     1     111.654 127.567 139.701  0.00  0.00    +0.000 A 
ATOM     39  C   UNL     1     112.223 128.163 139.694  0.00  0.00    +0.000 A 
ATOM     40  C   UNL     1     111.862 126.799 139.920  0.00  0.00    +0.000 A 
ATOM     41  C   UNL     1     113.001 127.992 139.907  0.00  0.00    +0.000 A 
ATOM     42  C   UNL     1     112.640 126.628 140.134  0.00  0.00    +0.000 A 
ATOM     43  C   UNL     1     113.210 127.225 140.127  0.00  0.00    +0.000 A 
ENDBRANCH  36  38
ENDBRANCH  34  35
ENDBRANCH  32  34
ENDBRANCH  31  32
ENDBRANCH   7  31
TORSDOF 8
ENDMDL
MODEL 8
REMARK VINA RESULT:      -9.6      1.542      4.634
REMARK  Name = 42607980
REMARK  8 active torsions:
REMARK  status: ('A' for Active; 'I' for Inactive)
REMARK    1  A    between atoms: O_2  and  C_18
REMARK    2  A    between atoms: O_2  and  C_20
REMARK    3  A    between atoms: O_6  and  C_19
REMARK    4  A    between atoms: O_6  and  C_30
REMARK    5  A    between atoms: C_16  and  C_19
REMARK    6  A    between atoms: C_21  and  C_29
REMARK    7  A    between atoms: C_30  and  C_33
REMARK    8  A    between atoms: C_37  and  C_38
REMARK                            x       y       z     vdW  Elec       q    Type
REMARK                         _______ _______ _______ _____ _____    ______ ____
ROOT
ATOM      1  O   UNL     1     112.178 129.038 139.597  0.00  0.00    +0.000 OA
ATOM      2  O   UNL     1     113.346 129.204 141.434  0.00  0.00    +0.000 OA
ATOM      3  O   UNL     1     112.679 130.712 141.350  0.00  0.00    +0.000 OA
ATOM      4  O   UNL     1     111.679 131.103 140.097  0.00  0.00    +0.000 OA
ATOM      5  C   UNL     1     112.846 129.399 140.807  0.00  0.00    +0.000 C 
ATOM      6  C   UNL     1     112.512 130.154 140.765  0.00  0.00    +0.000 C 
ATOM      7  C   UNL     1     112.678 128.841 140.223  0.00  0.00    +0.000 C 
ATOM      8  C   UNL     1     112.012 130.349 140.139  0.00  0.00    +0.000 C 
ATOM      9  C   UNL     1     111.845 129.791 139.555  0.00  0.00    +0.000 C 
ENDROOT
BRANCH   9  10
ATOM     10  O   UNL     1     111.345 129.987 138.929  0.00  0.00    +0.000 OA
BRANCH  10  14
ATOM     11  O   UNL     1     110.944 128.169 136.689  0.00  0.00    +0.000 OA
ATOM     12  O   UNL     1     112.875 130.306 136.461  0.00  0.00    +0.000 OA
ATOM     13  O   UNL     1     112.649 129.387 135.372  0.00  0.00    +0.000 OA
ATOM     14  C   UNL     1     111.529 129.744 138.162  0.00  0.00    +0.000 A 
ATOM     15  C   UNL     1     111.126 127.924 135.922  0.00  0.00    +0.000 C 
ATOM     16  C   UNL     1     111.330 128.821 137.016  0.00  0.00    +0.000 A 
ATOM     17  C   UNL     1     111.131 129.066 137.815  0.00  0.00    +0.000 A 
ATOM     18  C   UNL     1     111.898 129.227 136.578  0.00  0.00    +0.000 A 
ATOM     19  C   UNL     1     111.694 128.329 135.484  0.00  0.00    +0.000 C 
ATOM     20  C   UNL     1     112.122 130.167 137.705  0.00  0.00    +0.000 A 
ATOM     21  C   UNL     1     112.080 128.981 135.811  0.00  0.00    +0.000 C 
ATOM     22  C   UNL     1     112.307 129.906 136.907  0.00  0.00    +0.000 A 
BRANCH  15  25
ATOM     23  O   UNL     1     110.928 125.099 135.539  0.00  0.00    +0.000 OA
ATOM     24  O   UNL     1     109.580 125.318 134.613  0.00  0.00    +0.000 OA
ATOM     25  C   UNL     1     110.739 127.272 135.595  0.00  0.00    +0.000 A 
ATOM     26  C   UNL     1     111.027 126.511 135.731  0.00  0.00    +0.000 A 
ATOM     27  C   UNL     1     110.066 127.382 135.132  0.00  0.00    +0.000 A 
ATOM     28  C   UNL     1     110.641 125.860 135.404  0.00  0.00    +0.000 A 
ATOM     29  C   UNL     1     109.680 126.731 134.805  0.00  0.00    +0.000 A 
ATOM     30  C   UNL     1     109.967 125.969 134.940  0.00  0.00    +0.000 A 
ENDBRANCH  15  25
ENDBRANCH  10  14
ENDBRANCH   9  10
BRANCH   7  31
ATOM     31  C   UNL     1     113.011 128.088 140.265  0.00  0.00    +0.000 C 
BRANCH  31  32
ATOM     32  O   UNL     1     113.050 127.615 139.590  0.00  0.00    +0.000 OA
BRANCH  32  34
ATOM     33  O   UNL     1     113.427 126.453 140.330  0.00  0.00    +0.000 OA
ATOM     34  C   UNL     1     113.418 126.878 139.623  0.00  0.00    +0.000 C 
BRANCH  34  35
ATOM     35  C   UNL     1     113.777 126.565 138.950  0.00  0.00    +0.000 C 
ATOM     36  C   UNL     1     113.404 125.968 138.522  0.00  0.00    +0.000 C 
BRANCH  36  38
ATOM     37  O   UNL     1     114.841 124.714 135.829  0.00  0.00    +0.000 OA
ATOM     38  C   UNL     1     113.763 125.655 137.848  0.00  0.00    +0.000 A 
ATOM     39  C   UNL     1     114.088 126.158 137.282  0.00  0.00    +0.000 A 
ATOM     40  C   UNL     1     113.798 124.838 137.742  0.00  0.00    +0.000 A 
ATOM     41  C   UNL     1     114.447 125.845 136.609  0.00  0.00    +0.000 A 
ATOM     42  C   UNL     1     114.157 124.523 137.069  0.00  0.00    +0.000 A 
ATOM     43  C   UNL     1     114.481 125.028 136.502  0.00  0.00    +0.000 A 
ENDBRANCH  36  38
ENDBRANCH  34  35
ENDBRANCH  32  34
ENDBRANCH  31  32
ENDBRANCH   7  31
TORSDOF 8
ENDMDL
MODEL 9
REMARK VINA RESULT:      -9.6      1.854      4.337
REMARK  Name = 42607980
REMARK  8 active torsions:
REMARK  status: ('A' for Active; 'I' for Inactive)
REMARK    1  A    between atoms: O_2  and  C_18
REMARK    2  A    between atoms: O_2  and  C_20
REMARK    3  A    between atoms: O_6  and  C_19
REMARK    4  A    between atoms: O_6  and  C_30
REMARK    5  A    between atoms: C_16  and  C_19
REMARK    6  A    between atoms: C_21  and  C_29
REMARK    7  A    between atoms: C_30  and  C_33
REMARK    8  A    between atoms: C_37  and  C_38
REMARK                            x       y       z     vdW  Elec       q    Type
REMARK                         _______ _______ _______ _____ _____    ______ ____
ROOT
ATOM      1  O   UNL     1     109.921 129.126 136.796  0.00  0.00    +0.000 OA
ATOM      2  O   UNL     1     108.920 131.057 136.981  0.00  0.00    +0.000 OA
ATOM      3  O   UNL     1     107.822 130.221 136.076  0.00  0.00    +0.000 OA
ATOM      4  O   UNL     1     108.123 128.656 135.651  0.00  0.00    +0.000 OA
ATOM      5  C   UNL     1     109.072 130.274 136.769  0.00  0.00    +0.000 C 
ATOM      6  C   UNL     1     108.522 129.856 136.316  0.00  0.00    +0.000 C 
ATOM      7  C   UNL     1     109.771 129.909 137.008  0.00  0.00    +0.000 C 
ATOM      8  C   UNL     1     108.673 129.074 136.104  0.00  0.00    +0.000 C 
ATOM      9  C   UNL     1     109.373 128.708 136.344  0.00  0.00    +0.000 C 
ENDROOT
BRANCH   9  10
ATOM     10  O   UNL     1     109.523 127.925 136.131  0.00  0.00    +0.000 OA
BRANCH  10  14
ATOM     11  O   UNL     1     111.757 126.326 137.098  0.00  0.00    +0.000 OA
ATOM     12  O   UNL     1     109.260 126.312 138.552  0.00  0.00    +0.000 OA
ATOM     13  O   UNL     1     110.388 125.533 139.001  0.00  0.00    +0.000 OA
ATOM     14  C   UNL     1     109.843 127.402 136.683  0.00  0.00    +0.000 A 
ATOM     15  C   UNL     1     112.079 125.803 137.649  0.00  0.00    +0.000 C 
ATOM     16  C   UNL     1     110.978 126.585 137.182  0.00  0.00    +0.000 A 
ATOM     17  C   UNL     1     110.653 127.129 136.602  0.00  0.00    +0.000 A 
ATOM     18  C   UNL     1     110.521 126.321 137.816  0.00  0.00    +0.000 A 
ATOM     19  C   UNL     1     111.623 125.539 138.283  0.00  0.00    +0.000 C 
ATOM     20  C   UNL     1     109.367 127.127 137.344  0.00  0.00    +0.000 A 
ATOM     21  C   UNL     1     110.844 125.798 138.366  0.00  0.00    +0.000 C 
ATOM     22  C   UNL     1     109.709 126.582 137.914  0.00  0.00    +0.000 A 
BRANCH  15  25
ATOM     23  O   UNL     1     114.041 124.271 136.246  0.00  0.00    +0.000 OA
ATOM     24  O   UNL     1     115.196 124.770 137.313  0.00  0.00    +0.000 OA
ATOM     25  C   UNL     1     112.859 125.545 137.565  0.00  0.00    +0.000 A 
ATOM     26  C   UNL     1     113.060 125.037 136.947  0.00  0.00    +0.000 A 
ATOM     27  C   UNL     1     113.436 125.795 138.099  0.00  0.00    +0.000 A 
ATOM     28  C   UNL     1     113.839 124.779 136.863  0.00  0.00    +0.000 A 
ATOM     29  C   UNL     1     114.214 125.537 138.015  0.00  0.00    +0.000 A 
ATOM     30  C   UNL     1     114.417 125.028 137.397  0.00  0.00    +0.000 A 
ENDBRANCH  15  25
ENDBRANCH  10  14
ENDBRANCH   9  10
BRANCH   7  31
ATOM     31  C   UNL     1     110.320 130.326 137.460  0.00  0.00    +0.000 C 
BRANCH  31  32
ATOM     32  O   UNL     1     111.063 130.001 137.613  0.00  0.00    +0.000 OA
BRANCH  32  34
ATOM     33  O   UNL     1     111.786 131.080 138.207  0.00  0.00    +0.000 OA
ATOM     34  C   UNL     1     111.525 130.298 138.228  0.00  0.00    +0.000 C 
BRANCH  34  35
ATOM     35  C   UNL     1     111.727 129.813 138.864  0.00  0.00    +0.000 C 
ATOM     36  C   UNL     1     112.508 129.568 138.965  0.00  0.00    +0.000 C 
BRANCH  36  38
ATOM     37  O   UNL     1     113.319 127.630 141.510  0.00  0.00    +0.000 OA
ATOM     38  C   UNL     1     112.710 129.083 139.602  0.00  0.00    +0.000 A 
ATOM     39  C   UNL     1     112.120 128.748 140.069  0.00  0.00    +0.000 A 
ATOM     40  C   UNL     1     113.504 128.934 139.770  0.00  0.00    +0.000 A 
ATOM     41  C   UNL     1     112.322 128.264 140.705  0.00  0.00    +0.000 A 
ATOM     42  C   UNL     1     113.707 128.450 140.406  0.00  0.00    +0.000 A 
ATOM     43  C   UNL     1     113.116 128.115 140.873  0.00  0.00    +0.000 A 
ENDBRANCH  36  38
ENDBRANCH  34  35
ENDBRANCH  32  34
ENDBRANCH  31  32
ENDBRANCH   7  31
TORSDOF 8
ENDMDL
MODEL 10
REMARK VINA RESULT:      -9.5      1.681      4.423
REMARK  Name = 42607980
REMARK  8 active torsions:
REMARK  status: ('A' for Active; 'I' for Inactive)
REMARK    1  A    between atoms: O_2  and  C_18
REMARK    2  A    between atoms: O_2  and  C_20
REMARK    3  A    between atoms: O_6  and  C_19
REMARK    4  A    between atoms: O_6  and  C_30
REMARK    5  A    between atoms: C_16  and  C_19
REMARK    6  A    between atoms: C_21  and  C_29
REMARK    7  A    between atoms: C_30  and  C_33
REMARK    8  A    between atoms: C_37  and  C_38
REMARK                            x       y       z     vdW  Elec       q    Type
REMARK                         _______ _______ _______ _____ _____    ______ ____
ROOT
ATOM      1  O   UNL     1     111.386 125.622 137.091  0.00  0.00    +0.000 OA
ATOM      2  O   UNL     1     111.632 123.933 135.731  0.00  0.00    +0.000 OA
ATOM      3  O   UNL     1     112.765 123.578 136.877  0.00  0.00    +0.000 OA
ATOM      4  O   UNL     1     112.978 124.586 138.165  0.00  0.00    +0.000 OA
ATOM      5  C   UNL     1     111.738 124.437 136.375  0.00  0.00    +0.000 C 
ATOM      6  C   UNL     1     112.305 124.260 136.948  0.00  0.00    +0.000 C 
ATOM      7  C   UNL     1     111.278 125.119 136.446  0.00  0.00    +0.000 C 
ATOM      8  C   UNL     1     112.411 124.764 137.592  0.00  0.00    +0.000 C 
ATOM      9  C   UNL     1     111.951 125.445 137.663  0.00  0.00    +0.000 C 
ENDROOT
BRANCH   9  10
ATOM     10  O   UNL     1     112.059 125.949 138.308  0.00  0.00    +0.000 OA
BRANCH  10  14
ATOM     11  O   UNL     1     113.124 128.408 137.167  0.00  0.00    +0.000 OA
ATOM     12  O   UNL     1     110.745 128.511 138.803  0.00  0.00    +0.000 OA
ATOM     13  O   UNL     1     111.301 129.708 138.221  0.00  0.00    +0.000 OA
ATOM     14  C   UNL     1     112.017 126.766 138.204  0.00  0.00    +0.000 A 
ATOM     15  C   UNL     1     113.085 129.225 137.061  0.00  0.00    +0.000 C 
ATOM     16  C   UNL     1     112.555 128.024 137.625  0.00  0.00    +0.000 A 
ATOM     17  C   UNL     1     112.606 127.173 137.728  0.00  0.00    +0.000 A 
ATOM     18  C   UNL     1     111.947 128.457 137.977  0.00  0.00    +0.000 A 
ATOM     19  C   UNL     1     112.478 129.658 137.412  0.00  0.00    +0.000 C 
ATOM     20  C   UNL     1     111.384 127.218 138.570  0.00  0.00    +0.000 A 
ATOM     21  C   UNL     1     111.909 129.274 137.870  0.00  0.00    +0.000 C 
ATOM     22  C   UNL     1     111.349 128.069 138.455  0.00  0.00    +0.000 A 
BRANCH  15  25
ATOM     23  O   UNL     1     114.537 129.472 134.612  0.00  0.00    +0.000 OA
ATOM     24  O   UNL     1     115.362 130.761 135.230  0.00  0.00    +0.000 OA
ATOM     25  C   UNL     1     113.655 129.609 136.603  0.00  0.00    +0.000 A 
ATOM     26  C   UNL     1     113.811 129.348 135.836  0.00  0.00    +0.000 A 
ATOM     27  C   UNL     1     114.067 130.254 136.913  0.00  0.00    +0.000 A 
ATOM     28  C   UNL     1     114.380 129.732 135.379  0.00  0.00    +0.000 A 
ATOM     29  C   UNL     1     114.636 130.637 136.455  0.00  0.00    +0.000 A 
ATOM     30  C   UNL     1     114.793 130.377 135.688  0.00  0.00    +0.000 A 
ENDBRANCH  15  25
ENDBRANCH  10  14
ENDBRANCH   9  10
BRANCH   7  31
ATOM     31  C   UNL     1     110.712 125.295 135.873  0.00  0.00    +0.000 C 
BRANCH  31  32
ATOM     32  O   UNL     1     110.166 125.899 136.005  0.00  0.00    +0.000 OA
BRANCH  32  34
ATOM     33  O   UNL     1     109.329 125.825 134.850  0.00  0.00    +0.000 OA
ATOM     34  C   UNL     1     109.795 126.268 135.367  0.00  0.00    +0.000 C 
BRANCH  34  35
ATOM     35  C   UNL     1     109.890 127.078 135.246  0.00  0.00    +0.000 C 
ATOM     36  C   UNL     1     109.269 127.595 135.407  0.00  0.00    +0.000 C 
BRANCH  36  38
ATOM     37  O   UNL     1     109.649 130.837 134.919  0.00  0.00    +0.000 OA
ATOM     38  C   UNL     1     109.363 128.406 135.285  0.00  0.00    +0.000 A 
ATOM     39  C   UNL     1     108.908 128.944 135.714  0.00  0.00    +0.000 A 
ATOM     40  C   UNL     1     109.914 128.678 134.735  0.00  0.00    +0.000 A 
ATOM     41  C   UNL     1     109.004 129.753 135.592  0.00  0.00    +0.000 A 
ATOM     42  C   UNL     1     110.009 129.489 134.612  0.00  0.00    +0.000 A 
ATOM     43  C   UNL     1     109.554 130.026 135.041  0.00  0.00    +0.000 A 
ENDBRANCH  36  38
ENDBRANCH  34  35
ENDBRANCH  32  34
ENDBRANCH  31  32
ENDBRANCH   7  31
TORSDOF 8
ENDMDL
