MODEL 1
REMARK VINA RESULT:      -9.1      0.000      0.000
REMARK  Name = 131831857
REMARK  3 active torsions:
REMARK  status: ('A' for Active; 'I' for Inactive)
REMARK    1  A    between atoms: S_1  and  O_3
REMARK    2  A    between atoms: O_3  and  C_13
REMARK    3  A    between atoms: C_12  and  C_16
REMARK                            x       y       z     vdW  Elec       q    Type
REMARK                         _______ _______ _______ _____ _____    ______ ____
ROOT
ATOM      1  O   UNL     1     105.339 124.443 147.723  0.00  0.00    +0.000 OA
ATOM      2  O   UNL     1     106.724 125.316 145.868  0.00  0.00    +0.000 OA
ATOM      3  O   UNL     1     107.887 125.366 146.720  0.00  0.00    +0.000 OA
ATOM      4  O   UNL     1     108.588 125.113 148.237  0.00  0.00    +0.000 OA
ATOM      5  O   UNL     1     107.643 124.516 149.504  0.00  0.00    +0.000 OA
ATOM      6  C   UNL     1     105.002 124.569 146.980  0.00  0.00    +0.000 C 
ATOM      7  C   UNL     1     105.464 124.860 146.362  0.00  0.00    +0.000 C 
ATOM      8  C   UNL     1     106.263 125.025 146.486  0.00  0.00    +0.000 C 
ATOM      9  C   UNL     1     106.600 124.899 147.228  0.00  0.00    +0.000 A 
ATOM     10  C   UNL     1     106.138 124.608 147.847  0.00  0.00    +0.000 A 
ATOM     11  C   UNL     1     107.433 125.075 147.345  0.00  0.00    +0.000 A 
ATOM     12  C   UNL     1     106.478 124.473 148.625  0.00  0.00    +0.000 A 
ATOM     13  C   UNL     1     107.789 124.946 148.116  0.00  0.00    +0.000 A 
ATOM     14  C   UNL     1     107.309 124.643 148.760  0.00  0.00    +0.000 A 
ENDROOT
BRANCH   6  16
ATOM     15  O   UNL     1     102.940 122.739 146.227  0.00  0.00    +0.000 OA
ATOM     16  C   UNL     1     104.204 124.403 146.857  0.00  0.00    +0.000 A 
ATOM     17  C   UNL     1     103.971 123.653 146.603  0.00  0.00    +0.000 A 
ATOM     18  C   UNL     1     103.636 124.989 146.988  0.00  0.00    +0.000 A 
ATOM     19  C   UNL     1     103.172 123.489 146.481  0.00  0.00    +0.000 A 
ATOM     20  C   UNL     1     102.838 124.823 146.865  0.00  0.00    +0.000 A 
ATOM     21  C   UNL     1     102.606 124.073 146.611  0.00  0.00    +0.000 A 
ENDBRANCH   6  16
BRANCH   7  22
ATOM     22  O   UNL     1     105.127 124.986 145.620  0.00  0.00    +0.000 OA
BRANCH  22  23
ATOM     23  S   UNL     1     105.610 125.063 144.955  0.00  0.00    +0.000 S 
ATOM     24  O   UNL     1     106.093 125.140 144.291  0.00  0.00    +0.000 OA
ATOM     25  O   UNL     1     105.486 125.878 144.960  0.00  0.00    +0.000 OA
ATOM     26  O   UNL     1     105.734 124.247 144.951  0.00  0.00    +0.000 OA
ENDBRANCH  22  23
ENDBRANCH   7  22
TORSDOF 3
ENDMDL
MODEL 2
REMARK VINA RESULT:      -9.1      1.570      4.286
REMARK  Name = 131831857
REMARK  3 active torsions:
REMARK  status: ('A' for Active; 'I' for Inactive)
REMARK    1  A    between atoms: S_1  and  O_3
REMARK    2  A    between atoms: O_3  and  C_13
REMARK    3  A    between atoms: C_12  and  C_16
REMARK                            x       y       z     vdW  Elec       q    Type
REMARK                         _______ _______ _______ _____ _____    ______ ____
ROOT
ATOM      1  O   UNL     1     105.393 124.247 147.098  0.00  0.00    +0.000 OA
ATOM      2  O   UNL     1     103.692 125.606 148.276  0.00  0.00    +0.000 OA
ATOM      3  O   UNL     1     102.648 125.088 147.426  0.00  0.00    +0.000 OA
ATOM      4  O   UNL     1     102.177 124.086 146.150  0.00  0.00    +0.000 OA
ATOM      5  O   UNL     1     103.338 123.158 145.346  0.00  0.00    +0.000 OA
ATOM      6  C   UNL     1     105.617 124.739 147.723  0.00  0.00    +0.000 C 
ATOM      7  C   UNL     1     105.050 125.192 148.115  0.00  0.00    +0.000 C 
ATOM      8  C   UNL     1     104.259 125.153 147.883  0.00  0.00    +0.000 C 
ATOM      9  C   UNL     1     104.035 124.663 147.260  0.00  0.00    +0.000 A 
ATOM     10  C   UNL     1     104.602 124.210 146.867  0.00  0.00    +0.000 A 
ATOM     11  C   UNL     1     103.208 124.632 147.028  0.00  0.00    +0.000 A 
ATOM     12  C   UNL     1     104.380 123.694 146.216  0.00  0.00    +0.000 A 
ATOM     13  C   UNL     1     102.968 124.122 146.379  0.00  0.00    +0.000 A 
ATOM     14  C   UNL     1     103.558 123.651 145.970  0.00  0.00    +0.000 A 
ENDROOT
BRANCH   6  16
ATOM     15  O   UNL     1     108.269 125.726 147.323  0.00  0.00    +0.000 OA
ATOM     16  C   UNL     1     106.408 124.776 147.954  0.00  0.00    +0.000 A 
ATOM     17  C   UNL     1     106.943 125.233 147.522  0.00  0.00    +0.000 A 
ATOM     18  C   UNL     1     106.664 124.356 148.617  0.00  0.00    +0.000 A 
ATOM     19  C   UNL     1     107.734 125.270 147.754  0.00  0.00    +0.000 A 
ATOM     20  C   UNL     1     107.455 124.394 148.848  0.00  0.00    +0.000 A 
ATOM     21  C   UNL     1     107.990 124.851 148.417  0.00  0.00    +0.000 A 
ENDBRANCH   6  16
BRANCH   7  22
ATOM     22  O   UNL     1     105.274 125.682 148.739  0.00  0.00    +0.000 OA
BRANCH  22  23
ATOM     23  S   UNL     1     104.775 126.291 148.984  0.00  0.00    +0.000 S 
ATOM     24  O   UNL     1     104.275 126.901 149.229  0.00  0.00    +0.000 OA
ATOM     25  O   UNL     1     105.037 126.759 148.357  0.00  0.00    +0.000 OA
ATOM     26  O   UNL     1     104.513 125.824 149.611  0.00  0.00    +0.000 OA
ENDBRANCH  22  23
ENDBRANCH   7  22
TORSDOF 3
ENDMDL
MODEL 3
REMARK VINA RESULT:      -8.9      0.979      3.608
REMARK  Name = 131831857
REMARK  3 active torsions:
REMARK  status: ('A' for Active; 'I' for Inactive)
REMARK    1  A    between atoms: S_1  and  O_3
REMARK    2  A    between atoms: O_3  and  C_13
REMARK    3  A    between atoms: C_12  and  C_16
REMARK                            x       y       z     vdW  Elec       q    Type
REMARK                         _______ _______ _______ _____ _____    ______ ____
ROOT
ATOM      1  O   UNL     1     104.909 124.943 147.374  0.00  0.00    +0.000 OA
ATOM      2  O   UNL     1     104.509 124.172 145.056  0.00  0.00    +0.000 OA
ATOM      3  O   UNL     1     103.263 123.558 145.444  0.00  0.00    +0.000 OA
ATOM      4  O   UNL     1     102.133 123.201 146.649  0.00  0.00    +0.000 OA
ATOM      5  O   UNL     1     102.406 123.727 148.232  0.00  0.00    +0.000 OA
ATOM      6  C   UNL     1     105.458 125.114 146.781  0.00  0.00    +0.000 C 
ATOM      7  C   UNL     1     105.324 124.858 146.008  0.00  0.00    +0.000 C 
ATOM      8  C   UNL     1     104.642 124.429 145.829  0.00  0.00    +0.000 C 
ATOM      9  C   UNL     1     104.094 124.258 146.420  0.00  0.00    +0.000 A 
ATOM     10  C   UNL     1     104.228 124.515 147.193  0.00  0.00    +0.000 A 
ATOM     11  C   UNL     1     103.388 123.811 146.220  0.00  0.00    +0.000 A 
ATOM     12  C   UNL     1     103.664 124.342 147.818  0.00  0.00    +0.000 A 
ATOM     13  C   UNL     1     102.813 123.629 146.832  0.00  0.00    +0.000 A 
ATOM     14  C   UNL     1     102.952 123.896 147.637  0.00  0.00    +0.000 A 
ENDROOT
BRANCH   6  16
ATOM     15  O   UNL     1     108.211 125.181 147.544  0.00  0.00    +0.000 OA
ATOM     16  C   UNL     1     106.139 125.543 146.962  0.00  0.00    +0.000 A 
ATOM     17  C   UNL     1     106.834 125.147 147.163  0.00  0.00    +0.000 A 
ATOM     18  C   UNL     1     106.124 126.368 146.942  0.00  0.00    +0.000 A 
ATOM     19  C   UNL     1     107.515 125.576 147.344  0.00  0.00    +0.000 A 
ATOM     20  C   UNL     1     106.806 126.796 147.123  0.00  0.00    +0.000 A 
ATOM     21  C   UNL     1     107.501 126.400 147.324  0.00  0.00    +0.000 A 
ENDBRANCH   6  16
BRANCH   7  22
ATOM     22  O   UNL     1     105.872 125.029 145.417  0.00  0.00    +0.000 OA
BRANCH  22  23
ATOM     23  S   UNL     1     105.683 124.887 144.626  0.00  0.00    +0.000 S 
ATOM     24  O   UNL     1     105.495 124.745 143.836  0.00  0.00    +0.000 OA
ATOM     25  O   UNL     1     105.283 125.608 144.593  0.00  0.00    +0.000 OA
ATOM     26  O   UNL     1     106.083 124.166 144.660  0.00  0.00    +0.000 OA
ENDBRANCH  22  23
ENDBRANCH   7  22
TORSDOF 3
ENDMDL
MODEL 4
REMARK VINA RESULT:      -8.9      7.036      8.216
REMARK  Name = 131831857
REMARK  3 active torsions:
REMARK  status: ('A' for Active; 'I' for Inactive)
REMARK    1  A    between atoms: S_1  and  O_3
REMARK    2  A    between atoms: O_3  and  C_13
REMARK    3  A    between atoms: C_12  and  C_16
REMARK                            x       y       z     vdW  Elec       q    Type
REMARK                         _______ _______ _______ _____ _____    ______ ____
ROOT
ATOM      1  O   UNL     1     103.304 130.242 142.348  0.00  0.00    +0.000 OA
ATOM      2  O   UNL     1     103.244 128.768 140.361  0.00  0.00    +0.000 OA
ATOM      3  O   UNL     1     104.237 127.897 140.940  0.00  0.00    +0.000 OA
ATOM      4  O   UNL     1     105.270 127.524 142.225  0.00  0.00    +0.000 OA
ATOM      5  O   UNL     1     105.312 128.531 143.581  0.00  0.00    +0.000 OA
ATOM      6  C   UNL     1     102.802 130.419 141.717  0.00  0.00    +0.000 C 
ATOM      7  C   UNL     1     102.781 129.928 141.055  0.00  0.00    +0.000 C 
ATOM      8  C   UNL     1     103.264 129.259 141.023  0.00  0.00    +0.000 C 
ATOM      9  C   UNL     1     103.766 129.082 141.652  0.00  0.00    +0.000 A 
ATOM     10  C   UNL     1     103.786 129.573 142.315  0.00  0.00    +0.000 A 
ATOM     11  C   UNL     1     104.264 128.382 141.607  0.00  0.00    +0.000 A 
ATOM     12  C   UNL     1     104.306 129.399 142.977  0.00  0.00    +0.000 A 
ATOM     13  C   UNL     1     104.789 128.193 142.260  0.00  0.00    +0.000 A 
ATOM     14  C   UNL     1     104.810 128.705 142.949  0.00  0.00    +0.000 A 
ENDROOT
BRANCH   6  16
ATOM     15  O   UNL     1     102.443 133.233 141.367  0.00  0.00    +0.000 OA
ATOM     16  C   UNL     1     102.320 131.088 141.750  0.00  0.00    +0.000 A 
ATOM     17  C   UNL     1     102.623 131.826 141.542  0.00  0.00    +0.000 A 
ATOM     18  C   UNL     1     101.533 131.017 141.992  0.00  0.00    +0.000 A 
ATOM     19  C   UNL     1     102.139 132.494 141.575  0.00  0.00    +0.000 A 
ATOM     20  C   UNL     1     101.051 131.686 142.025  0.00  0.00    +0.000 A 
ATOM     21  C   UNL     1     101.354 132.424 141.817  0.00  0.00    +0.000 A 
ENDBRANCH   6  16
BRANCH   7  22
ATOM     22  O   UNL     1     102.279 130.105 140.425  0.00  0.00    +0.000 OA
BRANCH  22  23
ATOM     23  S   UNL     1     102.396 129.746 139.692  0.00  0.00    +0.000 S 
ATOM     24  O   UNL     1     102.512 129.388 138.958  0.00  0.00    +0.000 OA
ATOM     25  O   UNL     1     102.968 130.311 139.506  0.00  0.00    +0.000 OA
ATOM     26  O   UNL     1     101.824 129.181 139.877  0.00  0.00    +0.000 OA
ENDBRANCH  22  23
ENDBRANCH   7  22
TORSDOF 3
ENDMDL
MODEL 5
REMARK VINA RESULT:      -8.8     11.929     12.927
REMARK  Name = 131831857
REMARK  3 active torsions:
REMARK  status: ('A' for Active; 'I' for Inactive)
REMARK    1  A    between atoms: S_1  and  O_3
REMARK    2  A    between atoms: O_3  and  C_13
REMARK    3  A    between atoms: C_12  and  C_16
REMARK                            x       y       z     vdW  Elec       q    Type
REMARK                         _______ _______ _______ _____ _____    ______ ____
ROOT
ATOM      1  O   UNL     1     110.030 130.476 136.724  0.00  0.00    +0.000 OA
ATOM      2  O   UNL     1     107.753 130.227 135.784  0.00  0.00    +0.000 OA
ATOM      3  O   UNL     1     107.917 128.797 135.690  0.00  0.00    +0.000 OA
ATOM      4  O   UNL     1     108.877 127.426 135.923  0.00  0.00    +0.000 OA
ATOM      5  O   UNL     1     110.432 127.596 136.565  0.00  0.00    +0.000 OA
ATOM      6  C   UNL     1     109.556 131.142 136.608  0.00  0.00    +0.000 C 
ATOM      7  C   UNL     1     108.797 131.059 136.294  0.00  0.00    +0.000 C 
ATOM      8  C   UNL     1     108.512 130.310 136.097  0.00  0.00    +0.000 C 
ATOM      9  C   UNL     1     108.985 129.645 136.213  0.00  0.00    +0.000 A 
ATOM     10  C   UNL     1     109.744 129.728 136.526  0.00  0.00    +0.000 A 
ATOM     11  C   UNL     1     108.677 128.870 136.003  0.00  0.00    +0.000 A 
ATOM     12  C   UNL     1     110.247 129.042 136.651  0.00  0.00    +0.000 A 
ATOM     13  C   UNL     1     109.165 128.174 136.121  0.00  0.00    +0.000 A 
ATOM     14  C   UNL     1     109.955 128.260 136.447  0.00  0.00    +0.000 A 
ENDROOT
BRANCH   6  16
ATOM     15  O   UNL     1     110.099 133.145 138.572  0.00  0.00    +0.000 OA
ATOM     16  C   UNL     1     109.841 131.890 136.805  0.00  0.00    +0.000 A 
ATOM     17  C   UNL     1     109.827 132.143 137.590  0.00  0.00    +0.000 A 
ATOM     18  C   UNL     1     110.142 132.385 136.217  0.00  0.00    +0.000 A 
ATOM     19  C   UNL     1     110.113 132.892 137.787  0.00  0.00    +0.000 A 
ATOM     20  C   UNL     1     110.427 133.133 136.415  0.00  0.00    +0.000 A 
ATOM     21  C   UNL     1     110.413 133.387 137.200  0.00  0.00    +0.000 A 
ENDBRANCH   6  16
BRANCH   7  22
ATOM     22  O   UNL     1     108.324 131.724 136.179  0.00  0.00    +0.000 OA
BRANCH  22  23
ATOM     23  S   UNL     1     107.519 131.636 136.023  0.00  0.00    +0.000 S 
ATOM     24  O   UNL     1     106.713 131.547 135.868  0.00  0.00    +0.000 OA
ATOM     25  O   UNL     1     107.371 131.562 136.832  0.00  0.00    +0.000 OA
ATOM     26  O   UNL     1     107.667 131.709 135.215  0.00  0.00    +0.000 OA
ENDBRANCH  22  23
ENDBRANCH   7  22
TORSDOF 3
ENDMDL
MODEL 6
REMARK VINA RESULT:      -8.8      0.989      3.765
REMARK  Name = 131831857
REMARK  3 active torsions:
REMARK  status: ('A' for Active; 'I' for Inactive)
REMARK    1  A    between atoms: S_1  and  O_3
REMARK    2  A    between atoms: O_3  and  C_13
REMARK    3  A    between atoms: C_12  and  C_16
REMARK                            x       y       z     vdW  Elec       q    Type
REMARK                         _______ _______ _______ _____ _____    ______ ____
ROOT
ATOM      1  O   UNL     1     104.193 124.331 147.531  0.00  0.00    +0.000 OA
ATOM      2  O   UNL     1     104.355 124.068 145.075  0.00  0.00    +0.000 OA
ATOM      3  O   UNL     1     103.096 123.365 145.038  0.00  0.00    +0.000 OA
ATOM      4  O   UNL     1     101.756 122.740 145.858  0.00  0.00    +0.000 OA
ATOM      5  O   UNL     1     101.646 122.919 147.534  0.00  0.00    +0.000 OA
ATOM      6  C   UNL     1     104.845 124.634 147.125  0.00  0.00    +0.000 C 
ATOM      7  C   UNL     1     104.899 124.546 146.307  0.00  0.00    +0.000 C 
ATOM      8  C   UNL     1     104.301 124.155 145.894  0.00  0.00    +0.000 C 
ATOM      9  C   UNL     1     103.650 123.853 146.299  0.00  0.00    +0.000 A 
ATOM     10  C   UNL     1     103.596 123.940 147.117  0.00  0.00    +0.000 A 
ATOM     11  C   UNL     1     103.033 123.447 145.857  0.00  0.00    +0.000 A 
ATOM     12  C   UNL     1     102.922 123.629 147.551  0.00  0.00    +0.000 A 
ATOM     13  C   UNL     1     102.352 123.130 146.273  0.00  0.00    +0.000 A 
ATOM     14  C   UNL     1     102.296 123.221 147.126  0.00  0.00    +0.000 A 
ENDROOT
BRANCH   6  16
ATOM     15  O   UNL     1     107.343 124.574 148.512  0.00  0.00    +0.000 OA
ATOM     16  C   UNL     1     105.442 125.024 147.539  0.00  0.00    +0.000 A 
ATOM     17  C   UNL     1     106.094 124.603 147.819  0.00  0.00    +0.000 A 
ATOM     18  C   UNL     1     105.387 125.837 147.673  0.00  0.00    +0.000 A 
ATOM     19  C   UNL     1     106.691 124.995 148.232  0.00  0.00    +0.000 A 
ATOM     20  C   UNL     1     105.984 126.228 148.087  0.00  0.00    +0.000 A 
ATOM     21  C   UNL     1     106.636 125.807 148.366  0.00  0.00    +0.000 A 
ENDBRANCH   6  16
BRANCH   7  22
ATOM     22  O   UNL     1     105.550 124.849 145.902  0.00  0.00    +0.000 OA
BRANCH  22  23
ATOM     23  S   UNL     1     105.540 124.893 145.078  0.00  0.00    +0.000 S 
ATOM     24  O   UNL     1     105.529 124.937 144.254  0.00  0.00    +0.000 OA
ATOM     25  O   UNL     1     105.996 124.207 145.035  0.00  0.00    +0.000 OA
ATOM     26  O   UNL     1     105.084 125.579 145.121  0.00  0.00    +0.000 OA
ENDBRANCH  22  23
ENDBRANCH   7  22
TORSDOF 3
ENDMDL
MODEL 7
REMARK VINA RESULT:      -8.4     12.397     13.289
REMARK  Name = 131831857
REMARK  3 active torsions:
REMARK  status: ('A' for Active; 'I' for Inactive)
REMARK    1  A    between atoms: S_1  and  O_3
REMARK    2  A    between atoms: O_3  and  C_13
REMARK    3  A    between atoms: C_12  and  C_16
REMARK                            x       y       z     vdW  Elec       q    Type
REMARK                         _______ _______ _______ _____ _____    ______ ____
ROOT
ATOM      1  O   UNL     1     112.153 125.657 136.082  0.00  0.00    +0.000 OA
ATOM      2  O   UNL     1     111.922 128.110 136.312  0.00  0.00    +0.000 OA
ATOM      3  O   UNL     1     110.628 128.077 135.677  0.00  0.00    +0.000 OA
ATOM      4  O   UNL     1     109.389 127.187 134.949  0.00  0.00    +0.000 OA
ATOM      5  O   UNL     1     109.547 125.512 134.792  0.00  0.00    +0.000 OA
ATOM      6  C   UNL     1     112.755 126.097 136.437  0.00  0.00    +0.000 C 
ATOM      7  C   UNL     1     112.678 126.914 136.513  0.00  0.00    +0.000 C 
ATOM      8  C   UNL     1     111.999 127.292 136.235  0.00  0.00    +0.000 C 
ATOM      9  C   UNL     1     111.398 126.853 135.881  0.00  0.00    +0.000 A 
ATOM     10  C   UNL     1     111.475 126.035 135.804  0.00  0.00    +0.000 A 
ATOM     11  C   UNL     1     110.696 127.259 135.596  0.00  0.00    +0.000 A 
ATOM     12  C   UNL     1     110.855 125.567 135.437  0.00  0.00    +0.000 A 
ATOM     13  C   UNL     1     110.066 126.806 135.226  0.00  0.00    +0.000 A 
ATOM     14  C   UNL     1     110.146 125.955 135.146  0.00  0.00    +0.000 A 
ENDROOT
BRANCH   6  16
ATOM     15  O   UNL     1     115.368 125.037 135.966  0.00  0.00    +0.000 OA
ATOM     16  C   UNL     1     113.433 125.718 136.714  0.00  0.00    +0.000 A 
ATOM     17  C   UNL     1     114.062 125.567 136.201  0.00  0.00    +0.000 A 
ATOM     18  C   UNL     1     113.483 125.490 137.506  0.00  0.00    +0.000 A 
ATOM     19  C   UNL     1     114.740 125.188 136.479  0.00  0.00    +0.000 A 
ATOM     20  C   UNL     1     114.162 125.111 137.783  0.00  0.00    +0.000 A 
ATOM     21  C   UNL     1     114.790 124.960 137.270  0.00  0.00    +0.000 A 
ENDBRANCH   6  16
BRANCH   7  22
ATOM     22  O   UNL     1     113.279 127.354 136.867  0.00  0.00    +0.000 OA
BRANCH  22  23
ATOM     23  S   UNL     1     113.300 128.173 136.776  0.00  0.00    +0.000 S 
ATOM     24  O   UNL     1     113.321 128.993 136.684  0.00  0.00    +0.000 OA
ATOM     25  O   UNL     1     113.639 128.081 136.029  0.00  0.00    +0.000 OA
ATOM     26  O   UNL     1     112.962 128.265 137.522  0.00  0.00    +0.000 OA
ENDBRANCH  22  23
ENDBRANCH   7  22
TORSDOF 3
ENDMDL
MODEL 8
REMARK VINA RESULT:      -8.4      1.360      2.005
REMARK  Name = 131831857
REMARK  3 active torsions:
REMARK  status: ('A' for Active; 'I' for Inactive)
REMARK    1  A    between atoms: S_1  and  O_3
REMARK    2  A    between atoms: O_3  and  C_13
REMARK    3  A    between atoms: C_12  and  C_16
REMARK                            x       y       z     vdW  Elec       q    Type
REMARK                         _______ _______ _______ _____ _____    ______ ____
ROOT
ATOM      1  O   UNL     1     104.364 125.170 147.493  0.00  0.00    +0.000 OA
ATOM      2  O   UNL     1     105.160 124.028 145.447  0.00  0.00    +0.000 OA
ATOM      3  O   UNL     1     106.451 124.662 145.561  0.00  0.00    +0.000 OA
ATOM      4  O   UNL     1     107.489 125.706 146.391  0.00  0.00    +0.000 OA
ATOM      5  O   UNL     1     106.944 126.486 147.788  0.00  0.00    +0.000 OA
ATOM      6  C   UNL     1     103.861 124.659 147.083  0.00  0.00    +0.000 C 
ATOM      7  C   UNL     1     104.127 124.278 146.401  0.00  0.00    +0.000 C 
ATOM      8  C   UNL     1     104.895 124.409 146.129  0.00  0.00    +0.000 C 
ATOM      9  C   UNL     1     105.397 124.919 146.538  0.00  0.00    +0.000 A 
ATOM     10  C   UNL     1     105.131 125.300 147.220  0.00  0.00    +0.000 A 
ATOM     11  C   UNL     1     106.194 125.047 146.244  0.00  0.00    +0.000 A 
ATOM     12  C   UNL     1     105.645 125.835 147.655  0.00  0.00    +0.000 A 
ATOM     13  C   UNL     1     106.721 125.578 146.666  0.00  0.00    +0.000 A 
ATOM     14  C   UNL     1     106.445 125.974 147.376  0.00  0.00    +0.000 A 
ENDROOT
BRANCH   6  16
ATOM     15  O   UNL     1     102.042 123.256 148.784  0.00  0.00    +0.000 OA
ATOM     16  C   UNL     1     103.094 124.529 147.357  0.00  0.00    +0.000 A 
ATOM     17  C   UNL     1     102.952 123.957 147.934  0.00  0.00    +0.000 A 
ATOM     18  C   UNL     1     102.467 124.972 147.051  0.00  0.00    +0.000 A 
ATOM     19  C   UNL     1     102.184 123.828 148.207  0.00  0.00    +0.000 A 
ATOM     20  C   UNL     1     101.700 124.842 147.325  0.00  0.00    +0.000 A 
ATOM     21  C   UNL     1     101.558 124.270 147.902  0.00  0.00    +0.000 A 
ENDBRANCH   6  16
BRANCH   7  22
ATOM     22  O   UNL     1     103.625 123.768 145.993  0.00  0.00    +0.000 OA
BRANCH  22  23
ATOM     23  S   UNL     1     103.933 123.254 145.425  0.00  0.00    +0.000 S 
ATOM     24  O   UNL     1     104.241 122.740 144.858  0.00  0.00    +0.000 OA
ATOM     25  O   UNL     1     104.178 122.740 146.023  0.00  0.00    +0.000 OA
ATOM     26  O   UNL     1     103.688 123.767 144.828  0.00  0.00    +0.000 OA
ENDBRANCH  22  23
ENDBRANCH   7  22
TORSDOF 3
ENDMDL
MODEL 9
REMARK VINA RESULT:      -8.4     10.042     11.646
REMARK  Name = 131831857
REMARK  3 active torsions:
REMARK  status: ('A' for Active; 'I' for Inactive)
REMARK    1  A    between atoms: S_1  and  O_3
REMARK    2  A    between atoms: O_3  and  C_13
REMARK    3  A    between atoms: C_12  and  C_16
REMARK                            x       y       z     vdW  Elec       q    Type
REMARK                         _______ _______ _______ _____ _____    ______ ____
ROOT
ATOM      1  O   UNL     1     111.712 125.510 138.095  0.00  0.00    +0.000 OA
ATOM      2  O   UNL     1     109.960 126.186 136.483  0.00  0.00    +0.000 OA
ATOM      3  O   UNL     1     109.054 126.508 137.558  0.00  0.00    +0.000 OA
ATOM      4  O   UNL     1     108.742 126.600 139.217  0.00  0.00    +0.000 OA
ATOM      5  O   UNL     1     109.939 126.139 140.317  0.00  0.00    +0.000 OA
ATOM      6  C   UNL     1     111.858 125.467 137.283  0.00  0.00    +0.000 C 
ATOM      7  C   UNL     1     111.274 125.693 136.746  0.00  0.00    +0.000 C 
ATOM      8  C   UNL     1     110.544 125.961 137.020  0.00  0.00    +0.000 C 
ATOM      9  C   UNL     1     110.397 126.004 137.830  0.00  0.00    +0.000 A 
ATOM     10  C   UNL     1     110.981 125.778 138.368  0.00  0.00    +0.000 A 
ATOM     11  C   UNL     1     109.632 126.285 138.103  0.00  0.00    +0.000 A 
ATOM     12  C   UNL     1     110.840 125.818 139.215  0.00  0.00    +0.000 A 
ATOM     13  C   UNL     1     109.473 126.332 138.946  0.00  0.00    +0.000 A 
ATOM     14  C   UNL     1     110.082 126.097 139.505  0.00  0.00    +0.000 A 
ENDROOT
BRANCH   6  16
ATOM     15  O   UNL     1     114.531 126.005 136.426  0.00  0.00    +0.000 OA
ATOM     16  C   UNL     1     112.589 125.199 137.010  0.00  0.00    +0.000 A 
ATOM     17  C   UNL     1     113.195 125.737 136.855  0.00  0.00    +0.000 A 
ATOM     18  C   UNL     1     112.714 124.391 136.893  0.00  0.00    +0.000 A 
ATOM     19  C   UNL     1     113.925 125.467 136.582  0.00  0.00    +0.000 A 
ATOM     20  C   UNL     1     113.445 124.123 136.620  0.00  0.00    +0.000 A 
ATOM     21  C   UNL     1     114.050 124.661 136.465  0.00  0.00    +0.000 A 
ENDBRANCH   6  16
BRANCH   7  22
ATOM     22  O   UNL     1     111.421 125.650 135.936  0.00  0.00    +0.000 OA
BRANCH  22  23
ATOM     23  S   UNL     1     110.794 125.680 135.401  0.00  0.00    +0.000 S 
ATOM     24  O   UNL     1     110.166 125.711 134.866  0.00  0.00    +0.000 OA
ATOM     25  O   UNL     1     110.636 124.883 135.540  0.00  0.00    +0.000 OA
ATOM     26  O   UNL     1     110.951 126.478 135.262  0.00  0.00    +0.000 OA
ENDBRANCH  22  23
ENDBRANCH   7  22
TORSDOF 3
ENDMDL
MODEL 10
REMARK VINA RESULT:      -8.4      9.967     11.473
REMARK  Name = 131831857
REMARK  3 active torsions:
REMARK  status: ('A' for Active; 'I' for Inactive)
REMARK    1  A    between atoms: S_1  and  O_3
REMARK    2  A    between atoms: O_3  and  C_13
REMARK    3  A    between atoms: C_12  and  C_16
REMARK                            x       y       z     vdW  Elec       q    Type
REMARK                         _______ _______ _______ _____ _____    ______ ____
ROOT
ATOM      1  O   UNL     1     113.783 126.399 138.945  0.00  0.00    +0.000 OA
ATOM      2  O   UNL     1     111.397 125.749 139.034  0.00  0.00    +0.000 OA
ATOM      3  O   UNL     1     111.239 126.396 140.314  0.00  0.00    +0.000 OA
ATOM      4  O   UNL     1     111.910 127.282 141.586  0.00  0.00    +0.000 OA
ATOM      5  O   UNL     1     113.539 127.727 141.525  0.00  0.00    +0.000 OA
ATOM      6  C   UNL     1     113.450 125.966 138.326  0.00  0.00    +0.000 C 
ATOM      7  C   UNL     1     112.654 125.750 138.356  0.00  0.00    +0.000 C 
ATOM      8  C   UNL     1     112.192 125.966 139.004  0.00  0.00    +0.000 C 
ATOM      9  C   UNL     1     112.525 126.398 139.622  0.00  0.00    +0.000 A 
ATOM     10  C   UNL     1     113.321 126.615 139.593  0.00  0.00    +0.000 A 
ATOM     11  C   UNL     1     112.033 126.617 140.293  0.00  0.00    +0.000 A 
ATOM     12  C   UNL     1     113.679 127.066 140.231  0.00  0.00    +0.000 A 
ATOM     13  C   UNL     1     112.374 127.068 140.939  0.00  0.00    +0.000 A 
ATOM     14  C   UNL     1     113.203 127.294 140.908  0.00  0.00    +0.000 A 
ENDROOT
BRANCH   6  16
ATOM     15  O   UNL     1     114.625 126.605 135.800  0.00  0.00    +0.000 OA
ATOM     16  C   UNL     1     113.913 125.751 137.678  0.00  0.00    +0.000 A 
ATOM     17  C   UNL     1     114.037 126.286 137.063  0.00  0.00    +0.000 A 
ATOM     18  C   UNL     1     114.252 124.998 137.646  0.00  0.00    +0.000 A 
ATOM     19  C   UNL     1     114.500 126.069 136.415  0.00  0.00    +0.000 A 
ATOM     20  C   UNL     1     114.714 124.783 136.998  0.00  0.00    +0.000 A 
ATOM     21  C   UNL     1     114.839 125.318 136.383  0.00  0.00    +0.000 A 
ENDBRANCH   6  16
BRANCH   7  22
ATOM     22  O   UNL     1     112.322 125.317 137.738  0.00  0.00    +0.000 OA
BRANCH  22  23
ATOM     23  S   UNL     1     111.503 125.302 137.639  0.00  0.00    +0.000 S 
ATOM     24  O   UNL     1     110.684 125.287 137.540  0.00  0.00    +0.000 OA
ATOM     25  O   UNL     1     111.474 124.559 137.997  0.00  0.00    +0.000 OA
ATOM     26  O   UNL     1     111.532 126.045 137.282  0.00  0.00    +0.000 OA
ENDBRANCH  22  23
ENDBRANCH   7  22
TORSDOF 3
ENDMDL
