MODEL 1
REMARK VINA RESULT:     -10.9      0.000      0.000
REMARK  Name = 44258084
REMARK  7 active torsions:
REMARK  status: ('A' for Active; 'I' for Inactive)
REMARK    1  A    between atoms: O_3  and  C_22
REMARK    2  A    between atoms: O_3  and  C_26
REMARK    3  A    between atoms: O_6  and  C_27
REMARK    4  A    between atoms: O_6  and  C_29
REMARK    5  A    between atoms: C_17  and  C_26
REMARK    6  A    between atoms: C_25  and  C_28
REMARK    7  A    between atoms: C_36  and  C_38
REMARK                            x       y       z     vdW  Elec       q    Type
REMARK                         _______ _______ _______ _____ _____    ______ ____
ROOT
ATOM      1  O   UNL     1     106.195 126.618 142.795  0.00  0.00    +0.000 OA
ATOM      2  O   UNL     1     104.922 127.942 143.976  0.00  0.00    +0.000 OA
ATOM      3  O   UNL     1     104.843 128.670 142.497  0.00  0.00    +0.000 OA
ATOM      4  O   UNL     1     105.664 128.030 141.217  0.00  0.00    +0.000 OA
ATOM      5  C   UNL     1     105.784 126.938 143.435  0.00  0.00    +0.000 C 
ATOM      6  C   UNL     1     105.333 127.622 143.336  0.00  0.00    +0.000 C 
ATOM      7  C   UNL     1     105.294 127.986 142.596  0.00  0.00    +0.000 C 
ATOM      8  C   UNL     1     105.705 127.666 141.956  0.00  0.00    +0.000 C 
ATOM      9  C   UNL     1     106.155 126.982 142.056  0.00  0.00    +0.000 C 
ENDROOT
BRANCH   9  10
ATOM     10  O   UNL     1     106.566 126.662 141.416  0.00  0.00    +0.000 OA
BRANCH  10  14
ATOM     11  O   UNL     1     104.974 124.753 139.897  0.00  0.00    +0.000 OA
ATOM     12  O   UNL     1     107.226 123.817 141.447  0.00  0.00    +0.000 OA
ATOM     13  O   UNL     1     106.416 122.901 140.682  0.00  0.00    +0.000 OA
ATOM     14  C   UNL     1     106.415 125.887 141.174  0.00  0.00    +0.000 A 
ATOM     15  C   UNL     1     105.757 125.719 140.648  0.00  0.00    +0.000 A 
ATOM     16  C   UNL     1     106.916 125.244 141.447  0.00  0.00    +0.000 A 
ATOM     17  C   UNL     1     105.608 124.909 140.402  0.00  0.00    +0.000 A 
ATOM     18  C   UNL     1     106.751 124.441 141.190  0.00  0.00    +0.000 A 
ATOM     19  C   UNL     1     106.088 124.292 140.664  0.00  0.00    +0.000 A 
ATOM     20  C   UNL     1     105.936 123.519 140.421  0.00  0.00    +0.000 A 
ATOM     21  C   UNL     1     104.821 123.980 139.654  0.00  0.00    +0.000 A 
ATOM     22  C   UNL     1     105.302 123.363 139.916  0.00  0.00    +0.000 A 
BRANCH  21  25
ATOM     23  O   UNL     1     103.821 123.446 137.030  0.00  0.00    +0.000 OA
ATOM     24  O   UNL     1     102.288 123.356 137.633  0.00  0.00    +0.000 OA
ATOM     25  C   UNL     1     104.188 123.824 139.149  0.00  0.00    +0.000 A 
ATOM     26  C   UNL     1     104.321 123.713 138.342  0.00  0.00    +0.000 A 
ATOM     27  C   UNL     1     103.422 123.779 139.451  0.00  0.00    +0.000 A 
ATOM     28  C   UNL     1     103.688 123.557 137.837  0.00  0.00    +0.000 A 
ATOM     29  C   UNL     1     102.788 123.622 138.945  0.00  0.00    +0.000 A 
ATOM     30  C   UNL     1     102.922 123.512 138.138  0.00  0.00    +0.000 A 
ENDBRANCH  21  25
ENDBRANCH  10  14
ENDBRANCH   9  10
BRANCH   5  31
ATOM     31  C   UNL     1     105.824 126.574 144.174  0.00  0.00    +0.000 C 
BRANCH  31  32
ATOM     32  O   UNL     1     105.761 125.754 144.235  0.00  0.00    +0.000 OA
BRANCH  32  39
ATOM     33  O   UNL     1     106.395 125.630 145.510  0.00  0.00    +0.000 OA
ATOM     34  O   UNL     1     104.711 124.547 144.640  0.00  0.00    +0.000 OA
ATOM     35  O   UNL     1     104.821 123.819 146.117  0.00  0.00    +0.000 OA
ATOM     36  O   UNL     1     105.980 124.298 147.189  0.00  0.00    +0.000 OA
ATOM     37  C   UNL     1     105.292 124.787 145.176  0.00  0.00    +0.000 C 
ATOM     38  C   UNL     1     105.346 124.422 145.914  0.00  0.00    +0.000 C 
ATOM     39  C   UNL     1     105.816 125.390 144.974  0.00  0.00    +0.000 C 
ATOM     40  C   UNL     1     105.926 124.662 146.450  0.00  0.00    +0.000 C 
ATOM     41  C   UNL     1     106.450 125.266 146.248  0.00  0.00    +0.000 C 
BRANCH  41  43
ATOM     42  O   UNL     1     107.443 126.208 146.658  0.00  0.00    +0.000 OA
ATOM     43  C   UNL     1     107.030 125.505 146.784  0.00  0.00    +0.000 C 
ENDBRANCH  41  43
ENDBRANCH  32  39
ENDBRANCH  31  32
ENDBRANCH   5  31
TORSDOF 7
ENDMDL
MODEL 2
REMARK VINA RESULT:     -10.9      8.036      9.853
REMARK  Name = 44258084
REMARK  7 active torsions:
REMARK  status: ('A' for Active; 'I' for Inactive)
REMARK    1  A    between atoms: O_3  and  C_22
REMARK    2  A    between atoms: O_3  and  C_26
REMARK    3  A    between atoms: O_6  and  C_27
REMARK    4  A    between atoms: O_6  and  C_29
REMARK    5  A    between atoms: C_17  and  C_26
REMARK    6  A    between atoms: C_25  and  C_28
REMARK    7  A    between atoms: C_36  and  C_38
REMARK                            x       y       z     vdW  Elec       q    Type
REMARK                         _______ _______ _______ _____ _____    ______ ____
ROOT
ATOM      1  O   UNL     1     110.008 129.283 136.429  0.00  0.00    +0.000 OA
ATOM      2  O   UNL     1     109.757 131.255 135.525  0.00  0.00    +0.000 OA
ATOM      3  O   UNL     1     108.210 130.684 135.463  0.00  0.00    +0.000 OA
ATOM      4  O   UNL     1     107.861 129.180 136.044  0.00  0.00    +0.000 OA
ATOM      5  C   UNL     1     110.182 130.035 136.138  0.00  0.00    +0.000 C 
ATOM      6  C   UNL     1     109.583 130.503 135.816  0.00  0.00    +0.000 C 
ATOM      7  C   UNL     1     108.809 130.217 135.785  0.00  0.00    +0.000 C 
ATOM      8  C   UNL     1     108.635 129.465 136.076  0.00  0.00    +0.000 C 
ATOM      9  C   UNL     1     109.234 128.998 136.397  0.00  0.00    +0.000 C 
ENDROOT
BRANCH   9  10
ATOM     10  O   UNL     1     109.060 128.246 136.688  0.00  0.00    +0.000 OA
BRANCH  10  14
ATOM     11  O   UNL     1     111.334 126.426 136.686  0.00  0.00    +0.000 OA
ATOM     12  O   UNL     1     109.173 126.009 134.814  0.00  0.00    +0.000 OA
ATOM     13  O   UNL     1     110.315 125.128 134.842  0.00  0.00    +0.000 OA
ATOM     14  C   UNL     1     109.448 127.585 136.382  0.00  0.00    +0.000 A 
ATOM     15  C   UNL     1     110.208 127.343 136.701  0.00  0.00    +0.000 A 
ATOM     16  C   UNL     1     109.094 127.134 135.741  0.00  0.00    +0.000 A 
ATOM     17  C   UNL     1     110.604 126.654 136.376  0.00  0.00    +0.000 A 
ATOM     18  C   UNL     1     109.505 126.447 135.429  0.00  0.00    +0.000 A 
ATOM     19  C   UNL     1     110.264 126.221 135.761  0.00  0.00    +0.000 A 
ATOM     20  C   UNL     1     110.654 125.561 135.456  0.00  0.00    +0.000 A 
ATOM     21  C   UNL     1     111.723 125.765 136.382  0.00  0.00    +0.000 A 
ATOM     22  C   UNL     1     111.384 125.333 135.767  0.00  0.00    +0.000 A 
BRANCH  21  25
ATOM     23  O   UNL     1     114.573 125.992 136.429  0.00  0.00    +0.000 OA
ATOM     24  O   UNL     1     114.642 124.855 137.623  0.00  0.00    +0.000 OA
ATOM     25  C   UNL     1     112.453 125.538 136.692  0.00  0.00    +0.000 A 
ATOM     26  C   UNL     1     113.148 125.878 136.406  0.00  0.00    +0.000 A 
ATOM     27  C   UNL     1     112.488 124.969 137.289  0.00  0.00    +0.000 A 
ATOM     28  C   UNL     1     113.878 125.651 136.716  0.00  0.00    +0.000 A 
ATOM     29  C   UNL     1     113.219 124.742 137.600  0.00  0.00    +0.000 A 
ATOM     30  C   UNL     1     113.913 125.083 137.313  0.00  0.00    +0.000 A 
ENDBRANCH  21  25
ENDBRANCH  10  14
ENDBRANCH   9  10
BRANCH   5  31
ATOM     31  C   UNL     1     110.955 130.321 136.169  0.00  0.00    +0.000 C 
BRANCH  31  32
ATOM     32  O   UNL     1     111.379 130.291 136.876  0.00  0.00    +0.000 OA
BRANCH  32  39
ATOM     33  O   UNL     1     112.641 130.014 136.267  0.00  0.00    +0.000 OA
ATOM     34  O   UNL     1     112.140 131.146 138.065  0.00  0.00    +0.000 OA
ATOM     35  O   UNL     1     113.783 131.297 138.049  0.00  0.00    +0.000 OA
ATOM     36  O   UNL     1     114.665 130.593 136.845  0.00  0.00    +0.000 OA
ATOM     37  C   UNL     1     112.581 130.793 137.462  0.00  0.00    +0.000 C 
ATOM     38  C   UNL     1     113.403 130.869 137.455  0.00  0.00    +0.000 C 
ATOM     39  C   UNL     1     112.201 130.366 136.868  0.00  0.00    +0.000 C 
ATOM     40  C   UNL     1     113.843 130.517 136.853  0.00  0.00    +0.000 C 
ATOM     41  C   UNL     1     113.462 130.090 136.259  0.00  0.00    +0.000 C 
BRANCH  41  43
ATOM     42  O   UNL     1     113.634 129.045 135.300  0.00  0.00    +0.000 OA
ATOM     43  C   UNL     1     113.904 129.738 135.657  0.00  0.00    +0.000 C 
ENDBRANCH  41  43
ENDBRANCH  32  39
ENDBRANCH  31  32
ENDBRANCH   5  31
TORSDOF 7
ENDMDL
MODEL 3
REMARK VINA RESULT:     -10.7      7.677      9.552
REMARK  Name = 44258084
REMARK  7 active torsions:
REMARK  status: ('A' for Active; 'I' for Inactive)
REMARK    1  A    between atoms: O_3  and  C_22
REMARK    2  A    between atoms: O_3  and  C_26
REMARK    3  A    between atoms: O_6  and  C_27
REMARK    4  A    between atoms: O_6  and  C_29
REMARK    5  A    between atoms: C_17  and  C_26
REMARK    6  A    between atoms: C_25  and  C_28
REMARK    7  A    between atoms: C_36  and  C_38
REMARK                            x       y       z     vdW  Elec       q    Type
REMARK                         _______ _______ _______ _____ _____    ______ ____
ROOT
ATOM      1  O   UNL     1     112.458 130.101 136.213  0.00  0.00    +0.000 OA
ATOM      2  O   UNL     1     113.659 131.169 137.691  0.00  0.00    +0.000 OA
ATOM      3  O   UNL     1     114.841 130.516 136.742  0.00  0.00    +0.000 OA
ATOM      4  O   UNL     1     114.434 129.587 135.441  0.00  0.00    +0.000 OA
ATOM      5  C   UNL     1     112.661 130.566 136.864  0.00  0.00    +0.000 C 
ATOM      6  C   UNL     1     113.456 130.705 137.040  0.00  0.00    +0.000 C 
ATOM      7  C   UNL     1     114.046 130.378 136.566  0.00  0.00    +0.000 C 
ATOM      8  C   UNL     1     113.843 129.913 135.915  0.00  0.00    +0.000 C 
ATOM      9  C   UNL     1     113.049 129.775 135.739  0.00  0.00    +0.000 C 
ENDROOT
BRANCH   9  10
ATOM     10  O   UNL     1     112.846 129.310 135.088  0.00  0.00    +0.000 OA
BRANCH  10  14
ATOM     11  O   UNL     1     111.879 126.701 135.948  0.00  0.00    +0.000 OA
ATOM     12  O   UNL     1     110.075 128.520 134.612  0.00  0.00    +0.000 OA
ATOM     13  O   UNL     1     109.631 127.220 135.052  0.00  0.00    +0.000 OA
ATOM     14  C   UNL     1     112.236 128.757 135.150  0.00  0.00    +0.000 A 
ATOM     15  C   UNL     1     112.378 127.998 135.526  0.00  0.00    +0.000 A 
ATOM     16  C   UNL     1     111.456 128.937 134.839  0.00  0.00    +0.000 A 
ATOM     17  C   UNL     1     111.737 127.429 135.586  0.00  0.00    +0.000 A 
ATOM     18  C   UNL     1     110.827 128.356 134.908  0.00  0.00    +0.000 A 
ATOM     19  C   UNL     1     110.988 127.602 135.287  0.00  0.00    +0.000 A 
ATOM     20  C   UNL     1     110.380 127.047 135.351  0.00  0.00    +0.000 A 
ATOM     21  C   UNL     1     111.271 126.147 136.012  0.00  0.00    +0.000 A 
ATOM     22  C   UNL     1     110.522 126.320 135.713  0.00  0.00    +0.000 A 
BRANCH  21  25
ATOM     23  O   UNL     1     111.355 124.529 138.367  0.00  0.00    +0.000 OA
ATOM     24  O   UNL     1     111.837 123.237 137.461  0.00  0.00    +0.000 OA
ATOM     25  C   UNL     1     111.413 125.419 136.374  0.00  0.00    +0.000 A 
ATOM     26  C   UNL     1     111.313 125.337 137.189  0.00  0.00    +0.000 A 
ATOM     27  C   UNL     1     111.654 124.773 135.921  0.00  0.00    +0.000 A 
ATOM     28  C   UNL     1     111.455 124.610 137.552  0.00  0.00    +0.000 A 
ATOM     29  C   UNL     1     111.796 124.045 136.284  0.00  0.00    +0.000 A 
ATOM     30  C   UNL     1     111.696 123.964 137.099  0.00  0.00    +0.000 A 
ENDBRANCH  21  25
ENDBRANCH  10  14
ENDBRANCH   9  10
BRANCH   5  31
ATOM     31  C   UNL     1     112.071 130.893 137.339  0.00  0.00    +0.000 C 
BRANCH  31  32
ATOM     32  O   UNL     1     111.576 130.401 137.780  0.00  0.00    +0.000 OA
BRANCH  32  39
ATOM     33  O   UNL     1     110.649 131.470 137.983  0.00  0.00    +0.000 OA
ATOM     34  O   UNL     1     110.434 129.316 138.270  0.00  0.00    +0.000 OA
ATOM     35  O   UNL     1     108.936 129.842 138.719  0.00  0.00    +0.000 OA
ATOM     36  O   UNL     1     108.580 131.453 138.678  0.00  0.00    +0.000 OA
ATOM     37  C   UNL     1     110.256 130.123 138.249  0.00  0.00    +0.000 C 
ATOM     38  C   UNL     1     109.507 130.385 138.474  0.00  0.00    +0.000 C 
ATOM     39  C   UNL     1     110.827 130.665 138.004  0.00  0.00    +0.000 C 
ATOM     40  C   UNL     1     109.330 131.190 138.453  0.00  0.00    +0.000 C 
ATOM     41  C   UNL     1     109.901 131.732 138.208  0.00  0.00    +0.000 C 
BRANCH  41  43
ATOM     42  O   UNL     1     110.124 133.062 138.682  0.00  0.00    +0.000 OA
ATOM     43  C   UNL     1     109.722 132.538 138.187  0.00  0.00    +0.000 C 
ENDBRANCH  41  43
ENDBRANCH  32  39
ENDBRANCH  31  32
ENDBRANCH   5  31
TORSDOF 7
ENDMDL
MODEL 4
REMARK VINA RESULT:     -10.6      7.267      8.920
REMARK  Name = 44258084
REMARK  7 active torsions:
REMARK  status: ('A' for Active; 'I' for Inactive)
REMARK    1  A    between atoms: O_3  and  C_22
REMARK    2  A    between atoms: O_3  and  C_26
REMARK    3  A    between atoms: O_6  and  C_27
REMARK    4  A    between atoms: O_6  and  C_29
REMARK    5  A    between atoms: C_17  and  C_26
REMARK    6  A    between atoms: C_25  and  C_28
REMARK    7  A    between atoms: C_36  and  C_38
REMARK                            x       y       z     vdW  Elec       q    Type
REMARK                         _______ _______ _______ _____ _____    ______ ____
ROOT
ATOM      1  O   UNL     1     110.179 129.183 136.463  0.00  0.00    +0.000 OA
ATOM      2  O   UNL     1     108.582 130.430 137.278  0.00  0.00    +0.000 OA
ATOM      3  O   UNL     1     108.122 130.329 135.697  0.00  0.00    +0.000 OA
ATOM      4  O   UNL     1     109.033 129.464 134.627  0.00  0.00    +0.000 OA
ATOM      5  C   UNL     1     109.723 129.616 136.999  0.00  0.00    +0.000 C 
ATOM      6  C   UNL     1     109.038 129.998 136.743  0.00  0.00    +0.000 C 
ATOM      7  C   UNL     1     108.808 129.947 135.953  0.00  0.00    +0.000 C 
ATOM      8  C   UNL     1     109.263 129.515 135.417  0.00  0.00    +0.000 C 
ATOM      9  C   UNL     1     109.948 129.133 135.673  0.00  0.00    +0.000 C 
ENDROOT
BRANCH   9  10
ATOM     10  O   UNL     1     110.403 128.701 135.138  0.00  0.00    +0.000 OA
BRANCH  10  14
ATOM     11  O   UNL     1     112.161 126.642 136.213  0.00  0.00    +0.000 OA
ATOM     12  O   UNL     1     109.668 125.879 134.966  0.00  0.00    +0.000 OA
ATOM     13  O   UNL     1     110.563 124.887 135.510  0.00  0.00    +0.000 OA
ATOM     14  C   UNL     1     110.569 127.905 135.284  0.00  0.00    +0.000 A 
ATOM     15  C   UNL     1     111.297 127.681 135.682  0.00  0.00    +0.000 A 
ATOM     16  C   UNL     1     110.014 127.296 135.040  0.00  0.00    +0.000 A 
ATOM     17  C   UNL     1     111.460 126.851 135.830  0.00  0.00    +0.000 A 
ATOM     18  C   UNL     1     110.194 126.471 135.197  0.00  0.00    +0.000 A 
ATOM     19  C   UNL     1     110.927 126.266 135.596  0.00  0.00    +0.000 A 
ATOM     20  C   UNL     1     111.095 125.472 135.744  0.00  0.00    +0.000 A 
ATOM     21  C   UNL     1     112.328 125.848 136.360  0.00  0.00    +0.000 A 
ATOM     22  C   UNL     1     111.796 125.263 136.126  0.00  0.00    +0.000 A 
BRANCH  21  25
ATOM     23  O   UNL     1     113.987 125.894 138.688  0.00  0.00    +0.000 OA
ATOM     24  O   UNL     1     115.130 125.011 137.891  0.00  0.00    +0.000 OA
ATOM     25  C   UNL     1     113.029 125.638 136.743  0.00  0.00    +0.000 A 
ATOM     26  C   UNL     1     113.158 125.871 137.524  0.00  0.00    +0.000 A 
ATOM     27  C   UNL     1     113.600 125.197 136.344  0.00  0.00    +0.000 A 
ATOM     28  C   UNL     1     113.858 125.662 137.907  0.00  0.00    +0.000 A 
ATOM     29  C   UNL     1     114.301 124.987 136.728  0.00  0.00    +0.000 A 
ATOM     30  C   UNL     1     114.429 125.220 137.508  0.00  0.00    +0.000 A 
ENDBRANCH  21  25
ENDBRANCH  10  14
ENDBRANCH   9  10
BRANCH   5  31
ATOM     31  C   UNL     1     109.953 129.667 137.789  0.00  0.00    +0.000 C 
BRANCH  31  32
ATOM     32  O   UNL     1     110.718 129.906 137.983  0.00  0.00    +0.000 OA
BRANCH  32  39
ATOM     33  O   UNL     1     110.969 128.960 139.024  0.00  0.00    +0.000 OA
ATOM     34  O   UNL     1     111.470 131.078 138.867  0.00  0.00    +0.000 OA
ATOM     35  O   UNL     1     112.096 130.719 140.351  0.00  0.00    +0.000 OA
ATOM     36  O   UNL     1     111.971 129.186 140.950  0.00  0.00    +0.000 OA
ATOM     37  C   UNL     1     111.407 130.311 139.167  0.00  0.00    +0.000 C 
ATOM     38  C   UNL     1     111.720 130.132 139.909  0.00  0.00    +0.000 C 
ATOM     39  C   UNL     1     111.031 129.725 138.725  0.00  0.00    +0.000 C 
ATOM     40  C   UNL     1     111.657 129.366 140.208  0.00  0.00    +0.000 C 
ATOM     41  C   UNL     1     111.282 128.780 139.765  0.00  0.00    +0.000 C 
BRANCH  41  43
ATOM     42  O   UNL     1     110.949 127.402 139.581  0.00  0.00    +0.000 OA
ATOM     43  C   UNL     1     111.219 128.013 140.065  0.00  0.00    +0.000 C 
ENDBRANCH  41  43
ENDBRANCH  32  39
ENDBRANCH  31  32
ENDBRANCH   5  31
TORSDOF 7
ENDMDL
MODEL 5
REMARK VINA RESULT:     -10.6      6.666      8.992
REMARK  Name = 44258084
REMARK  7 active torsions:
REMARK  status: ('A' for Active; 'I' for Inactive)
REMARK    1  A    between atoms: O_3  and  C_22
REMARK    2  A    between atoms: O_3  and  C_26
REMARK    3  A    between atoms: O_6  and  C_27
REMARK    4  A    between atoms: O_6  and  C_29
REMARK    5  A    between atoms: C_17  and  C_26
REMARK    6  A    between atoms: C_25  and  C_28
REMARK    7  A    between atoms: C_36  and  C_38
REMARK                            x       y       z     vdW  Elec       q    Type
REMARK                         _______ _______ _______ _____ _____    ______ ____
ROOT
ATOM      1  O   UNL     1     111.134 126.871 136.766  0.00  0.00    +0.000 OA
ATOM      2  O   UNL     1     111.236 124.755 137.293  0.00  0.00    +0.000 OA
ATOM      3  O   UNL     1     110.952 124.658 135.671  0.00  0.00    +0.000 OA
ATOM      4  O   UNL     1     110.790 126.036 134.778  0.00  0.00    +0.000 OA
ATOM      5  C   UNL     1     111.216 126.182 137.212  0.00  0.00    +0.000 C 
ATOM      6  C   UNL     1     111.155 125.444 136.847  0.00  0.00    +0.000 C 
ATOM      7  C   UNL     1     111.013 125.396 136.036  0.00  0.00    +0.000 C 
ATOM      8  C   UNL     1     110.932 126.085 135.589  0.00  0.00    +0.000 C 
ATOM      9  C   UNL     1     110.992 126.822 135.954  0.00  0.00    +0.000 C 
ENDROOT
BRANCH   9  10
ATOM     10  O   UNL     1     110.911 127.511 135.508  0.00  0.00    +0.000 OA
BRANCH  10  14
ATOM     11  O   UNL     1     110.151 130.104 136.595  0.00  0.00    +0.000 OA
ATOM     12  O   UNL     1     108.104 128.312 135.621  0.00  0.00    +0.000 OA
ATOM     13  O   UNL     1     107.765 129.604 136.166  0.00  0.00    +0.000 OA
ATOM     14  C   UNL     1     110.329 128.063 135.703  0.00  0.00    +0.000 A 
ATOM     15  C   UNL     1     110.548 128.815 136.056  0.00  0.00    +0.000 A 
ATOM     16  C   UNL     1     109.501 127.889 135.554  0.00  0.00    +0.000 A 
ATOM     17  C   UNL     1     109.935 129.384 136.256  0.00  0.00    +0.000 A 
ATOM     18  C   UNL     1     108.902 128.470 135.760  0.00  0.00    +0.000 A 
ATOM     19  C   UNL     1     109.140 129.217 136.113  0.00  0.00    +0.000 A 
ATOM     20  C   UNL     1     108.560 129.770 136.309  0.00  0.00    +0.000 A 
ATOM     21  C   UNL     1     109.571 130.658 136.791  0.00  0.00    +0.000 A 
ATOM     22  C   UNL     1     108.776 130.491 136.648  0.00  0.00    +0.000 A 
BRANCH  21  25
ATOM     23  O   UNL     1     110.130 132.233 139.110  0.00  0.00    +0.000 OA
ATOM     24  O   UNL     1     110.434 133.539 138.148  0.00  0.00    +0.000 OA
ATOM     25  C   UNL     1     109.787 131.378 137.130  0.00  0.00    +0.000 A 
ATOM     26  C   UNL     1     109.851 131.446 137.950  0.00  0.00    +0.000 A 
ATOM     27  C   UNL     1     109.939 132.031 136.649  0.00  0.00    +0.000 A 
ATOM     28  C   UNL     1     110.066 132.166 138.290  0.00  0.00    +0.000 A 
ATOM     29  C   UNL     1     110.155 132.752 136.989  0.00  0.00    +0.000 A 
ATOM     30  C   UNL     1     110.218 132.819 137.809  0.00  0.00    +0.000 A 
ENDBRANCH  21  25
ENDBRANCH  10  14
ENDBRANCH   9  10
BRANCH   5  31
ATOM     31  C   UNL     1     111.358 126.230 138.023  0.00  0.00    +0.000 C 
BRANCH  31  32
ATOM     32  O   UNL     1     112.004 126.658 138.305  0.00  0.00    +0.000 OA
BRANCH  32  39
ATOM     33  O   UNL     1     111.507 126.633 139.644  0.00  0.00    +0.000 OA
ATOM     34  O   UNL     1     113.523 126.958 138.874  0.00  0.00    +0.000 OA
ATOM     35  O   UNL     1     113.786 127.082 140.499  0.00  0.00    +0.000 OA
ATOM     36  O   UNL     1     112.529 126.907 141.553  0.00  0.00    +0.000 OA
ATOM     37  C   UNL     1     112.894 126.870 139.402  0.00  0.00    +0.000 C 
ATOM     38  C   UNL     1     113.026 126.932 140.214  0.00  0.00    +0.000 C 
ATOM     39  C   UNL     1     112.134 126.720 139.117  0.00  0.00    +0.000 C 
ATOM     40  C   UNL     1     112.397 126.845 140.741  0.00  0.00    +0.000 C 
ATOM     41  C   UNL     1     111.637 126.695 140.456  0.00  0.00    +0.000 C 
BRANCH  41  43
ATOM     42  O   UNL     1     110.560 125.916 140.978  0.00  0.00    +0.000 OA
ATOM     43  C   UNL     1     111.009 126.608 140.984  0.00  0.00    +0.000 C 
ENDBRANCH  41  43
ENDBRANCH  32  39
ENDBRANCH  31  32
ENDBRANCH   5  31
TORSDOF 7
ENDMDL
MODEL 6
REMARK VINA RESULT:     -10.5      7.722      9.420
REMARK  Name = 44258084
REMARK  7 active torsions:
REMARK  status: ('A' for Active; 'I' for Inactive)
REMARK    1  A    between atoms: O_3  and  C_22
REMARK    2  A    between atoms: O_3  and  C_26
REMARK    3  A    between atoms: O_6  and  C_27
REMARK    4  A    between atoms: O_6  and  C_29
REMARK    5  A    between atoms: C_17  and  C_26
REMARK    6  A    between atoms: C_25  and  C_28
REMARK    7  A    between atoms: C_36  and  C_38
REMARK                            x       y       z     vdW  Elec       q    Type
REMARK                         _______ _______ _______ _____ _____    ______ ____
ROOT
ATOM      1  O   UNL     1     112.932 127.645 138.702  0.00  0.00    +0.000 OA
ATOM      2  O   UNL     1     112.531 126.366 140.425  0.00  0.00    +0.000 OA
ATOM      3  O   UNL     1     112.923 127.783 141.173  0.00  0.00    +0.000 OA
ATOM      4  O   UNL     1     113.321 129.108 140.274  0.00  0.00    +0.000 OA
ATOM      5  C   UNL     1     112.733 126.982 139.151  0.00  0.00    +0.000 C 
ATOM      6  C   UNL     1     112.730 127.028 139.975  0.00  0.00    +0.000 C 
ATOM      7  C   UNL     1     112.926 127.737 140.349  0.00  0.00    +0.000 C 
ATOM      8  C   UNL     1     113.125 128.400 139.900  0.00  0.00    +0.000 C 
ATOM      9  C   UNL     1     113.128 128.353 139.077  0.00  0.00    +0.000 C 
ENDROOT
BRANCH   9  10
ATOM     10  O   UNL     1     113.327 129.016 138.627  0.00  0.00    +0.000 OA
BRANCH  10  14
ATOM     11  O   UNL     1     111.053 129.624 136.913  0.00  0.00    +0.000 OA
ATOM     12  O   UNL     1     113.615 129.024 135.720  0.00  0.00    +0.000 OA
ATOM     13  O   UNL     1     112.466 129.330 134.903  0.00  0.00    +0.000 OA
ATOM     14  C   UNL     1     113.005 129.116 137.874  0.00  0.00    +0.000 A 
ATOM     15  C   UNL     1     112.176 129.323 137.782  0.00  0.00    +0.000 A 
ATOM     16  C   UNL     1     113.496 129.014 137.176  0.00  0.00    +0.000 A 
ATOM     17  C   UNL     1     111.849 129.425 136.994  0.00  0.00    +0.000 A 
ATOM     18  C   UNL     1     113.152 129.120 136.396  0.00  0.00    +0.000 A 
ATOM     19  C   UNL     1     112.321 129.327 136.325  0.00  0.00    +0.000 A 
ATOM     20  C   UNL     1     111.996 129.428 135.573  0.00  0.00    +0.000 A 
ATOM     21  C   UNL     1     110.728 129.725 136.161  0.00  0.00    +0.000 A 
ATOM     22  C   UNL     1     111.199 129.627 135.491  0.00  0.00    +0.000 A 
BRANCH  21  25
ATOM     23  O   UNL     1     108.000 128.935 135.834  0.00  0.00    +0.000 OA
ATOM     24  O   UNL     1     107.542 130.520 135.834  0.00  0.00    +0.000 OA
ATOM     25  C   UNL     1     109.931 129.924 136.079  0.00  0.00    +0.000 A 
ATOM     26  C   UNL     1     109.364 129.330 135.998  0.00  0.00    +0.000 A 
ATOM     27  C   UNL     1     109.702 130.716 136.079  0.00  0.00    +0.000 A 
ATOM     28  C   UNL     1     108.567 129.528 135.916  0.00  0.00    +0.000 A 
ATOM     29  C   UNL     1     108.904 130.915 135.998  0.00  0.00    +0.000 A 
ATOM     30  C   UNL     1     108.338 130.321 135.916  0.00  0.00    +0.000 A 
ENDBRANCH  21  25
ENDBRANCH  10  14
ENDBRANCH   9  10
BRANCH   5  31
ATOM     31  C   UNL     1     112.537 126.274 138.778  0.00  0.00    +0.000 C 
BRANCH  31  32
ATOM     32  O   UNL     1     112.979 126.011 138.132  0.00  0.00    +0.000 OA
BRANCH  32  39
ATOM     33  O   UNL     1     111.891 125.680 137.267  0.00  0.00    +0.000 OA
ATOM     34  O   UNL     1     113.785 124.659 137.636  0.00  0.00    +0.000 OA
ATOM     35  O   UNL     1     113.100 123.652 136.522  0.00  0.00    +0.000 OA
ATOM     36  O   UNL     1     111.609 123.998 135.905  0.00  0.00    +0.000 OA
ATOM     37  C   UNL     1     113.039 124.832 137.327  0.00  0.00    +0.000 C 
ATOM     38  C   UNL     1     112.697 124.328 136.771  0.00  0.00    +0.000 C 
ATOM     39  C   UNL     1     112.636 125.508 137.575  0.00  0.00    +0.000 C 
ATOM     40  C   UNL     1     111.952 124.501 136.462  0.00  0.00    +0.000 C 
ATOM     41  C   UNL     1     111.549 125.177 136.710  0.00  0.00    +0.000 C 
BRANCH  41  43
ATOM     42  O   UNL     1     110.605 126.128 136.215  0.00  0.00    +0.000 OA
ATOM     43  C   UNL     1     110.803 125.349 136.401  0.00  0.00    +0.000 C 
ENDBRANCH  41  43
ENDBRANCH  32  39
ENDBRANCH  31  32
ENDBRANCH   5  31
TORSDOF 7
ENDMDL
MODEL 7
REMARK VINA RESULT:     -10.4      7.187      9.410
REMARK  Name = 44258084
REMARK  7 active torsions:
REMARK  status: ('A' for Active; 'I' for Inactive)
REMARK    1  A    between atoms: O_3  and  C_22
REMARK    2  A    between atoms: O_3  and  C_26
REMARK    3  A    between atoms: O_6  and  C_27
REMARK    4  A    between atoms: O_6  and  C_29
REMARK    5  A    between atoms: C_17  and  C_26
REMARK    6  A    between atoms: C_25  and  C_28
REMARK    7  A    between atoms: C_36  and  C_38
REMARK                            x       y       z     vdW  Elec       q    Type
REMARK                         _______ _______ _______ _____ _____    ______ ____
ROOT
ATOM      1  O   UNL     1     111.358 126.541 137.065  0.00  0.00    +0.000 OA
ATOM      2  O   UNL     1     111.586 124.443 137.622  0.00  0.00    +0.000 OA
ATOM      3  O   UNL     1     111.244 124.302 136.014  0.00  0.00    +0.000 OA
ATOM      4  O   UNL     1     110.978 125.654 135.106  0.00  0.00    +0.000 OA
ATOM      5  C   UNL     1     111.491 125.865 137.518  0.00  0.00    +0.000 C 
ATOM      6  C   UNL     1     111.453 125.119 137.168  0.00  0.00    +0.000 C 
ATOM      7  C   UNL     1     111.282 125.049 136.364  0.00  0.00    +0.000 C 
ATOM      8  C   UNL     1     111.149 125.725 135.910  0.00  0.00    +0.000 C 
ATOM      9  C   UNL     1     111.187 126.471 136.260  0.00  0.00    +0.000 C 
ENDROOT
BRANCH   9  10
ATOM     10  O   UNL     1     111.054 127.147 135.806  0.00  0.00    +0.000 OA
BRANCH  10  14
ATOM     11  O   UNL     1     111.147 129.861 136.858  0.00  0.00    +0.000 OA
ATOM     12  O   UNL     1     113.534 128.688 135.730  0.00  0.00    +0.000 OA
ATOM     13  O   UNL     1     113.543 130.029 136.260  0.00  0.00    +0.000 OA
ATOM     14  C   UNL     1     111.474 127.840 135.965  0.00  0.00    +0.000 A 
ATOM     15  C   UNL     1     111.083 128.507 136.338  0.00  0.00    +0.000 A 
ATOM     16  C   UNL     1     112.306 127.898 135.757  0.00  0.00    +0.000 A 
ATOM     17  C   UNL     1     111.528 129.224 136.499  0.00  0.00    +0.000 A 
ATOM     18  C   UNL     1     112.736 128.623 135.926  0.00  0.00    +0.000 A 
ATOM     19  C   UNL     1     112.327 129.279 136.299  0.00  0.00    +0.000 A 
ATOM     20  C   UNL     1     112.745 129.973 136.459  0.00  0.00    +0.000 A 
ATOM     21  C   UNL     1     111.565 130.555 137.017  0.00  0.00    +0.000 A 
ATOM     22  C   UNL     1     112.363 130.611 136.817  0.00  0.00    +0.000 A 
BRANCH  21  25
ATOM     23  O   UNL     1     110.482 131.796 139.353  0.00  0.00    +0.000 OA
ATOM     24  O   UNL     1     110.040 133.105 138.452  0.00  0.00    +0.000 OA
ATOM     25  C   UNL     1     111.184 131.193 137.375  0.00  0.00    +0.000 A 
ATOM     26  C   UNL     1     111.023 131.176 138.185  0.00  0.00    +0.000 A 
ATOM     27  C   UNL     1     110.963 131.847 136.925  0.00  0.00    +0.000 A 
ATOM     28  C   UNL     1     110.642 131.813 138.544  0.00  0.00    +0.000 A 
ATOM     29  C   UNL     1     110.581 132.485 137.285  0.00  0.00    +0.000 A 
ATOM     30  C   UNL     1     110.421 132.468 138.094  0.00  0.00    +0.000 A 
ENDBRANCH  21  25
ENDBRANCH  10  14
ENDBRANCH   9  10
BRANCH   5  31
ATOM     31  C   UNL     1     111.662 125.935 138.322  0.00  0.00    +0.000 C 
BRANCH  31  32
ATOM     32  O   UNL     1     112.350 126.320 138.567  0.00  0.00    +0.000 OA
BRANCH  32  39
ATOM     33  O   UNL     1     111.802 126.492 139.875  0.00  0.00    +0.000 OA
ATOM     34  O   UNL     1     113.818 126.838 139.113  0.00  0.00    +0.000 OA
ATOM     35  O   UNL     1     114.005 127.268 140.695  0.00  0.00    +0.000 OA
ATOM     36  O   UNL     1     112.723 127.181 141.730  0.00  0.00    +0.000 OA
ATOM     37  C   UNL     1     113.177 126.794 139.631  0.00  0.00    +0.000 C 
ATOM     38  C   UNL     1     113.271 127.009 140.421  0.00  0.00    +0.000 C 
ATOM     39  C   UNL     1     112.443 126.535 139.358  0.00  0.00    +0.000 C 
ATOM     40  C   UNL     1     112.630 126.966 140.939  0.00  0.00    +0.000 C 
ATOM     41  C   UNL     1     111.896 126.707 140.666  0.00  0.00    +0.000 C 
BRANCH  41  43
ATOM     42  O   UNL     1     110.877 125.941 141.312  0.00  0.00    +0.000 OA
ATOM     43  C   UNL     1     111.255 126.663 141.184  0.00  0.00    +0.000 C 
ENDBRANCH  41  43
ENDBRANCH  32  39
ENDBRANCH  31  32
ENDBRANCH   5  31
TORSDOF 7
ENDMDL
MODEL 8
REMARK VINA RESULT:     -10.4      7.299      9.444
REMARK  Name = 44258084
REMARK  7 active torsions:
REMARK  status: ('A' for Active; 'I' for Inactive)
REMARK    1  A    between atoms: O_3  and  C_22
REMARK    2  A    between atoms: O_3  and  C_26
REMARK    3  A    between atoms: O_6  and  C_27
REMARK    4  A    between atoms: O_6  and  C_29
REMARK    5  A    between atoms: C_17  and  C_26
REMARK    6  A    between atoms: C_25  and  C_28
REMARK    7  A    between atoms: C_36  and  C_38
REMARK                            x       y       z     vdW  Elec       q    Type
REMARK                         _______ _______ _______ _____ _____    ______ ____
ROOT
ATOM      1  O   UNL     1     112.434 128.972 140.852  0.00  0.00    +0.000 OA
ATOM      2  O   UNL     1     111.974 131.001 141.516  0.00  0.00    +0.000 OA
ATOM      3  O   UNL     1     111.883 130.178 142.943  0.00  0.00    +0.000 OA
ATOM      4  O   UNL     1     112.160 128.552 142.977  0.00  0.00    +0.000 OA
ATOM      5  C   UNL     1     112.296 129.785 140.835  0.00  0.00    +0.000 C 
ATOM      6  C   UNL     1     112.112 130.188 141.533  0.00  0.00    +0.000 C 
ATOM      7  C   UNL     1     112.067 129.776 142.246  0.00  0.00    +0.000 C 
ATOM      8  C   UNL     1     112.205 128.963 142.263  0.00  0.00    +0.000 C 
ATOM      9  C   UNL     1     112.388 128.561 141.566  0.00  0.00    +0.000 C 
ENDROOT
BRANCH   9  10
ATOM     10  O   UNL     1     112.527 127.748 141.583  0.00  0.00    +0.000 OA
BRANCH  10  14
ATOM     11  O   UNL     1     113.165 126.477 139.042  0.00  0.00    +0.000 OA
ATOM     12  O   UNL     1     110.533 126.136 140.184  0.00  0.00    +0.000 OA
ATOM     13  O   UNL     1     110.885 125.521 138.927  0.00  0.00    +0.000 OA
ATOM     14  C   UNL     1     112.305 127.278 140.942  0.00  0.00    +0.000 A 
ATOM     15  C   UNL     1     112.864 127.118 140.310  0.00  0.00    +0.000 A 
ATOM     16  C   UNL     1     111.513 126.946 140.902  0.00  0.00    +0.000 A 
ATOM     17  C   UNL     1     112.624 126.627 139.646  0.00  0.00    +0.000 A 
ATOM     18  C   UNL     1     111.291 126.458 140.231  0.00  0.00    +0.000 A 
ATOM     19  C   UNL     1     111.864 126.309 139.608  0.00  0.00    +0.000 A 
ATOM     20  C   UNL     1     111.645 125.840 138.966  0.00  0.00    +0.000 A 
ATOM     21  C   UNL     1     112.946 126.007 138.400  0.00  0.00    +0.000 A 
ATOM     22  C   UNL     1     112.186 125.689 138.362  0.00  0.00    +0.000 A 
BRANCH  21  25
ATOM     23  O   UNL     1     115.057 124.420 137.307  0.00  0.00    +0.000 OA
ATOM     24  O   UNL     1     115.110 125.403 135.983  0.00  0.00    +0.000 OA
ATOM     25  C   UNL     1     113.487 125.856 137.795  0.00  0.00    +0.000 A 
ATOM     26  C   UNL     1     114.001 125.214 137.853  0.00  0.00    +0.000 A 
ATOM     27  C   UNL     1     113.514 126.348 137.133  0.00  0.00    +0.000 A 
ATOM     28  C   UNL     1     114.543 125.062 137.249  0.00  0.00    +0.000 A 
ATOM     29  C   UNL     1     114.056 126.196 136.529  0.00  0.00    +0.000 A 
ATOM     30  C   UNL     1     114.569 125.554 136.587  0.00  0.00    +0.000 A 
ENDBRANCH  21  25
ENDBRANCH  10  14
ENDBRANCH   9  10
BRANCH   5  31
ATOM     31  C   UNL     1     112.341 130.197 140.122  0.00  0.00    +0.000 C 
BRANCH  31  32
ATOM     32  O   UNL     1     113.002 130.111 139.636  0.00  0.00    +0.000 OA
BRANCH  32  39
ATOM     33  O   UNL     1     112.288 129.906 138.415  0.00  0.00    +0.000 OA
ATOM     34  O   UNL     1     114.152 130.967 138.820  0.00  0.00    +0.000 OA
ATOM     35  O   UNL     1     114.013 131.190 137.191  0.00  0.00    +0.000 OA
ATOM     36  O   UNL     1     112.724 130.557 136.378  0.00  0.00    +0.000 OA
ATOM     37  C   UNL     1     113.507 130.650 138.413  0.00  0.00    +0.000 C 
ATOM     38  C   UNL     1     113.438 130.762 137.599  0.00  0.00    +0.000 C 
ATOM     39  C   UNL     1     112.932 130.222 138.821  0.00  0.00    +0.000 C 
ATOM     40  C   UNL     1     112.793 130.445 137.193  0.00  0.00    +0.000 C 
ATOM     41  C   UNL     1     112.218 130.017 137.602  0.00  0.00    +0.000 C 
BRANCH  41  43
ATOM     42  O   UNL     1     111.214 129.010 137.466  0.00  0.00    +0.000 OA
ATOM     43  C   UNL     1     111.574 129.701 137.195  0.00  0.00    +0.000 C 
ENDBRANCH  41  43
ENDBRANCH  32  39
ENDBRANCH  31  32
ENDBRANCH   5  31
TORSDOF 7
ENDMDL
MODEL 9
REMARK VINA RESULT:     -10.4      7.743      9.619
REMARK  Name = 44258084
REMARK  7 active torsions:
REMARK  status: ('A' for Active; 'I' for Inactive)
REMARK    1  A    between atoms: O_3  and  C_22
REMARK    2  A    between atoms: O_3  and  C_26
REMARK    3  A    between atoms: O_6  and  C_27
REMARK    4  A    between atoms: O_6  and  C_29
REMARK    5  A    between atoms: C_17  and  C_26
REMARK    6  A    between atoms: C_25  and  C_28
REMARK    7  A    between atoms: C_36  and  C_38
REMARK                            x       y       z     vdW  Elec       q    Type
REMARK                         _______ _______ _______ _____ _____    ______ ____
ROOT
ATOM      1  O   UNL     1     111.579 130.231 138.672  0.00  0.00    +0.000 OA
ATOM      2  O   UNL     1     109.932 130.289 140.105  0.00  0.00    +0.000 OA
ATOM      3  O   UNL     1     111.219 130.091 141.118  0.00  0.00    +0.000 OA
ATOM      4  O   UNL     1     112.746 129.986 140.501  0.00  0.00    +0.000 OA
ATOM      5  C   UNL     1     110.815 130.283 138.981  0.00  0.00    +0.000 C 
ATOM      6  C   UNL     1     110.695 130.237 139.796  0.00  0.00    +0.000 C 
ATOM      7  C   UNL     1     111.339 130.138 140.302  0.00  0.00    +0.000 C 
ATOM      8  C   UNL     1     112.103 130.085 139.994  0.00  0.00    +0.000 C 
ATOM      9  C   UNL     1     112.222 130.132 139.180  0.00  0.00    +0.000 C 
ENDROOT
BRANCH   9  10
ATOM     10  O   UNL     1     112.985 130.079 138.871  0.00  0.00    +0.000 OA
BRANCH  10  14
ATOM     11  O   UNL     1     113.250 127.584 137.392  0.00  0.00    +0.000 OA
ATOM     12  O   UNL     1     113.532 130.101 136.002  0.00  0.00    +0.000 OA
ATOM     13  O   UNL     1     113.657 128.846 135.303  0.00  0.00    +0.000 OA
ATOM     14  C   UNL     1     113.118 129.677 138.162  0.00  0.00    +0.000 A 
ATOM     15  C   UNL     1     113.115 128.818 138.145  0.00  0.00    +0.000 A 
ATOM     16  C   UNL     1     113.259 130.116 137.437  0.00  0.00    +0.000 A 
ATOM     17  C   UNL     1     113.254 128.409 137.403  0.00  0.00    +0.000 A 
ATOM     18  C   UNL     1     113.396 129.689 136.704  0.00  0.00    +0.000 A 
ATOM     19  C   UNL     1     113.389 128.830 136.706  0.00  0.00    +0.000 A 
ATOM     20  C   UNL     1     113.521 128.426 135.999  0.00  0.00    +0.000 A 
ATOM     21  C   UNL     1     113.382 127.180 136.685  0.00  0.00    +0.000 A 
ATOM     22  C   UNL     1     113.518 127.601 135.989  0.00  0.00    +0.000 A 
BRANCH  21  25
ATOM     23  O   UNL     1     111.963 124.714 136.405  0.00  0.00    +0.000 OA
ATOM     24  O   UNL     1     113.367 123.880 136.643  0.00  0.00    +0.000 OA
ATOM     25  C   UNL     1     113.378 126.355 136.675  0.00  0.00    +0.000 A 
ATOM     26  C   UNL     1     112.673 125.947 136.545  0.00  0.00    +0.000 A 
ATOM     27  C   UNL     1     114.080 125.938 136.794  0.00  0.00    +0.000 A 
ATOM     28  C   UNL     1     112.669 125.122 136.535  0.00  0.00    +0.000 A 
ATOM     29  C   UNL     1     114.076 125.112 136.784  0.00  0.00    +0.000 A 
ATOM     30  C   UNL     1     113.370 124.705 136.654  0.00  0.00    +0.000 A 
ENDBRANCH  21  25
ENDBRANCH  10  14
ENDBRANCH   9  10
BRANCH   5  31
ATOM     31  C   UNL     1     110.171 130.383 138.475  0.00  0.00    +0.000 C 
BRANCH  31  32
ATOM     32  O   UNL     1     110.029 129.835 137.875  0.00  0.00    +0.000 OA
BRANCH  32  39
ATOM     33  O   UNL     1     109.085 130.728 137.282  0.00  0.00    +0.000 OA
ATOM     34  O   UNL     1     109.721 128.725 136.693  0.00  0.00    +0.000 OA
ATOM     35  O   UNL     1     108.623 129.064 135.509  0.00  0.00    +0.000 OA
ATOM     36  O   UNL     1     107.834 130.513 135.507  0.00  0.00    +0.000 OA
ATOM     37  C   UNL     1     109.326 129.450 136.692  0.00  0.00    +0.000 C 
ATOM     38  C   UNL     1     108.777 129.619 136.100  0.00  0.00    +0.000 C 
ATOM     39  C   UNL     1     109.480 130.005 137.283  0.00  0.00    +0.000 C 
ATOM     40  C   UNL     1     108.383 130.343 136.099  0.00  0.00    +0.000 C 
ATOM     41  C   UNL     1     108.537 130.898 136.690  0.00  0.00    +0.000 C 
BRANCH  41  43
ATOM     42  O   UNL     1     107.809 131.912 137.386  0.00  0.00    +0.000 OA
ATOM     43  C   UNL     1     108.142 131.622 136.688  0.00  0.00    +0.000 C 
ENDBRANCH  41  43
ENDBRANCH  32  39
ENDBRANCH  31  32
ENDBRANCH   5  31
TORSDOF 7
ENDMDL
MODEL 10
REMARK VINA RESULT:     -10.4      6.667      8.260
REMARK  Name = 44258084
REMARK  7 active torsions:
REMARK  status: ('A' for Active; 'I' for Inactive)
REMARK    1  A    between atoms: O_3  and  C_22
REMARK    2  A    between atoms: O_3  and  C_26
REMARK    3  A    between atoms: O_6  and  C_27
REMARK    4  A    between atoms: O_6  and  C_29
REMARK    5  A    between atoms: C_17  and  C_26
REMARK    6  A    between atoms: C_25  and  C_28
REMARK    7  A    between atoms: C_36  and  C_38
REMARK                            x       y       z     vdW  Elec       q    Type
REMARK                         _______ _______ _______ _____ _____    ______ ____
ROOT
ATOM      1  O   UNL     1     110.433 131.181 137.517  0.00  0.00    +0.000 OA
ATOM      2  O   UNL     1     110.284 132.904 138.850  0.00  0.00    +0.000 OA
ATOM      3  O   UNL     1     110.233 133.645 137.376  0.00  0.00    +0.000 OA
ATOM      4  O   UNL     1     110.315 132.744 135.997  0.00  0.00    +0.000 OA
ATOM      5  C   UNL     1     110.392 131.632 138.207  0.00  0.00    +0.000 C 
ATOM      6  C   UNL     1     110.325 132.453 138.160  0.00  0.00    +0.000 C 
ATOM      7  C   UNL     1     110.300 132.823 137.423  0.00  0.00    +0.000 C 
ATOM      8  C   UNL     1     110.341 132.373 136.733  0.00  0.00    +0.000 C 
ATOM      9  C   UNL     1     110.408 131.552 136.780  0.00  0.00    +0.000 C 
ENDROOT
BRANCH   9  10
ATOM     10  O   UNL     1     110.449 131.102 136.090  0.00  0.00    +0.000 OA
BRANCH  10  14
ATOM     11  O   UNL     1     110.274 128.197 135.977  0.00  0.00    +0.000 OA
ATOM     12  O   UNL     1     107.865 129.778 135.767  0.00  0.00    +0.000 OA
ATOM     13  O   UNL     1     107.817 128.337 135.715  0.00  0.00    +0.000 OA
ATOM     14  C   UNL     1     109.998 130.413 136.019  0.00  0.00    +0.000 A 
ATOM     15  C   UNL     1     110.380 129.644 136.035  0.00  0.00    +0.000 A 
ATOM     16  C   UNL     1     109.145 130.462 135.928  0.00  0.00    +0.000 A 
ATOM     17  C   UNL     1     109.903 128.933 135.961  0.00  0.00    +0.000 A 
ATOM     18  C   UNL     1     108.684 129.741 135.855  0.00  0.00    +0.000 A 
ATOM     19  C   UNL     1     109.084 128.980 135.873  0.00  0.00    +0.000 A 
ATOM     20  C   UNL     1     108.636 128.291 135.802  0.00  0.00    +0.000 A 
ATOM     21  C   UNL     1     109.826 127.507 135.906  0.00  0.00    +0.000 A 
ATOM     22  C   UNL     1     109.007 127.554 135.819  0.00  0.00    +0.000 A 
BRANCH  21  25
ATOM     23  O   UNL     1     110.912 125.315 137.385  0.00  0.00    +0.000 OA
ATOM     24  O   UNL     1     111.312 124.561 135.972  0.00  0.00    +0.000 OA
ATOM     25  C   UNL     1     110.198 126.771 135.922  0.00  0.00    +0.000 A 
ATOM     26  C   UNL     1     110.369 126.411 136.645  0.00  0.00    +0.000 A 
ATOM     27  C   UNL     1     110.398 126.394 135.216  0.00  0.00    +0.000 A 
ATOM     28  C   UNL     1     110.740 125.674 136.662  0.00  0.00    +0.000 A 
ATOM     29  C   UNL     1     110.770 125.657 135.234  0.00  0.00    +0.000 A 
ATOM     30  C   UNL     1     110.941 125.298 135.956  0.00  0.00    +0.000 A 
ENDBRANCH  21  25
ENDBRANCH  10  14
ENDBRANCH   9  10
BRANCH   5  31
ATOM     31  C   UNL     1     110.418 131.262 138.943  0.00  0.00    +0.000 C 
BRANCH  31  32
ATOM     32  O   UNL     1     111.035 130.746 139.126  0.00  0.00    +0.000 OA
BRANCH  32  39
ATOM     33  O   UNL     1     110.285 129.641 139.632  0.00  0.00    +0.000 OA
ATOM     34  O   UNL     1     112.101 130.595 140.377  0.00  0.00    +0.000 OA
ATOM     35  O   UNL     1     111.882 129.414 141.508  0.00  0.00    +0.000 OA
ATOM     36  O   UNL     1     110.599 128.384 141.388  0.00  0.00    +0.000 OA
ATOM     37  C   UNL     1     111.458 130.080 140.317  0.00  0.00    +0.000 C 
ATOM     38  C   UNL     1     111.350 129.490 140.883  0.00  0.00    +0.000 C 
ATOM     39  C   UNL     1     110.926 130.155 139.691  0.00  0.00    +0.000 C 
ATOM     40  C   UNL     1     110.708 128.975 140.822  0.00  0.00    +0.000 C 
ATOM     41  C   UNL     1     110.175 129.051 140.197  0.00  0.00    +0.000 C 
BRANCH  41  43
ATOM     42  O   UNL     1     109.217 128.355 139.397  0.00  0.00    +0.000 OA
ATOM     43  C   UNL     1     109.534 128.535 140.138  0.00  0.00    +0.000 C 
ENDBRANCH  41  43
ENDBRANCH  32  39
ENDBRANCH  31  32
ENDBRANCH   5  31
TORSDOF 7
ENDMDL
