MODEL 1
REMARK VINA RESULT:      -8.4      0.000      0.000
REMARK  Name = 14078727
REMARK  2 active torsions:
REMARK  status: ('A' for Active; 'I' for Inactive)
REMARK    1  A    between atoms: O_3  and  C_13
REMARK    2  A    between atoms: C_5  and  C_10
REMARK                            x       y       z     vdW  Elec       q    Type
REMARK                         _______ _______ _______ _____ _____    ______ ____
ROOT
ATOM      1  O   UNL     1     102.895 130.478 142.147  0.00  0.00    +0.000 OA
ATOM      2  O   UNL     1     102.722 129.294 139.916  0.00  0.00    +0.000 OA
ATOM      3  O   UNL     1     103.689 128.328 140.379  0.00  0.00    +0.000 OA
ATOM      4  C   UNL     1     102.365 130.788 141.545  0.00  0.00    +0.000 C 
ATOM      5  C   UNL     1     102.304 130.389 140.787  0.00  0.00    +0.000 C 
ATOM      6  C   UNL     1     103.357 129.773 141.982  0.00  0.00    +0.000 A 
ATOM      7  C   UNL     1     103.299 129.389 141.254  0.00  0.00    +0.000 A 
ATOM      8  C   UNL     1     102.775 129.684 140.641  0.00  0.00    +0.000 C 
ATOM      9  C   UNL     1     103.864 129.480 142.563  0.00  0.00    +0.000 A 
ATOM     10  C   UNL     1     103.748 128.712 141.107  0.00  0.00    +0.000 A 
ATOM     11  C   UNL     1     104.313 128.804 142.417  0.00  0.00    +0.000 A 
ATOM     12  C   UNL     1     104.254 128.420 141.689  0.00  0.00    +0.000 A 
ATOM     13  C   UNL     1     103.923 129.864 143.291  0.00  0.00    +0.000 C 
ENDROOT
BRANCH   4  14
ATOM     14  C   UNL     1     101.918 131.465 141.694  0.00  0.00    +0.000 A 
ATOM     15  C   UNL     1     101.158 131.397 142.009  0.00  0.00    +0.000 A 
ATOM     16  C   UNL     1     102.230 132.211 141.529  0.00  0.00    +0.000 A 
ATOM     17  C   UNL     1     100.711 132.072 142.158  0.00  0.00    +0.000 A 
ATOM     18  C   UNL     1     101.782 132.888 141.679  0.00  0.00    +0.000 A 
ATOM     19  C   UNL     1     101.022 132.819 141.993  0.00  0.00    +0.000 A 
ENDBRANCH   4  14
BRANCH  11  20
ATOM     20  O   UNL     1     104.820 128.510 142.998  0.00  0.00    +0.000 OA
ATOM     21  C   UNL     1     105.290 127.851 142.841  0.00  0.00    +0.000 C 
ENDBRANCH  11  20
TORSDOF 2
ENDMDL
MODEL 2
REMARK VINA RESULT:      -8.1     10.411     12.049
REMARK  Name = 14078727
REMARK  2 active torsions:
REMARK  status: ('A' for Active; 'I' for Inactive)
REMARK    1  A    between atoms: O_3  and  C_13
REMARK    2  A    between atoms: C_5  and  C_10
REMARK                            x       y       z     vdW  Elec       q    Type
REMARK                         _______ _______ _______ _____ _____    ______ ____
ROOT
ATOM      1  O   UNL     1     112.525 126.427 136.248  0.00  0.00    +0.000 OA
ATOM      2  O   UNL     1     110.833 124.614 135.738  0.00  0.00    +0.000 OA
ATOM      3  O   UNL     1     109.970 125.614 135.156  0.00  0.00    +0.000 OA
ATOM      4  C   UNL     1     112.699 125.614 136.467  0.00  0.00    +0.000 C 
ATOM      5  C   UNL     1     112.127 124.997 136.296  0.00  0.00    +0.000 C 
ATOM      6  C   UNL     1     111.781 126.611 135.860  0.00  0.00    +0.000 A 
ATOM      7  C   UNL     1     111.231 126.018 135.695  0.00  0.00    +0.000 A 
ATOM      8  C   UNL     1     111.388 125.200 135.906  0.00  0.00    +0.000 C 
ATOM      9  C   UNL     1     111.618 127.393 135.651  0.00  0.00    +0.000 A 
ATOM     10  C   UNL     1     110.519 126.207 135.321  0.00  0.00    +0.000 A 
ATOM     11  C   UNL     1     110.908 127.581 135.278  0.00  0.00    +0.000 A 
ATOM     12  C   UNL     1     110.358 126.988 135.113  0.00  0.00    +0.000 A 
ATOM     13  C   UNL     1     112.168 127.985 135.816  0.00  0.00    +0.000 C 
ENDROOT
BRANCH   4  14
ATOM     14  C   UNL     1     113.411 125.428 136.840  0.00  0.00    +0.000 A 
ATOM     15  C   UNL     1     114.037 125.117 136.402  0.00  0.00    +0.000 A 
ATOM     16  C   UNL     1     113.497 125.554 137.651  0.00  0.00    +0.000 A 
ATOM     17  C   UNL     1     114.748 124.931 136.775  0.00  0.00    +0.000 A 
ATOM     18  C   UNL     1     114.210 125.368 138.024  0.00  0.00    +0.000 A 
ATOM     19  C   UNL     1     114.836 125.056 137.586  0.00  0.00    +0.000 A 
ENDBRANCH   4  14
BRANCH  11  20
ATOM     20  O   UNL     1     110.745 128.363 135.070  0.00  0.00    +0.000 OA
ATOM     21  C   UNL     1     110.083 128.539 134.612  0.00  0.00    +0.000 C 
ENDBRANCH  11  20
TORSDOF 2
ENDMDL
MODEL 3
REMARK VINA RESULT:      -8.1      7.440      8.442
REMARK  Name = 14078727
REMARK  2 active torsions:
REMARK  status: ('A' for Active; 'I' for Inactive)
REMARK    1  A    between atoms: O_3  and  C_13
REMARK    2  A    between atoms: C_5  and  C_10
REMARK                            x       y       z     vdW  Elec       q    Type
REMARK                         _______ _______ _______ _____ _____    ______ ____
ROOT
ATOM      1  O   UNL     1     105.029 124.369 147.456  0.00  0.00    +0.000 OA
ATOM      2  O   UNL     1     106.373 125.279 145.512  0.00  0.00    +0.000 OA
ATOM      3  O   UNL     1     107.485 125.488 146.408  0.00  0.00    +0.000 OA
ATOM      4  C   UNL     1     104.669 124.408 146.676  0.00  0.00    +0.000 C 
ATOM      5  C   UNL     1     105.122 124.716 146.015  0.00  0.00    +0.000 C 
ATOM      6  C   UNL     1     105.837 124.639 147.563  0.00  0.00    +0.000 A 
ATOM      7  C   UNL     1     106.273 124.935 146.928  0.00  0.00    +0.000 A 
ATOM      8  C   UNL     1     105.930 124.982 146.142  0.00  0.00    +0.000 C 
ATOM      9  C   UNL     1     106.178 124.600 148.313  0.00  0.00    +0.000 A 
ATOM     10  C   UNL     1     107.049 125.192 147.043  0.00  0.00    +0.000 A 
ATOM     11  C   UNL     1     106.953 124.857 148.429  0.00  0.00    +0.000 A 
ATOM     12  C   UNL     1     107.389 125.152 147.794  0.00  0.00    +0.000 A 
ATOM     13  C   UNL     1     105.743 124.304 148.949  0.00  0.00    +0.000 C 
ENDROOT
BRANCH   4  14
ATOM     14  C   UNL     1     103.893 124.150 146.563  0.00  0.00    +0.000 A 
ATOM     15  C   UNL     1     103.748 123.433 146.183  0.00  0.00    +0.000 A 
ATOM     16  C   UNL     1     103.263 124.611 146.831  0.00  0.00    +0.000 A 
ATOM     17  C   UNL     1     102.973 123.176 146.070  0.00  0.00    +0.000 A 
ATOM     18  C   UNL     1     102.487 124.352 146.718  0.00  0.00    +0.000 A 
ATOM     19  C   UNL     1     102.342 123.635 146.338  0.00  0.00    +0.000 A 
ENDBRANCH   4  14
BRANCH  11  20
ATOM     20  O   UNL     1     107.294 124.817 149.180  0.00  0.00    +0.000 OA
ATOM     21  C   UNL     1     108.072 124.558 149.267  0.00  0.00    +0.000 C 
ENDBRANCH  11  20
TORSDOF 2
ENDMDL
MODEL 4
REMARK VINA RESULT:      -7.8     10.177     12.062
REMARK  Name = 14078727
REMARK  2 active torsions:
REMARK  status: ('A' for Active; 'I' for Inactive)
REMARK    1  A    between atoms: O_3  and  C_13
REMARK    2  A    between atoms: C_5  and  C_10
REMARK                            x       y       z     vdW  Elec       q    Type
REMARK                         _______ _______ _______ _____ _____    ______ ____
ROOT
ATOM      1  O   UNL     1     112.290 125.764 136.234  0.00  0.00    +0.000 OA
ATOM      2  O   UNL     1     112.397 128.283 135.998  0.00  0.00    +0.000 OA
ATOM      3  O   UNL     1     111.082 128.260 135.403  0.00  0.00    +0.000 OA
ATOM      4  C   UNL     1     112.990 126.184 136.505  0.00  0.00    +0.000 C 
ATOM      5  C   UNL     1     113.029 127.038 136.426  0.00  0.00    +0.000 C 
ATOM      6  C   UNL     1     111.639 126.206 135.888  0.00  0.00    +0.000 A 
ATOM      7  C   UNL     1     111.677 127.026 135.813  0.00  0.00    +0.000 A 
ATOM      8  C   UNL     1     112.368 127.462 136.077  0.00  0.00    +0.000 C 
ATOM      9  C   UNL     1     110.970 125.798 135.630  0.00  0.00    +0.000 A 
ATOM     10  C   UNL     1     111.045 127.440 135.479  0.00  0.00    +0.000 A 
ATOM     11  C   UNL     1     110.338 126.210 135.297  0.00  0.00    +0.000 A 
ATOM     12  C   UNL     1     110.376 127.031 135.221  0.00  0.00    +0.000 A 
ATOM     13  C   UNL     1     110.932 124.978 135.706  0.00  0.00    +0.000 C 
ENDROOT
BRANCH   4  14
ATOM     14  C   UNL     1     113.620 125.768 136.838  0.00  0.00    +0.000 A 
ATOM     15  C   UNL     1     113.699 125.727 137.658  0.00  0.00    +0.000 A 
ATOM     16  C   UNL     1     114.172 125.395 136.351  0.00  0.00    +0.000 A 
ATOM     17  C   UNL     1     114.328 125.312 137.991  0.00  0.00    +0.000 A 
ATOM     18  C   UNL     1     114.802 124.979 136.685  0.00  0.00    +0.000 A 
ATOM     19  C   UNL     1     114.881 124.938 137.505  0.00  0.00    +0.000 A 
ENDBRANCH   4  14
BRANCH  11  20
ATOM     20  O   UNL     1     109.669 125.803 135.038  0.00  0.00    +0.000 OA
ATOM     21  C   UNL     1     108.953 126.201 134.947  0.00  0.00    +0.000 C 
ENDBRANCH  11  20
TORSDOF 2
ENDMDL
MODEL 5
REMARK VINA RESULT:      -7.8      7.897      9.084
REMARK  Name = 14078727
REMARK  2 active torsions:
REMARK  status: ('A' for Active; 'I' for Inactive)
REMARK    1  A    between atoms: O_3  and  C_13
REMARK    2  A    between atoms: C_5  and  C_10
REMARK                            x       y       z     vdW  Elec       q    Type
REMARK                         _______ _______ _______ _____ _____    ______ ____
ROOT
ATOM      1  O   UNL     1     105.186 124.572 147.504  0.00  0.00    +0.000 OA
ATOM      2  O   UNL     1     103.838 125.785 149.271  0.00  0.00    +0.000 OA
ATOM      3  O   UNL     1     102.633 125.445 148.553  0.00  0.00    +0.000 OA
ATOM      4  C   UNL     1     105.594 124.945 148.162  0.00  0.00    +0.000 C 
ATOM      5  C   UNL     1     105.139 125.357 148.763  0.00  0.00    +0.000 C 
ATOM      6  C   UNL     1     104.329 124.617 147.456  0.00  0.00    +0.000 A 
ATOM      7  C   UNL     1     103.893 125.013 148.033  0.00  0.00    +0.000 A 
ATOM      8  C   UNL     1     104.282 125.392 148.698  0.00  0.00    +0.000 C 
ATOM      9  C   UNL     1     103.943 124.257 146.821  0.00  0.00    +0.000 A 
ATOM     10  C   UNL     1     103.070 125.049 147.976  0.00  0.00    +0.000 A 
ATOM     11  C   UNL     1     103.121 124.293 146.764  0.00  0.00    +0.000 A 
ATOM     12  C   UNL     1     102.685 124.689 147.341  0.00  0.00    +0.000 A 
ATOM     13  C   UNL     1     104.380 123.861 146.244  0.00  0.00    +0.000 C 
ENDROOT
BRANCH   4  14
ATOM     14  C   UNL     1     106.416 124.908 148.217  0.00  0.00    +0.000 A 
ATOM     15  C   UNL     1     106.884 125.320 147.678  0.00  0.00    +0.000 A 
ATOM     16  C   UNL     1     106.770 124.457 148.811  0.00  0.00    +0.000 A 
ATOM     17  C   UNL     1     107.706 125.283 147.732  0.00  0.00    +0.000 A 
ATOM     18  C   UNL     1     107.593 124.420 148.865  0.00  0.00    +0.000 A 
ATOM     19  C   UNL     1     108.061 124.833 148.326  0.00  0.00    +0.000 A 
ENDBRANCH   4  14
BRANCH  11  20
ATOM     20  O   UNL     1     102.735 123.934 146.130  0.00  0.00    +0.000 OA
ATOM     21  C   UNL     1     101.938 123.732 146.192  0.00  0.00    +0.000 C 
ENDBRANCH  11  20
TORSDOF 2
ENDMDL
MODEL 6
REMARK VINA RESULT:      -7.7     10.257     11.513
REMARK  Name = 14078727
REMARK  2 active torsions:
REMARK  status: ('A' for Active; 'I' for Inactive)
REMARK    1  A    between atoms: O_3  and  C_13
REMARK    2  A    between atoms: C_5  and  C_10
REMARK                            x       y       z     vdW  Elec       q    Type
REMARK                         _______ _______ _______ _____ _____    ______ ____
ROOT
ATOM      1  O   UNL     1     111.928 126.297 137.120  0.00  0.00    +0.000 OA
ATOM      2  O   UNL     1     113.988 124.938 136.553  0.00  0.00    +0.000 OA
ATOM      3  O   UNL     1     114.538 125.276 137.843  0.00  0.00    +0.000 OA
ATOM      4  C   UNL     1     111.975 125.902 136.358  0.00  0.00    +0.000 C 
ATOM      5  C   UNL     1     112.673 125.440 136.162  0.00  0.00    +0.000 C 
ATOM      6  C   UNL     1     112.579 126.225 137.675  0.00  0.00    +0.000 A 
ATOM      7  C   UNL     1     113.249 125.782 137.488  0.00  0.00    +0.000 A 
ATOM      8  C   UNL     1     113.314 125.380 136.732  0.00  0.00    +0.000 C 
ATOM      9  C   UNL     1     112.528 126.607 138.405  0.00  0.00    +0.000 A 
ATOM     10  C   UNL     1     113.868 125.720 138.031  0.00  0.00    +0.000 A 
ATOM     11  C   UNL     1     113.146 126.545 138.947  0.00  0.00    +0.000 A 
ATOM     12  C   UNL     1     113.816 126.102 138.760  0.00  0.00    +0.000 A 
ATOM     13  C   UNL     1     111.858 127.050 138.593  0.00  0.00    +0.000 C 
ENDROOT
BRANCH   4  14
ATOM     14  C   UNL     1     111.355 125.966 135.817  0.00  0.00    +0.000 A 
ATOM     15  C   UNL     1     111.289 126.638 135.343  0.00  0.00    +0.000 A 
ATOM     16  C   UNL     1     110.802 125.357 135.751  0.00  0.00    +0.000 A 
ATOM     17  C   UNL     1     110.669 126.701 134.803  0.00  0.00    +0.000 A 
ATOM     18  C   UNL     1     110.182 125.422 135.210  0.00  0.00    +0.000 A 
ATOM     19  C   UNL     1     110.115 126.094 134.736  0.00  0.00    +0.000 A 
ENDBRANCH   4  14
BRANCH  11  20
ATOM     20  O   UNL     1     113.096 126.927 139.677  0.00  0.00    +0.000 OA
ATOM     21  C   UNL     1     113.748 126.941 140.182  0.00  0.00    +0.000 C 
ENDBRANCH  11  20
TORSDOF 2
ENDMDL
MODEL 7
REMARK VINA RESULT:      -7.7      9.582     11.596
REMARK  Name = 14078727
REMARK  2 active torsions:
REMARK  status: ('A' for Active; 'I' for Inactive)
REMARK    1  A    between atoms: O_3  and  C_13
REMARK    2  A    between atoms: C_5  and  C_10
REMARK                            x       y       z     vdW  Elec       q    Type
REMARK                         _______ _______ _______ _____ _____    ______ ____
ROOT
ATOM      1  O   UNL     1     113.518 126.291 138.857  0.00  0.00    +0.000 OA
ATOM      2  O   UNL     1     111.061 125.762 138.552  0.00  0.00    +0.000 OA
ATOM      3  O   UNL     1     110.792 126.384 139.826  0.00  0.00    +0.000 OA
ATOM      4  C   UNL     1     113.260 125.883 138.146  0.00  0.00    +0.000 C 
ATOM      5  C   UNL     1     112.427 125.702 138.040  0.00  0.00    +0.000 C 
ATOM      6  C   UNL     1     112.939 126.513 139.452  0.00  0.00    +0.000 A 
ATOM      7  C   UNL     1     112.139 126.339 139.350  0.00  0.00    +0.000 A 
ATOM      8  C   UNL     1     111.863 125.932 138.646  0.00  0.00    +0.000 C 
ATOM      9  C   UNL     1     113.192 126.905 140.133  0.00  0.00    +0.000 A 
ATOM     10  C   UNL     1     111.592 126.557 139.928  0.00  0.00    +0.000 A 
ATOM     11  C   UNL     1     112.646 127.123 140.711  0.00  0.00    +0.000 A 
ATOM     12  C   UNL     1     111.846 126.949 140.608  0.00  0.00    +0.000 A 
ATOM     13  C   UNL     1     113.992 127.078 140.235  0.00  0.00    +0.000 C 
ENDROOT
BRANCH   4  14
ATOM     14  C   UNL     1     113.809 125.666 137.569  0.00  0.00    +0.000 A 
ATOM     15  C   UNL     1     114.231 124.961 137.646  0.00  0.00    +0.000 A 
ATOM     16  C   UNL     1     113.936 126.154 136.916  0.00  0.00    +0.000 A 
ATOM     17  C   UNL     1     114.779 124.744 137.070  0.00  0.00    +0.000 A 
ATOM     18  C   UNL     1     114.485 125.936 136.340  0.00  0.00    +0.000 A 
ATOM     19  C   UNL     1     114.907 125.231 136.416  0.00  0.00    +0.000 A 
ENDBRANCH   4  14
BRANCH  11  20
ATOM     20  O   UNL     1     112.899 127.515 141.391  0.00  0.00    +0.000 OA
ATOM     21  C   UNL     1     112.366 127.963 141.832  0.00  0.00    +0.000 C 
ENDBRANCH  11  20
TORSDOF 2
ENDMDL
MODEL 8
REMARK VINA RESULT:      -7.6     11.019     11.689
REMARK  Name = 14078727
REMARK  2 active torsions:
REMARK  status: ('A' for Active; 'I' for Inactive)
REMARK    1  A    between atoms: O_3  and  C_13
REMARK    2  A    between atoms: C_5  and  C_10
REMARK                            x       y       z     vdW  Elec       q    Type
REMARK                         _______ _______ _______ _____ _____    ______ ____
ROOT
ATOM      1  O   UNL     1     112.919 126.642 136.491  0.00  0.00    +0.000 OA
ATOM      2  O   UNL     1     110.632 126.682 135.405  0.00  0.00    +0.000 OA
ATOM      3  O   UNL     1     110.529 125.259 135.624  0.00  0.00    +0.000 OA
ATOM      4  C   UNL     1     112.602 127.388 136.202  0.00  0.00    +0.000 C 
ATOM      5  C   UNL     1     111.827 127.404 135.833  0.00  0.00    +0.000 C 
ATOM      6  C   UNL     1     112.455 125.924 136.408  0.00  0.00    +0.000 A 
ATOM      7  C   UNL     1     111.710 125.940 136.053  0.00  0.00    +0.000 A 
ATOM      8  C   UNL     1     111.377 126.675 135.758  0.00  0.00    +0.000 C 
ATOM      9  C   UNL     1     112.763 125.212 136.687  0.00  0.00    +0.000 A 
ATOM     10  C   UNL     1     111.274 125.243 135.978  0.00  0.00    +0.000 A 
ATOM     11  C   UNL     1     112.328 124.516 136.612  0.00  0.00    +0.000 A 
ATOM     12  C   UNL     1     111.583 124.531 136.258  0.00  0.00    +0.000 A 
ATOM     13  C   UNL     1     113.508 125.196 137.041  0.00  0.00    +0.000 C 
ENDROOT
BRANCH   4  14
ATOM     14  C   UNL     1     113.041 128.083 136.278  0.00  0.00    +0.000 A 
ATOM     15  C   UNL     1     113.563 128.308 135.681  0.00  0.00    +0.000 A 
ATOM     16  C   UNL     1     112.957 128.552 136.952  0.00  0.00    +0.000 A 
ATOM     17  C   UNL     1     114.001 129.002 135.756  0.00  0.00    +0.000 A 
ATOM     18  C   UNL     1     113.395 129.247 137.027  0.00  0.00    +0.000 A 
ATOM     19  C   UNL     1     113.918 129.473 136.430  0.00  0.00    +0.000 A 
ENDBRANCH   4  14
BRANCH  11  20
ATOM     20  O   UNL     1     112.636 123.803 136.891  0.00  0.00    +0.000 OA
ATOM     21  C   UNL     1     112.132 123.174 137.063  0.00  0.00    +0.000 C 
ENDBRANCH  11  20
TORSDOF 2
ENDMDL
MODEL 9
REMARK VINA RESULT:      -7.5      1.818      4.493
REMARK  Name = 14078727
REMARK  2 active torsions:
REMARK  status: ('A' for Active; 'I' for Inactive)
REMARK    1  A    between atoms: O_3  and  C_13
REMARK    2  A    between atoms: C_5  and  C_10
REMARK                            x       y       z     vdW  Elec       q    Type
REMARK                         _______ _______ _______ _____ _____    ______ ____
ROOT
ATOM      1  O   UNL     1     102.739 132.005 141.078  0.00  0.00    +0.000 OA
ATOM      2  O   UNL     1     100.711 132.266 142.571  0.00  0.00    +0.000 OA
ATOM      3  O   UNL     1     100.866 133.699 142.493  0.00  0.00    +0.000 OA
ATOM      4  C   UNL     1     102.330 131.304 141.360  0.00  0.00    +0.000 C 
ATOM      5  C   UNL     1     101.642 131.389 141.867  0.00  0.00    +0.000 C 
ATOM      6  C   UNL     1     102.453 132.783 141.306  0.00  0.00    +0.000 A 
ATOM      7  C   UNL     1     101.792 132.865 141.793  0.00  0.00    +0.000 A 
ATOM      8  C   UNL     1     101.371 132.175 142.085  0.00  0.00    +0.000 C 
ATOM      9  C   UNL     1     102.849 133.453 141.032  0.00  0.00    +0.000 A 
ATOM     10  C   UNL     1     101.527 133.617 142.006  0.00  0.00    +0.000 A 
ATOM     11  C   UNL     1     102.584 134.204 141.245  0.00  0.00    +0.000 A 
ATOM     12  C   UNL     1     101.924 134.286 141.732  0.00  0.00    +0.000 A 
ATOM     13  C   UNL     1     103.510 133.371 140.545  0.00  0.00    +0.000 C 
ENDROOT
BRANCH   4  14
ATOM     14  C   UNL     1     102.597 130.553 141.146  0.00  0.00    +0.000 A 
ATOM     15  C   UNL     1     102.287 130.180 140.478  0.00  0.00    +0.000 A 
ATOM     16  C   UNL     1     103.174 130.175 141.599  0.00  0.00    +0.000 A 
ATOM     17  C   UNL     1     102.554 129.430 140.264  0.00  0.00    +0.000 A 
ATOM     18  C   UNL     1     103.441 129.424 141.384  0.00  0.00    +0.000 A 
ATOM     19  C   UNL     1     103.131 129.051 140.717  0.00  0.00    +0.000 A 
ENDBRANCH   4  14
BRANCH  11  20
ATOM     20  O   UNL     1     102.980 134.874 140.971  0.00  0.00    +0.000 OA
ATOM     21  C   UNL     1     102.712 135.626 141.177  0.00  0.00    +0.000 C 
ENDBRANCH  11  20
TORSDOF 2
ENDMDL
MODEL 10
REMARK VINA RESULT:      -7.5      7.692      8.559
REMARK  Name = 14078727
REMARK  2 active torsions:
REMARK  status: ('A' for Active; 'I' for Inactive)
REMARK    1  A    between atoms: O_3  and  C_13
REMARK    2  A    between atoms: C_5  and  C_10
REMARK                            x       y       z     vdW  Elec       q    Type
REMARK                         _______ _______ _______ _____ _____    ______ ____
ROOT
ATOM      1  O   UNL     1     103.952 124.314 147.507  0.00  0.00    +0.000 OA
ATOM      2  O   UNL     1     104.275 123.721 145.067  0.00  0.00    +0.000 OA
ATOM      3  O   UNL     1     102.972 123.101 145.069  0.00  0.00    +0.000 OA
ATOM      4  C   UNL     1     104.681 124.540 147.111  0.00  0.00    +0.000 C 
ATOM      5  C   UNL     1     104.794 124.341 146.283  0.00  0.00    +0.000 C 
ATOM      6  C   UNL     1     103.346 123.891 147.069  0.00  0.00    +0.000 A 
ATOM      7  C   UNL     1     103.454 123.700 146.274  0.00  0.00    +0.000 A 
ATOM      8  C   UNL     1     104.175 123.917 145.862  0.00  0.00    +0.000 C 
ATOM      9  C   UNL     1     102.648 123.677 147.454  0.00  0.00    +0.000 A 
ATOM     10  C   UNL     1     102.864 123.293 145.864  0.00  0.00    +0.000 A 
ATOM     11  C   UNL     1     102.059 123.271 147.045  0.00  0.00    +0.000 A 
ATOM     12  C   UNL     1     102.167 123.079 146.250  0.00  0.00    +0.000 A 
ATOM     13  C   UNL     1     102.541 123.869 148.249  0.00  0.00    +0.000 C 
ENDROOT
BRANCH   4  14
ATOM     14  C   UNL     1     105.269 124.946 147.524  0.00  0.00    +0.000 A 
ATOM     15  C   UNL     1     105.879 124.529 147.890  0.00  0.00    +0.000 A 
ATOM     16  C   UNL     1     105.247 125.770 147.569  0.00  0.00    +0.000 A 
ATOM     17  C   UNL     1     106.467 124.934 148.302  0.00  0.00    +0.000 A 
ATOM     18  C   UNL     1     105.836 126.176 147.982  0.00  0.00    +0.000 A 
ATOM     19  C   UNL     1     106.446 125.758 148.349  0.00  0.00    +0.000 A 
ENDBRANCH   4  14
BRANCH  11  20
ATOM     20  O   UNL     1     101.362 123.056 147.429  0.00  0.00    +0.000 OA
ATOM     21  C   UNL     1     100.711 122.800 146.992  0.00  0.00    +0.000 C 
ENDBRANCH  11  20
TORSDOF 2
ENDMDL
