MODEL 1
REMARK VINA RESULT:     -10.3      0.000      0.000
REMARK  Name = 5318761
REMARK  6 active torsions:
REMARK  status: ('A' for Active; 'I' for Inactive)
REMARK    1  A    between atoms: O_1  and  C_16
REMARK    2  A    between atoms: O_1  and  C_19
REMARK    3  A    between atoms: O_4  and  C_20
REMARK    4  A    between atoms: O_4  and  C_28
REMARK    5  A    between atoms: C_22  and  C_26
REMARK    6  A    between atoms: C_29  and  C_32
REMARK                            x       y       z     vdW  Elec       q    Type
REMARK                         _______ _______ _______ _____ _____    ______ ____
ROOT
ATOM      1  O   UNL     1     112.060 127.023 137.516  0.00  0.00    +0.000 OA
ENDROOT
BRANCH   1   6
ATOM      2  O   UNL     1     113.381 126.071 138.970  0.00  0.00    +0.000 OA
ATOM      3  O   UNL     1     112.446 128.309 138.475  0.00  0.00    +0.000 OA
ATOM      4  O   UNL     1     113.139 128.880 139.605  0.00  0.00    +0.000 OA
ATOM      5  O   UNL     1     114.809 127.154 141.265  0.00  0.00    +0.000 OA
ATOM      6  C   UNL     1     112.565 126.920 138.161  0.00  0.00    +0.000 A 
ATOM      7  C   UNL     1     112.876 126.174 138.325  0.00  0.00    +0.000 A 
ATOM      8  C   UNL     1     112.757 127.563 138.640  0.00  0.00    +0.000 A 
ATOM      9  C   UNL     1     113.262 127.460 139.285  0.00  0.00    +0.000 A 
ATOM     10  C   UNL     1     113.574 126.714 139.450  0.00  0.00    +0.000 A 
ATOM     11  C   UNL     1     113.455 128.137 139.777  0.00  0.00    +0.000 A 
ATOM     12  C   UNL     1     114.100 126.594 140.118  0.00  0.00    +0.000 A 
ATOM     13  C   UNL     1     113.980 128.036 140.450  0.00  0.00    +0.000 A 
ATOM     14  C   UNL     1     114.304 127.259 140.621  0.00  0.00    +0.000 A 
BRANCH   7  16
ATOM     15  O   UNL     1     112.105 123.601 136.407  0.00  0.00    +0.000 OA
ATOM     16  C   UNL     1     112.684 125.531 137.846  0.00  0.00    +0.000 A 
ATOM     17  C   UNL     1     111.970 125.133 137.958  0.00  0.00    +0.000 A 
ATOM     18  C   UNL     1     113.204 125.286 137.255  0.00  0.00    +0.000 A 
ATOM     19  C   UNL     1     111.777 124.489 137.478  0.00  0.00    +0.000 A 
ATOM     20  C   UNL     1     113.012 124.643 136.775  0.00  0.00    +0.000 A 
ATOM     21  C   UNL     1     112.298 124.245 136.887  0.00  0.00    +0.000 A 
ENDBRANCH   7  16
ENDBRANCH   1   6
BRANCH   1  28
ATOM     22  O   UNL     1     113.008 127.708 136.695  0.00  0.00    +0.000 OA
ATOM     23  O   UNL     1     111.186 129.082 135.738  0.00  0.00    +0.000 OA
ATOM     24  O   UNL     1     112.741 129.309 135.237  0.00  0.00    +0.000 OA
ATOM     25  C   UNL     1     111.623 128.053 136.627  0.00  0.00    +0.000 C 
ATOM     26  C   UNL     1     111.794 128.624 136.057  0.00  0.00    +0.000 C 
ATOM     27  C   UNL     1     112.571 128.738 135.806  0.00  0.00    +0.000 C 
ATOM     28  C   UNL     1     112.230 127.595 136.946  0.00  0.00    +0.000 C 
ATOM     29  C   UNL     1     113.178 128.280 136.125  0.00  0.00    +0.000 C 
BRANCH  29  31
ATOM     30  O   UNL     1     114.430 127.741 135.695  0.00  0.00    +0.000 OA
ATOM     31  C   UNL     1     113.956 128.393 135.875  0.00  0.00    +0.000 C 
ENDBRANCH  29  31
BRANCH  25  32
ATOM     32  O   UNL     1     110.846 127.939 136.878  0.00  0.00    +0.000 OA
BRANCH  32  37
ATOM     33  O   UNL     1     110.596 127.103 135.746  0.00  0.00    +0.000 OA
ATOM     34  O   UNL     1     109.246 127.875 137.276  0.00  0.00    +0.000 OA
ATOM     35  O   UNL     1     108.197 127.008 136.344  0.00  0.00    +0.000 OA
ATOM     36  O   UNL     1     108.748 126.204 135.012  0.00  0.00    +0.000 OA
ATOM     37  C   UNL     1     110.321 127.505 136.411  0.00  0.00    +0.000 C 
ATOM     38  C   UNL     1     109.521 127.473 136.611  0.00  0.00    +0.000 C 
ATOM     39  C   UNL     1     108.996 127.039 136.144  0.00  0.00    +0.000 C 
ATOM     40  C   UNL     1     109.272 126.638 135.479  0.00  0.00    +0.000 C 
ATOM     41  C   UNL     1     110.072 126.669 135.279  0.00  0.00    +0.000 C 
ATOM     42  C   UNL     1     110.348 126.267 134.614  0.00  0.00    +0.000 C 
ENDBRANCH  32  37
ENDBRANCH  25  32
ENDBRANCH   1  28
TORSDOF 6
ENDMDL
MODEL 2
REMARK VINA RESULT:      -9.9      2.368      4.137
REMARK  Name = 5318761
REMARK  6 active torsions:
REMARK  status: ('A' for Active; 'I' for Inactive)
REMARK    1  A    between atoms: O_1  and  C_16
REMARK    2  A    between atoms: O_1  and  C_19
REMARK    3  A    between atoms: O_4  and  C_20
REMARK    4  A    between atoms: O_4  and  C_28
REMARK    5  A    between atoms: C_22  and  C_26
REMARK    6  A    between atoms: C_29  and  C_32
REMARK                            x       y       z     vdW  Elec       q    Type
REMARK                         _______ _______ _______ _____ _____    ______ ____
ROOT
ATOM      1  O   UNL     1     111.594 126.421 139.033  0.00  0.00    +0.000 OA
ENDROOT
BRANCH   1   6
ATOM      2  O   UNL     1     113.739 126.195 138.700  0.00  0.00    +0.000 OA
ATOM      3  O   UNL     1     111.604 125.322 137.802  0.00  0.00    +0.000 OA
ATOM      4  O   UNL     1     112.307 124.496 136.851  0.00  0.00    +0.000 OA
ATOM      5  O   UNL     1     115.226 124.554 136.808  0.00  0.00    +0.000 OA
ATOM      6  C   UNL     1     112.311 126.162 138.717  0.00  0.00    +0.000 A 
ATOM      7  C   UNL     1     113.023 126.453 139.016  0.00  0.00    +0.000 A 
ATOM      8  C   UNL     1     112.315 125.613 138.102  0.00  0.00    +0.000 A 
ATOM      9  C   UNL     1     113.032 125.354 137.786  0.00  0.00    +0.000 A 
ATOM     10  C   UNL     1     113.744 125.645 138.084  0.00  0.00    +0.000 A 
ATOM     11  C   UNL     1     113.024 124.781 137.144  0.00  0.00    +0.000 A 
ATOM     12  C   UNL     1     114.497 125.383 137.764  0.00  0.00    +0.000 A 
ATOM     13  C   UNL     1     113.768 124.508 136.811  0.00  0.00    +0.000 A 
ATOM     14  C   UNL     1     114.508 124.811 137.123  0.00  0.00    +0.000 A 
BRANCH   7  16
ATOM     15  O   UNL     1     113.004 128.651 141.478  0.00  0.00    +0.000 OA
ATOM     16  C   UNL     1     113.018 127.003 139.631  0.00  0.00    +0.000 A 
ATOM     17  C   UNL     1     112.946 126.746 140.412  0.00  0.00    +0.000 A 
ATOM     18  C   UNL     1     113.085 127.808 139.466  0.00  0.00    +0.000 A 
ATOM     19  C   UNL     1     112.942 127.296 141.028  0.00  0.00    +0.000 A 
ATOM     20  C   UNL     1     113.081 128.357 140.081  0.00  0.00    +0.000 A 
ATOM     21  C   UNL     1     113.009 128.101 140.862  0.00  0.00    +0.000 A 
ENDBRANCH   7  16
ENDBRANCH   1   6
BRANCH   1  28
ATOM     22  O   UNL     1     111.230 127.238 137.918  0.00  0.00    +0.000 OA
ATOM     23  O   UNL     1     108.847 126.686 138.292  0.00  0.00    +0.000 OA
ATOM     24  O   UNL     1     109.277 127.686 137.054  0.00  0.00    +0.000 OA
ATOM     25  C   UNL     1     110.220 126.553 138.663  0.00  0.00    +0.000 C 
ATOM     26  C   UNL     1     109.641 126.870 138.168  0.00  0.00    +0.000 C 
ATOM     27  C   UNL     1     109.856 127.370 137.548  0.00  0.00    +0.000 C 
ATOM     28  C   UNL     1     111.015 126.737 138.538  0.00  0.00    +0.000 C 
ATOM     29  C   UNL     1     110.651 127.554 137.424  0.00  0.00    +0.000 C 
BRANCH  29  31
ATOM     30  O   UNL     1     111.262 128.761 136.964  0.00  0.00    +0.000 OA
ATOM     31  C   UNL     1     110.866 128.054 136.804  0.00  0.00    +0.000 C 
ENDBRANCH  29  31
BRANCH  25  32
ATOM     32  O   UNL     1     110.005 126.053 139.282  0.00  0.00    +0.000 OA
BRANCH  32  37
ATOM     33  O   UNL     1     109.672 127.184 140.090  0.00  0.00    +0.000 OA
ATOM     34  O   UNL     1     109.376 125.049 140.430  0.00  0.00    +0.000 OA
ATOM     35  O   UNL     1     108.727 125.678 141.811  0.00  0.00    +0.000 OA
ATOM     36  O   UNL     1     108.709 127.311 142.044  0.00  0.00    +0.000 OA
ATOM     37  C   UNL     1     109.681 126.368 139.973  0.00  0.00    +0.000 C 
ATOM     38  C   UNL     1     109.366 125.865 140.547  0.00  0.00    +0.000 C 
ATOM     39  C   UNL     1     109.042 126.180 141.238  0.00  0.00    +0.000 C 
ATOM     40  C   UNL     1     109.033 126.997 141.353  0.00  0.00    +0.000 C 
ATOM     41  C   UNL     1     109.347 127.499 140.780  0.00  0.00    +0.000 C 
ATOM     42  C   UNL     1     109.338 128.316 140.896  0.00  0.00    +0.000 C 
ENDBRANCH  32  37
ENDBRANCH  25  32
ENDBRANCH   1  28
TORSDOF 6
ENDMDL
MODEL 3
REMARK VINA RESULT:      -9.9      1.687      3.815
REMARK  Name = 5318761
REMARK  6 active torsions:
REMARK  status: ('A' for Active; 'I' for Inactive)
REMARK    1  A    between atoms: O_1  and  C_16
REMARK    2  A    between atoms: O_1  and  C_19
REMARK    3  A    between atoms: O_4  and  C_20
REMARK    4  A    between atoms: O_4  and  C_28
REMARK    5  A    between atoms: C_22  and  C_26
REMARK    6  A    between atoms: C_29  and  C_32
REMARK                            x       y       z     vdW  Elec       q    Type
REMARK                         _______ _______ _______ _____ _____    ______ ____
ROOT
ATOM      1  O   UNL     1     111.272 127.840 136.934  0.00  0.00    +0.000 OA
ENDROOT
BRANCH   1   6
ATOM      2  O   UNL     1     112.908 126.529 136.325  0.00  0.00    +0.000 OA
ATOM      3  O   UNL     1     110.734 126.387 137.501  0.00  0.00    +0.000 OA
ATOM      4  O   UNL     1     110.898 124.966 137.692  0.00  0.00    +0.000 OA
ATOM      5  O   UNL     1     113.305 123.665 136.672  0.00  0.00    +0.000 OA
ATOM      6  C   UNL     1     111.728 127.161 136.826  0.00  0.00    +0.000 A 
ATOM      7  C   UNL     1     112.452 127.209 136.433  0.00  0.00    +0.000 A 
ATOM      8  C   UNL     1     111.459 126.435 137.109  0.00  0.00    +0.000 A 
ATOM      9  C   UNL     1     111.914 125.755 137.000  0.00  0.00    +0.000 A 
ATOM     10  C   UNL     1     112.639 125.802 136.609  0.00  0.00    +0.000 A 
ATOM     11  C   UNL     1     111.624 125.004 137.301  0.00  0.00    +0.000 A 
ATOM     12  C   UNL     1     113.122 125.102 136.489  0.00  0.00    +0.000 A 
ATOM     13  C   UNL     1     112.094 124.293 137.190  0.00  0.00    +0.000 A 
ATOM     14  C   UNL     1     112.848 124.343 136.782  0.00  0.00    +0.000 A 
BRANCH   7  16
ATOM     15  O   UNL     1     113.528 130.114 135.298  0.00  0.00    +0.000 OA
ATOM     16  C   UNL     1     112.721 127.934 136.150  0.00  0.00    +0.000 A 
ATOM     17  C   UNL     1     112.432 128.231 135.436  0.00  0.00    +0.000 A 
ATOM     18  C   UNL     1     113.279 128.365 136.579  0.00  0.00    +0.000 A 
ATOM     19  C   UNL     1     112.701 128.958 135.152  0.00  0.00    +0.000 A 
ATOM     20  C   UNL     1     113.548 129.091 136.296  0.00  0.00    +0.000 A 
ATOM     21  C   UNL     1     113.259 129.387 135.582  0.00  0.00    +0.000 A 
ENDBRANCH   7  16
ENDBRANCH   1   6
BRANCH   1  28
ATOM     22  O   UNL     1     111.561 128.000 138.325  0.00  0.00    +0.000 OA
ATOM     23  O   UNL     1     109.264 128.840 138.704  0.00  0.00    +0.000 OA
ATOM     24  O   UNL     1     110.317 128.720 139.967  0.00  0.00    +0.000 OA
ATOM     25  C   UNL     1     110.268 128.340 137.819  0.00  0.00    +0.000 C 
ATOM     26  C   UNL     1     110.029 128.560 138.578  0.00  0.00    +0.000 C 
ATOM     27  C   UNL     1     110.556 128.500 139.209  0.00  0.00    +0.000 C 
ATOM     28  C   UNL     1     111.033 128.060 137.692  0.00  0.00    +0.000 C 
ATOM     29  C   UNL     1     111.321 128.220 139.083  0.00  0.00    +0.000 C 
BRANCH  29  31
ATOM     30  O   UNL     1     112.556 128.586 139.703  0.00  0.00    +0.000 OA
ATOM     31  C   UNL     1     111.849 128.159 139.714  0.00  0.00    +0.000 C 
ENDBRANCH  29  31
BRANCH  25  32
ATOM     32  O   UNL     1     109.741 128.400 137.187  0.00  0.00    +0.000 OA
BRANCH  32  37
ATOM     33  O   UNL     1     110.035 129.793 137.058  0.00  0.00    +0.000 OA
ATOM     34  O   UNL     1     108.490 128.567 136.125  0.00  0.00    +0.000 OA
ATOM     35  O   UNL     1     108.158 130.042 135.465  0.00  0.00    +0.000 OA
ATOM     36  O   UNL     1     109.078 131.352 135.868  0.00  0.00    +0.000 OA
ATOM     37  C   UNL     1     109.575 129.138 136.857  0.00  0.00    +0.000 C 
ATOM     38  C   UNL     1     108.949 129.222 136.326  0.00  0.00    +0.000 C 
ATOM     39  C   UNL     1     108.783 129.959 135.996  0.00  0.00    +0.000 C 
ATOM     40  C   UNL     1     109.244 130.614 136.198  0.00  0.00    +0.000 C 
ATOM     41  C   UNL     1     109.869 130.531 136.728  0.00  0.00    +0.000 C 
ATOM     42  C   UNL     1     110.330 131.185 136.930  0.00  0.00    +0.000 C 
ENDBRANCH  32  37
ENDBRANCH  25  32
ENDBRANCH   1  28
TORSDOF 6
ENDMDL
MODEL 4
REMARK VINA RESULT:      -9.8      2.470      4.571
REMARK  Name = 5318761
REMARK  6 active torsions:
REMARK  status: ('A' for Active; 'I' for Inactive)
REMARK    1  A    between atoms: O_1  and  C_16
REMARK    2  A    between atoms: O_1  and  C_19
REMARK    3  A    between atoms: O_4  and  C_20
REMARK    4  A    between atoms: O_4  and  C_28
REMARK    5  A    between atoms: C_22  and  C_26
REMARK    6  A    between atoms: C_29  and  C_32
REMARK                            x       y       z     vdW  Elec       q    Type
REMARK                         _______ _______ _______ _____ _____    ______ ____
ROOT
ATOM      1  O   UNL     1     111.131 129.120 136.958  0.00  0.00    +0.000 OA
ENDROOT
BRANCH   1   6
ATOM      2  O   UNL     1     110.514 127.448 135.698  0.00  0.00    +0.000 OA
ATOM      3  O   UNL     1     111.971 127.881 137.651  0.00  0.00    +0.000 OA
ATOM      4  O   UNL     1     112.346 126.489 137.717  0.00  0.00    +0.000 OA
ATOM      5  O   UNL     1     111.225 124.625 135.768  0.00  0.00    +0.000 OA
ATOM      6  C   UNL     1     111.065 128.356 136.653  0.00  0.00    +0.000 A 
ATOM      7  C   UNL     1     110.580 128.212 136.002  0.00  0.00    +0.000 A 
ATOM      8  C   UNL     1     111.485 127.737 137.000  0.00  0.00    +0.000 A 
ATOM      9  C   UNL     1     111.420 126.973 136.696  0.00  0.00    +0.000 A 
ATOM     10  C   UNL     1     110.934 126.828 136.044  0.00  0.00    +0.000 A 
ATOM     11  C   UNL     1     111.862 126.335 137.065  0.00  0.00    +0.000 A 
ATOM     12  C   UNL     1     110.857 126.037 135.718  0.00  0.00    +0.000 A 
ATOM     13  C   UNL     1     111.798 125.538 136.753  0.00  0.00    +0.000 A 
ATOM     14  C   UNL     1     111.292 125.388 136.075  0.00  0.00    +0.000 A 
BRANCH   7  16
ATOM     15  O   UNL     1     108.898 130.690 134.615  0.00  0.00    +0.000 OA
ATOM     16  C   UNL     1     110.160 128.831 135.655  0.00  0.00    +0.000 A 
ATOM     17  C   UNL     1     109.437 129.068 135.974  0.00  0.00    +0.000 A 
ATOM     18  C   UNL     1     110.462 129.214 134.990  0.00  0.00    +0.000 A 
ATOM     19  C   UNL     1     109.016 129.688 135.627  0.00  0.00    +0.000 A 
ATOM     20  C   UNL     1     110.042 129.833 134.643  0.00  0.00    +0.000 A 
ATOM     21  C   UNL     1     109.319 130.070 134.962  0.00  0.00    +0.000 A 
ENDBRANCH   7  16
ENDBRANCH   1   6
BRANCH   1  28
ATOM     22  O   UNL     1     112.448 129.353 136.455  0.00  0.00    +0.000 OA
ATOM     23  O   UNL     1     112.952 130.759 138.429  0.00  0.00    +0.000 OA
ATOM     24  O   UNL     1     114.100 130.524 137.269  0.00  0.00    +0.000 OA
ATOM     25  C   UNL     1     112.041 129.940 137.694  0.00  0.00    +0.000 C 
ATOM     26  C   UNL     1     112.784 130.290 137.771  0.00  0.00    +0.000 C 
ATOM     27  C   UNL     1     113.358 130.173 137.192  0.00  0.00    +0.000 C 
ATOM     28  C   UNL     1     111.873 129.471 137.036  0.00  0.00    +0.000 C 
ATOM     29  C   UNL     1     113.190 129.704 136.534  0.00  0.00    +0.000 C 
BRANCH  29  31
ATOM     30  O   UNL     1     113.625 129.838 135.179  0.00  0.00    +0.000 OA
ATOM     31  C   UNL     1     113.764 129.587 135.953  0.00  0.00    +0.000 C 
ENDBRANCH  29  31
BRANCH  25  32
ATOM     32  O   UNL     1     111.467 130.057 138.274  0.00  0.00    +0.000 OA
BRANCH  32  37
ATOM     33  O   UNL     1     111.160 131.336 137.714  0.00  0.00    +0.000 OA
ATOM     34  O   UNL     1     110.393 130.335 139.495  0.00  0.00    +0.000 OA
ATOM     35  O   UNL     1     109.550 131.753 139.546  0.00  0.00    +0.000 OA
ATOM     36  O   UNL     1     109.781 132.892 138.375  0.00  0.00    +0.000 OA
ATOM     37  C   UNL     1     111.045 130.766 138.299  0.00  0.00    +0.000 C 
ATOM     38  C   UNL     1     110.508 130.905 138.910  0.00  0.00    +0.000 C 
ATOM     39  C   UNL     1     110.086 131.614 138.935  0.00  0.00    +0.000 C 
ATOM     40  C   UNL     1     110.202 132.183 138.349  0.00  0.00    +0.000 C 
ATOM     41  C   UNL     1     110.739 132.044 137.739  0.00  0.00    +0.000 C 
ATOM     42  C   UNL     1     110.854 132.614 137.153  0.00  0.00    +0.000 C 
ENDBRANCH  32  37
ENDBRANCH  25  32
ENDBRANCH   1  28
TORSDOF 6
ENDMDL
MODEL 5
REMARK VINA RESULT:      -9.8      1.041      2.759
REMARK  Name = 5318761
REMARK  6 active torsions:
REMARK  status: ('A' for Active; 'I' for Inactive)
REMARK    1  A    between atoms: O_1  and  C_16
REMARK    2  A    between atoms: O_1  and  C_19
REMARK    3  A    between atoms: O_4  and  C_20
REMARK    4  A    between atoms: O_4  and  C_28
REMARK    5  A    between atoms: C_22  and  C_26
REMARK    6  A    between atoms: C_29  and  C_32
REMARK                            x       y       z     vdW  Elec       q    Type
REMARK                         _______ _______ _______ _____ _____    ______ ____
ROOT
ATOM      1  O   UNL     1     112.067 127.265 137.699  0.00  0.00    +0.000 OA
ENDROOT
BRANCH   1   6
ATOM      2  O   UNL     1     113.305 128.926 138.385  0.00  0.00    +0.000 OA
ATOM      3  O   UNL     1     112.327 126.832 139.269  0.00  0.00    +0.000 OA
ATOM      4  O   UNL     1     112.907 127.075 140.568  0.00  0.00    +0.000 OA
ATOM      5  O   UNL     1     114.506 129.483 140.978  0.00  0.00    +0.000 OA
ATOM      6  C   UNL     1     112.523 127.746 138.189  0.00  0.00    +0.000 A 
ATOM      7  C   UNL     1     112.849 128.445 137.894  0.00  0.00    +0.000 A 
ATOM      8  C   UNL     1     112.653 127.530 138.974  0.00  0.00    +0.000 A 
ATOM      9  C   UNL     1     113.108 128.012 139.465  0.00  0.00    +0.000 A 
ATOM     10  C   UNL     1     113.435 128.710 139.171  0.00  0.00    +0.000 A 
ATOM     11  C   UNL     1     113.237 127.775 140.282  0.00  0.00    +0.000 A 
ATOM     12  C   UNL     1     113.911 129.220 139.671  0.00  0.00    +0.000 A 
ATOM     13  C   UNL     1     113.711 128.273 140.797  0.00  0.00    +0.000 A 
ATOM     14  C   UNL     1     114.050 129.000 140.490  0.00  0.00    +0.000 A 
BRANCH   7  16
ATOM     15  O   UNL     1     112.329 129.312 134.752  0.00  0.00    +0.000 OA
ATOM     16  C   UNL     1     112.719 128.661 137.109  0.00  0.00    +0.000 A 
ATOM     17  C   UNL     1     112.029 129.062 136.901  0.00  0.00    +0.000 A 
ATOM     18  C   UNL     1     113.279 128.477 136.532  0.00  0.00    +0.000 A 
ATOM     19  C   UNL     1     111.899 129.279 136.115  0.00  0.00    +0.000 A 
ATOM     20  C   UNL     1     113.150 128.694 135.747  0.00  0.00    +0.000 A 
ATOM     21  C   UNL     1     112.459 129.095 135.538  0.00  0.00    +0.000 A 
ENDBRANCH   7  16
ENDBRANCH   1   6
BRANCH   1  28
ATOM     22  O   UNL     1     113.059 126.250 137.526  0.00  0.00    +0.000 OA
ATOM     23  O   UNL     1     111.283 124.528 137.444  0.00  0.00    +0.000 OA
ATOM     24  O   UNL     1     112.866 124.089 137.299  0.00  0.00    +0.000 OA
ATOM     25  C   UNL     1     111.675 125.896 137.571  0.00  0.00    +0.000 C 
ATOM     26  C   UNL     1     111.875 125.102 137.471  0.00  0.00    +0.000 C 
ATOM     27  C   UNL     1     112.666 124.882 137.399  0.00  0.00    +0.000 C 
ATOM     28  C   UNL     1     112.266 126.470 137.599  0.00  0.00    +0.000 C 
ATOM     29  C   UNL     1     113.258 125.456 137.426  0.00  0.00    +0.000 C 
BRANCH  29  31
ATOM     30  O   UNL     1     114.500 125.521 136.723  0.00  0.00    +0.000 OA
ATOM     31  C   UNL     1     114.050 125.237 137.354  0.00  0.00    +0.000 C 
ENDBRANCH  29  31
BRANCH  25  32
ATOM     32  O   UNL     1     110.883 126.116 137.644  0.00  0.00    +0.000 OA
BRANCH  32  37
ATOM     33  O   UNL     1     110.724 126.022 136.227  0.00  0.00    +0.000 OA
ATOM     34  O   UNL     1     109.343 126.691 137.778  0.00  0.00    +0.000 OA
ATOM     35  O   UNL     1     108.413 126.883 136.428  0.00  0.00    +0.000 OA
ATOM     36  O   UNL     1     109.025 126.501 134.944  0.00  0.00    +0.000 OA
ATOM     37  C   UNL     1     110.419 126.213 136.969  0.00  0.00    +0.000 C 
ATOM     38  C   UNL     1     109.648 126.500 137.036  0.00  0.00    +0.000 C 
ATOM     39  C   UNL     1     109.183 126.596 136.361  0.00  0.00    +0.000 C 
ATOM     40  C   UNL     1     109.489 126.405 135.619  0.00  0.00    +0.000 C 
ATOM     41  C   UNL     1     110.259 126.118 135.552  0.00  0.00    +0.000 C 
ATOM     42  C   UNL     1     110.566 125.926 134.810  0.00  0.00    +0.000 C 
ENDBRANCH  32  37
ENDBRANCH  25  32
ENDBRANCH   1  28
TORSDOF 6
ENDMDL
MODEL 6
REMARK VINA RESULT:      -9.7      1.563      4.422
REMARK  Name = 5318761
REMARK  6 active torsions:
REMARK  status: ('A' for Active; 'I' for Inactive)
REMARK    1  A    between atoms: O_1  and  C_16
REMARK    2  A    between atoms: O_1  and  C_19
REMARK    3  A    between atoms: O_4  and  C_20
REMARK    4  A    between atoms: O_4  and  C_28
REMARK    5  A    between atoms: C_22  and  C_26
REMARK    6  A    between atoms: C_29  and  C_32
REMARK                            x       y       z     vdW  Elec       q    Type
REMARK                         _______ _______ _______ _____ _____    ______ ____
ROOT
ATOM      1  O   UNL     1     112.221 127.449 137.920  0.00  0.00    +0.000 OA
ENDROOT
BRANCH   1   6
ATOM      2  O   UNL     1     112.478 125.294 138.147  0.00  0.00    +0.000 OA
ATOM      3  O   UNL     1     111.599 126.909 136.490  0.00  0.00    +0.000 OA
ATOM      4  O   UNL     1     111.257 125.839 135.585  0.00  0.00    +0.000 OA
ATOM      5  O   UNL     1     111.815 123.082 136.371  0.00  0.00    +0.000 OA
ATOM      6  C   UNL     1     112.203 126.640 137.757  0.00  0.00    +0.000 A 
ATOM      7  C   UNL     1     112.496 126.102 138.310  0.00  0.00    +0.000 A 
ATOM      8  C   UNL     1     111.892 126.371 137.043  0.00  0.00    +0.000 A 
ATOM      9  C   UNL     1     111.874 125.562 136.880  0.00  0.00    +0.000 A 
ATOM     10  C   UNL     1     112.167 125.023 137.431  0.00  0.00    +0.000 A 
ATOM     11  C   UNL     1     111.548 125.293 136.132  0.00  0.00    +0.000 A 
ATOM     12  C   UNL     1     112.154 124.179 137.274  0.00  0.00    +0.000 A 
ATOM     13  C   UNL     1     111.526 124.452 135.957  0.00  0.00    +0.000 A 
ATOM     14  C   UNL     1     111.832 123.892 136.532  0.00  0.00    +0.000 A 
BRANCH   7  16
ATOM     15  O   UNL     1     113.741 127.182 141.169  0.00  0.00    +0.000 OA
ATOM     16  C   UNL     1     112.807 126.372 139.024  0.00  0.00    +0.000 A 
ATOM     17  C   UNL     1     113.596 126.610 139.067  0.00  0.00    +0.000 A 
ATOM     18  C   UNL     1     112.330 126.404 139.696  0.00  0.00    +0.000 A 
ATOM     19  C   UNL     1     113.908 126.880 139.782  0.00  0.00    +0.000 A 
ATOM     20  C   UNL     1     112.641 126.674 140.411  0.00  0.00    +0.000 A 
ATOM     21  C   UNL     1     113.430 126.912 140.454  0.00  0.00    +0.000 A 
ENDBRANCH   7  16
ENDBRANCH   1   6
BRANCH   1  28
ATOM     22  O   UNL     1     110.822 127.575 138.183  0.00  0.00    +0.000 OA
ATOM     23  O   UNL     1     110.845 129.851 137.211  0.00  0.00    +0.000 OA
ATOM     24  O   UNL     1     109.440 129.219 137.798  0.00  0.00    +0.000 OA
ATOM     25  C   UNL     1     111.533 128.651 137.565  0.00  0.00    +0.000 C 
ATOM     26  C   UNL     1     110.837 129.093 137.535  0.00  0.00    +0.000 C 
ATOM     27  C   UNL     1     110.135 128.777 137.828  0.00  0.00    +0.000 C 
ATOM     28  C   UNL     1     111.526 127.892 137.889  0.00  0.00    +0.000 C 
ATOM     29  C   UNL     1     110.127 128.018 138.153  0.00  0.00    +0.000 C 
BRANCH  29  31
ATOM     30  O   UNL     1     109.364 127.504 139.246  0.00  0.00    +0.000 OA
ATOM     31  C   UNL     1     109.424 127.702 138.446  0.00  0.00    +0.000 C 
ENDBRANCH  29  31
BRANCH  25  32
ATOM     32  O   UNL     1     112.236 128.966 137.272  0.00  0.00    +0.000 OA
BRANCH  32  37
ATOM     33  O   UNL     1     112.430 129.675 138.497  0.00  0.00    +0.000 OA
ATOM     34  O   UNL     1     113.615 129.639 136.665  0.00  0.00    +0.000 OA
ATOM     35  O   UNL     1     114.498 130.684 137.587  0.00  0.00    +0.000 OA
ATOM     36  O   UNL     1     114.003 131.056 139.117  0.00  0.00    +0.000 OA
ATOM     37  C   UNL     1     112.678 129.489 137.733  0.00  0.00    +0.000 C 
ATOM     38  C   UNL     1     113.368 129.825 137.429  0.00  0.00    +0.000 C 
ATOM     39  C   UNL     1     113.809 130.348 137.891  0.00  0.00    +0.000 C 
ATOM     40  C   UNL     1     113.561 130.533 138.655  0.00  0.00    +0.000 C 
ATOM     41  C   UNL     1     112.872 130.197 138.959  0.00  0.00    +0.000 C 
ATOM     42  C   UNL     1     112.623 130.383 139.723  0.00  0.00    +0.000 C 
ENDBRANCH  32  37
ENDBRANCH  25  32
ENDBRANCH   1  28
TORSDOF 6
ENDMDL
MODEL 7
REMARK VINA RESULT:      -9.7      1.642      3.518
REMARK  Name = 5318761
REMARK  6 active torsions:
REMARK  status: ('A' for Active; 'I' for Inactive)
REMARK    1  A    between atoms: O_1  and  C_16
REMARK    2  A    between atoms: O_1  and  C_19
REMARK    3  A    between atoms: O_4  and  C_20
REMARK    4  A    between atoms: O_4  and  C_28
REMARK    5  A    between atoms: C_22  and  C_26
REMARK    6  A    between atoms: C_29  and  C_32
REMARK                            x       y       z     vdW  Elec       q    Type
REMARK                         _______ _______ _______ _____ _____    ______ ____
ROOT
ATOM      1  O   UNL     1     112.225 128.002 138.075  0.00  0.00    +0.000 OA
ENDROOT
BRANCH   1   6
ATOM      2  O   UNL     1     113.496 129.776 138.111  0.00  0.00    +0.000 OA
ATOM      3  O   UNL     1     112.576 128.100 139.684  0.00  0.00    +0.000 OA
ATOM      4  O   UNL     1     113.230 128.744 140.798  0.00  0.00    +0.000 OA
ATOM      5  O   UNL     1     114.844 131.128 140.310  0.00  0.00    +0.000 OA
ATOM      6  C   UNL     1     112.707 128.609 138.356  0.00  0.00    +0.000 A 
ATOM      7  C   UNL     1     113.014 129.168 137.831  0.00  0.00    +0.000 A 
ATOM      8  C   UNL     1     112.883 128.659 139.160  0.00  0.00    +0.000 A 
ATOM      9  C   UNL     1     113.365 129.266 139.440  0.00  0.00    +0.000 A 
ATOM     10  C   UNL     1     113.672 129.825 138.917  0.00  0.00    +0.000 A 
ATOM     11  C   UNL     1     113.541 129.308 140.281  0.00  0.00    +0.000 A 
ATOM     12  C   UNL     1     114.175 130.463 139.195  0.00  0.00    +0.000 A 
ATOM     13  C   UNL     1     114.042 129.938 140.578  0.00  0.00    +0.000 A 
ATOM     14  C   UNL     1     114.361 130.520 140.032  0.00  0.00    +0.000 A 
BRANCH   7  16
ATOM     15  O   UNL     1     112.312 128.970 134.612  0.00  0.00    +0.000 OA
ATOM     16  C   UNL     1     112.838 129.119 137.027  0.00  0.00    +0.000 A 
ATOM     17  C   UNL     1     113.268 128.609 136.541  0.00  0.00    +0.000 A 
ATOM     18  C   UNL     1     112.233 129.579 136.707  0.00  0.00    +0.000 A 
ATOM     19  C   UNL     1     113.093 128.559 135.736  0.00  0.00    +0.000 A 
ATOM     20  C   UNL     1     112.058 129.530 135.903  0.00  0.00    +0.000 A 
ATOM     21  C   UNL     1     112.488 129.020 135.417  0.00  0.00    +0.000 A 
ENDBRANCH   7  16
ENDBRANCH   1   6
BRANCH   1  28
ATOM     22  O   UNL     1     111.009 128.550 138.587  0.00  0.00    +0.000 OA
ATOM     23  O   UNL     1     110.129 126.264 138.945  0.00  0.00    +0.000 OA
ATOM     24  O   UNL     1     109.207 127.574 139.337  0.00  0.00    +0.000 OA
ATOM     25  C   UNL     1     111.177 127.132 138.510  0.00  0.00    +0.000 C 
ATOM     26  C   UNL     1     110.422 127.026 138.825  0.00  0.00    +0.000 C 
ATOM     27  C   UNL     1     109.961 127.680 139.021  0.00  0.00    +0.000 C 
ATOM     28  C   UNL     1     111.471 127.894 138.391  0.00  0.00    +0.000 C 
ATOM     29  C   UNL     1     110.254 128.442 138.902  0.00  0.00    +0.000 C 
BRANCH  29  31
ATOM     30  O   UNL     1     109.535 129.612 138.506  0.00  0.00    +0.000 OA
ATOM     31  C   UNL     1     109.793 129.098 139.098  0.00  0.00    +0.000 C 
ENDBRANCH  29  31
BRANCH  25  32
ATOM     32  O   UNL     1     111.639 126.478 138.314  0.00  0.00    +0.000 OA
BRANCH  32  37
ATOM     33  O   UNL     1     110.908 126.321 137.096  0.00  0.00    +0.000 OA
ATOM     34  O   UNL     1     112.442 125.069 138.012  0.00  0.00    +0.000 OA
ATOM     35  O   UNL     1     112.113 124.208 136.644  0.00  0.00    +0.000 OA
ATOM     36  O   UNL     1     110.980 124.756 135.577  0.00  0.00    +0.000 OA
ATOM     37  C   UNL     1     111.474 126.047 137.629  0.00  0.00    +0.000 C 
ATOM     38  C   UNL     1     111.876 125.342 137.478  0.00  0.00    +0.000 C 
ATOM     39  C   UNL     1     111.711 124.912 136.794  0.00  0.00    +0.000 C 
ATOM     40  C   UNL     1     111.145 125.186 136.261  0.00  0.00    +0.000 C 
ATOM     41  C   UNL     1     110.743 125.890 136.411  0.00  0.00    +0.000 C 
ATOM     42  C   UNL     1     110.176 126.165 135.878  0.00  0.00    +0.000 C 
ENDBRANCH  32  37
ENDBRANCH  25  32
ENDBRANCH   1  28
TORSDOF 6
ENDMDL
MODEL 8
REMARK VINA RESULT:      -9.6      1.465      4.712
REMARK  Name = 5318761
REMARK  6 active torsions:
REMARK  status: ('A' for Active; 'I' for Inactive)
REMARK    1  A    between atoms: O_1  and  C_16
REMARK    2  A    between atoms: O_1  and  C_19
REMARK    3  A    between atoms: O_4  and  C_20
REMARK    4  A    between atoms: O_4  and  C_28
REMARK    5  A    between atoms: C_22  and  C_26
REMARK    6  A    between atoms: C_29  and  C_32
REMARK                            x       y       z     vdW  Elec       q    Type
REMARK                         _______ _______ _______ _____ _____    ______ ____
ROOT
ATOM      1  O   UNL     1     111.769 127.875 136.716  0.00  0.00    +0.000 OA
ENDROOT
BRANCH   1   6
ATOM      2  O   UNL     1     111.319 129.891 136.012  0.00  0.00    +0.000 OA
ATOM      3  O   UNL     1     110.218 128.051 137.249  0.00  0.00    +0.000 OA
ATOM      4  O   UNL     1     109.009 128.827 137.385  0.00  0.00    +0.000 OA
ATOM      5  O   UNL     1     108.913 131.515 136.248  0.00  0.00    +0.000 OA
ATOM      6  C   UNL     1     111.360 128.576 136.570  0.00  0.00    +0.000 A 
ATOM      7  C   UNL     1     111.728 129.189 136.158  0.00  0.00    +0.000 A 
ATOM      8  C   UNL     1     110.585 128.664 136.836  0.00  0.00    +0.000 A 
ATOM      9  C   UNL     1     110.176 129.366 136.691  0.00  0.00    +0.000 A 
ATOM     10  C   UNL     1     110.542 129.979 136.279  0.00  0.00    +0.000 A 
ATOM     11  C   UNL     1     109.368 129.446 136.973  0.00  0.00    +0.000 A 
ATOM     12  C   UNL     1     110.128 130.715 136.120  0.00  0.00    +0.000 A 
ATOM     13  C   UNL     1     108.937 130.174 136.825  0.00  0.00    +0.000 A 
ATOM     14  C   UNL     1     109.320 130.813 136.395  0.00  0.00    +0.000 A 
BRANCH   7  16
ATOM     15  O   UNL     1     114.831 128.837 135.092  0.00  0.00    +0.000 OA
ATOM     16  C   UNL     1     112.503 129.101 135.891  0.00  0.00    +0.000 A 
ATOM     17  C   UNL     1     113.133 129.228 136.408  0.00  0.00    +0.000 A 
ATOM     18  C   UNL     1     112.649 128.887 135.108  0.00  0.00    +0.000 A 
ATOM     19  C   UNL     1     113.910 129.140 136.141  0.00  0.00    +0.000 A 
ATOM     20  C   UNL     1     113.424 128.799 134.841  0.00  0.00    +0.000 A 
ATOM     21  C   UNL     1     114.054 128.925 135.358  0.00  0.00    +0.000 A 
ENDBRANCH   7  16
ENDBRANCH   1   6
BRANCH   1  28
ATOM     22  O   UNL     1     111.092 127.104 135.721  0.00  0.00    +0.000 OA
ATOM     23  O   UNL     1     111.261 125.098 137.160  0.00  0.00    +0.000 OA
ATOM     24  O   UNL     1     110.528 124.997 135.686  0.00  0.00    +0.000 OA
ATOM     25  C   UNL     1     111.515 126.486 136.938  0.00  0.00    +0.000 C 
ATOM     26  C   UNL     1     111.205 125.767 136.680  0.00  0.00    +0.000 C 
ATOM     27  C   UNL     1     110.838 125.716 135.943  0.00  0.00    +0.000 C 
ATOM     28  C   UNL     1     111.459 127.155 136.459  0.00  0.00    +0.000 C 
ATOM     29  C   UNL     1     110.782 126.384 135.464  0.00  0.00    +0.000 C 
BRANCH  29  31
ATOM     30  O   UNL     1     109.671 126.672 134.612  0.00  0.00    +0.000 OA
ATOM     31  C   UNL     1     110.416 126.334 134.726  0.00  0.00    +0.000 C 
ENDBRANCH  29  31
BRANCH  25  32
ATOM     32  O   UNL     1     111.881 126.537 137.675  0.00  0.00    +0.000 OA
BRANCH  32  37
ATOM     33  O   UNL     1     113.066 125.955 137.127  0.00  0.00    +0.000 OA
ATOM     34  O   UNL     1     112.617 126.645 139.148  0.00  0.00    +0.000 OA
ATOM     35  O   UNL     1     114.168 126.116 139.337  0.00  0.00    +0.000 OA
ATOM     36  O   UNL     1     114.985 125.480 138.051  0.00  0.00    +0.000 OA
ATOM     37  C   UNL     1     112.657 126.273 137.769  0.00  0.00    +0.000 C 
ATOM     38  C   UNL     1     113.025 126.327 138.506  0.00  0.00    +0.000 C 
ATOM     39  C   UNL     1     113.801 126.062 138.600  0.00  0.00    +0.000 C 
ATOM     40  C   UNL     1     114.209 125.744 137.957  0.00  0.00    +0.000 C 
ATOM     41  C   UNL     1     113.842 125.690 137.221  0.00  0.00    +0.000 C 
ATOM     42  C   UNL     1     114.249 125.372 136.578  0.00  0.00    +0.000 C 
ENDBRANCH  32  37
ENDBRANCH  25  32
ENDBRANCH   1  28
TORSDOF 6
ENDMDL
MODEL 9
REMARK VINA RESULT:      -9.6      1.744      3.590
REMARK  Name = 5318761
REMARK  6 active torsions:
REMARK  status: ('A' for Active; 'I' for Inactive)
REMARK    1  A    between atoms: O_1  and  C_16
REMARK    2  A    between atoms: O_1  and  C_19
REMARK    3  A    between atoms: O_4  and  C_20
REMARK    4  A    between atoms: O_4  and  C_28
REMARK    5  A    between atoms: C_22  and  C_26
REMARK    6  A    between atoms: C_29  and  C_32
REMARK                            x       y       z     vdW  Elec       q    Type
REMARK                         _______ _______ _______ _____ _____    ______ ____
ROOT
ATOM      1  O   UNL     1     110.869 127.725 136.847  0.00  0.00    +0.000 OA
ENDROOT
BRANCH   1   6
ATOM      2  O   UNL     1     111.433 125.978 138.028  0.00  0.00    +0.000 OA
ATOM      3  O   UNL     1     110.981 126.575 135.668  0.00  0.00    +0.000 OA
ATOM      4  O   UNL     1     111.240 125.220 135.245  0.00  0.00    +0.000 OA
ATOM      5  O   UNL     1     111.970 123.224 137.247  0.00  0.00    +0.000 OA
ATOM      6  C   UNL     1     111.076 126.951 137.044  0.00  0.00    +0.000 A 
ATOM      7  C   UNL     1     111.226 126.752 137.830  0.00  0.00    +0.000 A 
ATOM      8  C   UNL     1     111.131 126.376 136.455  0.00  0.00    +0.000 A 
ATOM      9  C   UNL     1     111.338 125.602 136.652  0.00  0.00    +0.000 A 
ATOM     10  C   UNL     1     111.488 125.402 137.438  0.00  0.00    +0.000 A 
ATOM     11  C   UNL     1     111.393 125.012 136.029  0.00  0.00    +0.000 A 
ATOM     12  C   UNL     1     111.704 124.600 137.657  0.00  0.00    +0.000 A 
ATOM     13  C   UNL     1     111.607 124.204 136.229  0.00  0.00    +0.000 A 
ATOM     14  C   UNL     1     111.764 123.997 137.047  0.00  0.00    +0.000 A 
BRANCH   7  16
ATOM     15  O   UNL     1     111.004 129.051 140.188  0.00  0.00    +0.000 OA
ATOM     16  C   UNL     1     111.171 127.326 138.419  0.00  0.00    +0.000 A 
ATOM     17  C   UNL     1     111.852 127.699 138.697  0.00  0.00    +0.000 A 
ATOM     18  C   UNL     1     110.434 127.528 138.731  0.00  0.00    +0.000 A 
ATOM     19  C   UNL     1     111.797 128.274 139.287  0.00  0.00    +0.000 A 
ATOM     20  C   UNL     1     110.378 128.102 139.320  0.00  0.00    +0.000 A 
ATOM     21  C   UNL     1     111.060 128.475 139.598  0.00  0.00    +0.000 A 
ENDBRANCH   7  16
ENDBRANCH   1   6
BRANCH   1  28
ATOM     22  O   UNL     1     112.136 128.084 136.290  0.00  0.00    +0.000 OA
ATOM     23  O   UNL     1     110.996 129.502 134.612  0.00  0.00    +0.000 OA
ATOM     24  O   UNL     1     112.641 129.388 134.616  0.00  0.00    +0.000 OA
ATOM     25  C   UNL     1     110.932 128.613 135.729  0.00  0.00    +0.000 C 
ATOM     26  C   UNL     1     111.376 129.029 135.171  0.00  0.00    +0.000 C 
ATOM     27  C   UNL     1     112.198 128.973 135.173  0.00  0.00    +0.000 C 
ATOM     28  C   UNL     1     111.312 128.141 136.289  0.00  0.00    +0.000 C 
ATOM     29  C   UNL     1     112.578 128.500 135.732  0.00  0.00    +0.000 C 
BRANCH  29  31
ATOM     30  O   UNL     1     113.832 128.729 136.378  0.00  0.00    +0.000 OA
ATOM     31  C   UNL     1     113.401 128.443 135.734  0.00  0.00    +0.000 C 
ENDBRANCH  29  31
BRANCH  25  32
ATOM     32  O   UNL     1     110.110 128.670 135.728  0.00  0.00    +0.000 OA
BRANCH  32  37
ATOM     33  O   UNL     1     110.184 129.907 136.440  0.00  0.00    +0.000 OA
ATOM     34  O   UNL     1     108.490 128.895 135.506  0.00  0.00    +0.000 OA
ATOM     35  O   UNL     1     107.755 130.245 136.106  0.00  0.00    +0.000 OA
ATOM     36  O   UNL     1     108.640 131.369 136.929  0.00  0.00    +0.000 OA
ATOM     37  C   UNL     1     109.742 129.345 136.028  0.00  0.00    +0.000 C 
ATOM     38  C   UNL     1     108.932 129.458 135.917  0.00  0.00    +0.000 C 
ATOM     39  C   UNL     1     108.564 130.132 136.217  0.00  0.00    +0.000 C 
ATOM     40  C   UNL     1     109.007 130.694 136.629  0.00  0.00    +0.000 C 
ATOM     41  C   UNL     1     109.816 130.582 136.740  0.00  0.00    +0.000 C 
ATOM     42  C   UNL     1     110.259 131.143 137.151  0.00  0.00    +0.000 C 
ENDBRANCH  32  37
ENDBRANCH  25  32
ENDBRANCH   1  28
TORSDOF 6
ENDMDL
MODEL 10
REMARK VINA RESULT:      -9.6      1.854      4.106
REMARK  Name = 5318761
REMARK  6 active torsions:
REMARK  status: ('A' for Active; 'I' for Inactive)
REMARK    1  A    between atoms: O_1  and  C_16
REMARK    2  A    between atoms: O_1  and  C_19
REMARK    3  A    between atoms: O_4  and  C_20
REMARK    4  A    between atoms: O_4  and  C_28
REMARK    5  A    between atoms: C_22  and  C_26
REMARK    6  A    between atoms: C_29  and  C_32
REMARK                            x       y       z     vdW  Elec       q    Type
REMARK                         _______ _______ _______ _____ _____    ______ ____
ROOT
ATOM      1  O   UNL     1     111.698 128.110 137.160  0.00  0.00    +0.000 OA
ENDROOT
BRANCH   1   6
ATOM      2  O   UNL     1     113.232 126.742 136.427  0.00  0.00    +0.000 OA
ATOM      3  O   UNL     1     111.131 126.670 137.734  0.00  0.00    +0.000 OA
ATOM      4  O   UNL     1     111.243 125.240 137.888  0.00  0.00    +0.000 OA
ATOM      5  O   UNL     1     113.522 123.857 136.697  0.00  0.00    +0.000 OA
ATOM      6  C   UNL     1     112.115 127.414 137.012  0.00  0.00    +0.000 A 
ATOM      7  C   UNL     1     112.815 127.438 136.576  0.00  0.00    +0.000 A 
ATOM      8  C   UNL     1     111.832 126.695 137.298  0.00  0.00    +0.000 A 
ATOM      9  C   UNL     1     112.249 125.999 137.149  0.00  0.00    +0.000 A 
ATOM     10  C   UNL     1     112.949 126.022 136.714  0.00  0.00    +0.000 A 
ATOM     11  C   UNL     1     111.944 125.254 137.453  0.00  0.00    +0.000 A 
ATOM     12  C   UNL     1     113.393 125.304 136.552  0.00  0.00    +0.000 A 
ATOM     13  C   UNL     1     112.374 124.526 137.301  0.00  0.00    +0.000 A 
ATOM     14  C   UNL     1     113.103 124.552 136.848  0.00  0.00    +0.000 A 
BRANCH   7  16
ATOM     15  O   UNL     1     113.948 130.318 135.429  0.00  0.00    +0.000 OA
ATOM     16  C   UNL     1     113.098 128.158 136.289  0.00  0.00    +0.000 A 
ATOM     17  C   UNL     1     113.536 128.654 136.782  0.00  0.00    +0.000 A 
ATOM     18  C   UNL     1     112.944 128.382 135.510  0.00  0.00    +0.000 A 
ATOM     19  C   UNL     1     113.820 129.375 136.495  0.00  0.00    +0.000 A 
ATOM     20  C   UNL     1     113.227 129.101 135.224  0.00  0.00    +0.000 A 
ATOM     21  C   UNL     1     113.665 129.598 135.716  0.00  0.00    +0.000 A 
ENDBRANCH   7  16
ENDBRANCH   1   6
BRANCH   1  28
ATOM     22  O   UNL     1     110.635 127.830 136.246  0.00  0.00    +0.000 OA
ATOM     23  O   UNL     1     109.046 129.010 137.732  0.00  0.00    +0.000 OA
ATOM     24  O   UNL     1     108.514 128.337 136.323  0.00  0.00    +0.000 OA
ATOM     25  C   UNL     1     110.372 128.560 137.447  0.00  0.00    +0.000 C 
ATOM     26  C   UNL     1     109.576 128.617 137.237  0.00  0.00    +0.000 C 
ATOM     27  C   UNL     1     109.310 128.281 136.533  0.00  0.00    +0.000 C 
ATOM     28  C   UNL     1     110.902 128.167 136.952  0.00  0.00    +0.000 C 
ATOM     29  C   UNL     1     109.839 127.887 136.038  0.00  0.00    +0.000 C 
BRANCH  29  31
ATOM     30  O   UNL     1     109.889 127.801 134.612  0.00  0.00    +0.000 OA
ATOM     31  C   UNL     1     109.574 127.550 135.333  0.00  0.00    +0.000 C 
ENDBRANCH  29  31
BRANCH  25  32
ATOM     32  O   UNL     1     110.638 128.897 138.151  0.00  0.00    +0.000 OA
BRANCH  32  37
ATOM     33  O   UNL     1     110.674 130.183 137.530  0.00  0.00    +0.000 OA
ATOM     34  O   UNL     1     110.977 129.591 139.609  0.00  0.00    +0.000 OA
ATOM     35  O   UNL     1     111.183 131.225 139.716  0.00  0.00    +0.000 OA
ATOM     36  O   UNL     1     111.049 132.164 138.366  0.00  0.00    +0.000 OA
ATOM     37  C   UNL     1     110.741 129.713 138.205  0.00  0.00    +0.000 C 
ATOM     38  C   UNL     1     110.911 130.061 138.934  0.00  0.00    +0.000 C 
ATOM     39  C   UNL     1     111.013 130.878 138.988  0.00  0.00    +0.000 C 
ATOM     40  C   UNL     1     110.947 131.347 138.312  0.00  0.00    +0.000 C 
ATOM     41  C   UNL     1     110.777 131.000 137.584  0.00  0.00    +0.000 C 
ATOM     42  C   UNL     1     110.710 131.469 136.908  0.00  0.00    +0.000 C 
ENDBRANCH  32  37
ENDBRANCH  25  32
ENDBRANCH   1  28
TORSDOF 6
ENDMDL
