MODEL 1
REMARK VINA RESULT:     -11.7      0.000      0.000
REMARK  Name = 
REMARK  13 active torsions:
REMARK  status: ('A' for Active; 'I' for Inactive)
REMARK    1  A    between atoms: C_1  and  O_58
REMARK    2  A    between atoms: C_8  and  O_20
REMARK    3  A    between atoms: C_9  and  C_12
REMARK    4  A    between atoms: C_15  and  O_19
REMARK    5  A    between atoms: O_19  and  C_31
REMARK    6  A    between atoms: O_20  and  C_22
REMARK    7  A    between atoms: C_24  and  C_59
REMARK    8  A    between atoms: C_32  and  O_38
REMARK    9  A    between atoms: C_35  and  C_60
REMARK   10  A    between atoms: O_38  and  C_39
REMARK   11  A    between atoms: C_39  and  C_41
REMARK   12  A    between atoms: C_42  and  C_44
REMARK   13  A    between atoms: C_45  and  C_46
REMARK                            x       y       z     vdW  Elec       q    Type
REMARK                         _______ _______ _______ _____ _____    ______ ____
ROOT
ATOM      1  C   UNL     1     109.248 126.455 140.755  0.00  0.00    +0.000 A 
ATOM      2  C   UNL     1     109.202 127.143 140.080  0.00  0.00    +0.000 A 
ATOM      3  C   UNL     1     110.009 127.570 139.770  0.00  0.00    +0.000 A 
ATOM      4  C   UNL     1     110.863 127.311 140.137  0.00  0.00    +0.000 A 
ATOM      5  C   UNL     1     110.910 126.624 140.812  0.00  0.00    +0.000 A 
ATOM      6  C   UNL     1     110.102 126.196 141.122  0.00  0.00    +0.000 A 
ENDROOT
BRANCH   1  15
ATOM      7  C   UNL     1     105.817 123.780 140.488  0.00  0.00    +0.000 A 
ATOM      8  C   UNL     1     105.383 124.024 141.294  0.00  0.00    +0.000 A 
ATOM      9  C   UNL     1     105.761 124.686 141.853  0.00  0.00    +0.000 A 
ATOM     10  C   UNL     1     106.574 125.105 141.607  0.00  0.00    +0.000 A 
ATOM     11  C   UNL     1     107.007 124.861 140.802  0.00  0.00    +0.000 A 
ATOM     12  C   UNL     1     106.628 124.198 140.242  0.00  0.00    +0.000 A 
ATOM     13  C   UNL     1     106.953 125.768 142.167  0.00  0.00    +0.000 A 
ATOM     14  C   UNL     1     107.764 126.187 141.921  0.00  0.00    +0.000 A 
ATOM     15  C   UNL     1     108.198 125.943 141.115  0.00  0.00    +0.000 A 
ATOM     16  O   UNL     1     107.820 125.281 140.556  0.00  0.00    +0.000 OA
ATOM     17  O   UNL     1     106.615 125.958 142.794  0.00  0.00    +0.000 OA
ATOM     18  O   UNL     1     105.328 124.930 142.657  0.00  0.00    +0.000 OA
BRANCH   7  19
ATOM     19  O   UNL     1     105.582 123.168 139.852  0.00  0.00    +0.000 OA
ATOM     20  C   UNL     1     104.819 123.512 139.323  0.00  0.00    +0.000 C 
ENDBRANCH   7  19
BRANCH  14  21
ATOM     21  O   UNL     1     108.360 127.155 142.694  0.00  0.00    +0.000 OA
BRANCH  21  23
ATOM     22  C   UNL     1     108.695 129.039 143.335  0.00  0.00    +0.000 C 
ATOM     23  C   UNL     1     108.503 128.448 142.703  0.00  0.00    +0.000 C 
ATOM     24  O   UNL     1     108.608 129.328 142.742  0.00  0.00    +0.000 OA
ATOM     25  C   UNL     1     108.607 130.110 142.315  0.00  0.00    +0.000 C 
ATOM     26  C   UNL     1     108.800 130.703 142.947  0.00  0.00    +0.000 C 
ATOM     27  C   UNL     1     108.695 129.823 142.908  0.00  0.00    +0.000 C 
ATOM     28  O   UNL     1     108.598 128.193 143.312  0.00  0.00    +0.000 OA
ATOM     29  O   UNL     1     108.850 130.029 143.561  0.00  0.00    +0.000 OA
ATOM     30  O   UNL     1     108.759 131.246 142.450  0.00  0.00    +0.000 OA
BRANCH  25  31
ATOM     31  C   UNL     1     108.533 130.306 141.838  0.00  0.00    +0.000 C 
ATOM     32  O   UNL     1     108.733 130.866 141.653  0.00  0.00    +0.000 OA
ENDBRANCH  25  31
ENDBRANCH  21  23
ENDBRANCH  14  21
ENDBRANCH   1  15
BRANCH   4  33
ATOM     33  O   UNL     1     111.727 127.768 139.806  0.00  0.00    +0.000 OA
BRANCH  33  35
ATOM     34  O   UNL     1     112.083 128.996 141.367  0.00  0.00    +0.000 OA
ATOM     35  C   UNL     1     111.934 128.854 140.423  0.00  0.00    +0.000 C 
ATOM     36  C   UNL     1     112.099 129.616 140.994  0.00  0.00    +0.000 C 
ATOM     37  C   UNL     1     112.215 130.577 141.073  0.00  0.00    +0.000 C 
ATOM     38  C   UNL     1     112.365 130.720 142.018  0.00  0.00    +0.000 C 
ATOM     39  C   UNL     1     112.200 129.956 141.447  0.00  0.00    +0.000 C 
ATOM     40  O   UNL     1     112.498 131.186 142.596  0.00  0.00    +0.000 OA
ATOM     41  O   UNL     1     112.213 131.047 140.695  0.00  0.00    +0.000 OA
BRANCH  39  42
ATOM     42  C   UNL     1     112.340 129.891 142.483  0.00  0.00    +0.000 C 
ATOM     43  O   UNL     1     112.361 130.439 142.808  0.00  0.00    +0.000 OA
ENDBRANCH  39  42
BRANCH  36  44
ATOM     44  O   UNL     1     111.989 129.512 140.298  0.00  0.00    +0.000 OA
BRANCH  44  45
ATOM     45  C   UNL     1     112.951 129.451 139.206  0.00  0.00    +0.000 C 
ATOM     46  O   UNL     1     113.798 128.877 139.490  0.00  0.00    +0.000 OA
BRANCH  45  47
ATOM     47  C   UNL     1     112.893 129.952 138.079  0.00  0.00    +0.000 C 
ATOM     48  C   UNL     1     113.078 129.249 137.082  0.00  0.00    +0.000 C 
ATOM     49  C   UNL     1     113.021 129.750 135.956  0.00  0.00    +0.000 C 
BRANCH  48  50
ATOM     50  C   UNL     1     113.321 128.046 137.211  0.00  0.00    +0.000 C 
ATOM     51  C   UNL     1     112.840 127.232 136.420  0.00  0.00    +0.000 C 
BRANCH  51  52
ATOM     52  C   UNL     1     113.082 126.029 136.549  0.00  0.00    +0.000 C 
ATOM     53  C   UNL     1     112.002 125.816 136.599  0.00  0.00    +0.000 C 
ATOM     54  C   UNL     1     111.650 124.781 136.724  0.00  0.00    +0.000 C 
ATOM     55  C   UNL     1     112.376 123.957 136.799  0.00  0.00    +0.000 C 
ATOM     56  C   UNL     1     113.457 124.169 136.748  0.00  0.00    +0.000 C 
ATOM     57  C   UNL     1     113.808 125.205 136.623  0.00  0.00    +0.000 C 
ATOM     58  O   UNL     1     114.002 126.830 136.436  0.00  0.00    +0.000 OA
ATOM     59  C   UNL     1     110.825 125.202 136.698  0.00  0.00    +0.000 C 
ATOM     60  O   UNL     1     112.535 125.014 136.676  0.00  0.00    +0.000 OA
ATOM     61  O   UNL     1     111.927 123.288 136.885  0.00  0.00    +0.000 OA
ATOM     62  C   UNL     1     114.543 125.350 136.589  0.00  0.00    +0.000 C 
ATOM     63  C   UNL     1     111.319 126.590 136.529  0.00  0.00    +0.000 C 
ENDBRANCH  51  52
ENDBRANCH  48  50
ENDBRANCH  45  47
ENDBRANCH  44  45
ENDBRANCH  36  44
ENDBRANCH  33  35
ENDBRANCH   4  33
TORSDOF 13
ENDMDL
MODEL 2
REMARK VINA RESULT:     -11.3      1.281      1.853
REMARK  Name = 
REMARK  13 active torsions:
REMARK  status: ('A' for Active; 'I' for Inactive)
REMARK    1  A    between atoms: C_1  and  O_58
REMARK    2  A    between atoms: C_8  and  O_20
REMARK    3  A    between atoms: C_9  and  C_12
REMARK    4  A    between atoms: C_15  and  O_19
REMARK    5  A    between atoms: O_19  and  C_31
REMARK    6  A    between atoms: O_20  and  C_22
REMARK    7  A    between atoms: C_24  and  C_59
REMARK    8  A    between atoms: C_32  and  O_38
REMARK    9  A    between atoms: C_35  and  C_60
REMARK   10  A    between atoms: O_38  and  C_39
REMARK   11  A    between atoms: C_39  and  C_41
REMARK   12  A    between atoms: C_42  and  C_44
REMARK   13  A    between atoms: C_45  and  C_46
REMARK                            x       y       z     vdW  Elec       q    Type
REMARK                         _______ _______ _______ _____ _____    ______ ____
ROOT
ATOM      1  C   UNL     1     109.254 126.710 140.761  0.00  0.00    +0.000 A 
ATOM      2  C   UNL     1     110.050 126.366 141.186  0.00  0.00    +0.000 A 
ATOM      3  C   UNL     1     110.910 126.750 140.981  0.00  0.00    +0.000 A 
ATOM      4  C   UNL     1     110.977 127.477 140.351  0.00  0.00    +0.000 A 
ATOM      5  C   UNL     1     110.182 127.821 139.926  0.00  0.00    +0.000 A 
ATOM      6  C   UNL     1     109.321 127.437 140.131  0.00  0.00    +0.000 A 
ENDROOT
BRANCH   1  15
ATOM      7  C   UNL     1     105.804 124.102 140.215  0.00  0.00    +0.000 A 
ATOM      8  C   UNL     1     105.345 124.303 141.018  0.00  0.00    +0.000 A 
ATOM      9  C   UNL     1     105.711 124.926 141.629  0.00  0.00    +0.000 A 
ATOM     10  C   UNL     1     106.536 125.348 141.437  0.00  0.00    +0.000 A 
ATOM     11  C   UNL     1     106.995 125.146 140.634  0.00  0.00    +0.000 A 
ATOM     12  C   UNL     1     106.629 124.523 140.023  0.00  0.00    +0.000 A 
ATOM     13  C   UNL     1     106.903 125.971 142.048  0.00  0.00    +0.000 A 
ATOM     14  C   UNL     1     107.727 126.393 141.856  0.00  0.00    +0.000 A 
ATOM     15  C   UNL     1     108.187 126.191 141.053  0.00  0.00    +0.000 A 
ATOM     16  O   UNL     1     107.821 125.569 140.442  0.00  0.00    +0.000 OA
ATOM     17  O   UNL     1     106.545 126.128 142.674  0.00  0.00    +0.000 OA
ATOM     18  O   UNL     1     105.252 125.127 142.431  0.00  0.00    +0.000 OA
BRANCH   7  19
ATOM     19  O   UNL     1     105.585 123.532 139.535  0.00  0.00    +0.000 OA
ATOM     20  C   UNL     1     104.674 123.739 139.207  0.00  0.00    +0.000 C 
ENDBRANCH   7  19
BRANCH  14  21
ATOM     21  O   UNL     1     108.306 127.304 142.706  0.00  0.00    +0.000 OA
BRANCH  21  23
ATOM     22  C   UNL     1     108.520 129.146 143.504  0.00  0.00    +0.000 C 
ATOM     23  C   UNL     1     108.434 128.595 142.815  0.00  0.00    +0.000 C 
ATOM     24  O   UNL     1     108.523 129.471 142.924  0.00  0.00    +0.000 OA
ATOM     25  C   UNL     1     108.583 130.278 142.550  0.00  0.00    +0.000 C 
ATOM     26  C   UNL     1     108.668 130.830 143.239  0.00  0.00    +0.000 C 
ATOM     27  C   UNL     1     108.579 129.954 143.131  0.00  0.00    +0.000 C 
ATOM     28  O   UNL     1     108.435 128.303 143.415  0.00  0.00    +0.000 OA
ATOM     29  O   UNL     1     108.627 130.120 143.812  0.00  0.00    +0.000 OA
ATOM     30  O   UNL     1     108.701 131.403 142.776  0.00  0.00    +0.000 OA
BRANCH  25  31
ATOM     31  C   UNL     1     108.582 130.502 142.080  0.00  0.00    +0.000 C 
ATOM     32  O   UNL     1     108.796 131.076 141.964  0.00  0.00    +0.000 OA
ENDBRANCH  25  31
ENDBRANCH  21  23
ENDBRANCH  14  21
ENDBRANCH   1  15
BRANCH   4  33
ATOM     33  O   UNL     1     111.898 127.888 140.132  0.00  0.00    +0.000 OA
BRANCH  33  35
ATOM     34  O   UNL     1     112.060 129.084 141.749  0.00  0.00    +0.000 OA
ATOM     35  C   UNL     1     112.093 128.950 140.792  0.00  0.00    +0.000 C 
ATOM     36  C   UNL     1     112.221 129.695 141.395  0.00  0.00    +0.000 C 
ATOM     37  C   UNL     1     112.426 130.637 141.509  0.00  0.00    +0.000 C 
ATOM     38  C   UNL     1     112.393 130.772 142.466  0.00  0.00    +0.000 C 
ATOM     39  C   UNL     1     112.265 130.026 141.864  0.00  0.00    +0.000 C 
ATOM     40  O   UNL     1     112.455 131.226 143.065  0.00  0.00    +0.000 OA
ATOM     41  O   UNL     1     112.554 131.100 141.145  0.00  0.00    +0.000 OA
BRANCH  39  42
ATOM     42  C   UNL     1     112.180 129.956 142.905  0.00  0.00    +0.000 C 
ATOM     43  O   UNL     1     112.143 130.503 143.231  0.00  0.00    +0.000 OA
ENDBRANCH  39  42
BRANCH  36  44
ATOM     44  O   UNL     1     112.245 129.596 140.691  0.00  0.00    +0.000 OA
BRANCH  44  45
ATOM     45  C   UNL     1     113.400 129.468 139.812  0.00  0.00    +0.000 C 
ATOM     46  O   UNL     1     113.948 128.588 140.044  0.00  0.00    +0.000 OA
BRANCH  45  47
ATOM     47  C   UNL     1     113.780 130.209 138.900  0.00  0.00    +0.000 C 
ATOM     48  C   UNL     1     113.451 129.972 137.734  0.00  0.00    +0.000 C 
ATOM     49  C   UNL     1     113.831 130.712 136.824  0.00  0.00    +0.000 C 
BRANCH  48  50
ATOM     50  C   UNL     1     112.743 128.994 137.480  0.00  0.00    +0.000 C 
ATOM     51  C   UNL     1     111.717 129.133 136.810  0.00  0.00    +0.000 C 
BRANCH  51  52
ATOM     52  C   UNL     1     111.008 128.155 136.556  0.00  0.00    +0.000 C 
ATOM     53  C   UNL     1     110.129 128.814 136.474  0.00  0.00    +0.000 C 
ATOM     54  C   UNL     1     109.142 128.387 136.237  0.00  0.00    +0.000 C 
ATOM     55  C   UNL     1     109.034 127.302 136.081  0.00  0.00    +0.000 C 
ATOM     56  C   UNL     1     109.913 126.644 136.163  0.00  0.00    +0.000 C 
ATOM     57  C   UNL     1     110.900 127.071 136.400  0.00  0.00    +0.000 C 
ATOM     58  O   UNL     1     112.207 128.007 136.760  0.00  0.00    +0.000 OA
ATOM     59  C   UNL     1     108.893 129.277 136.302  0.00  0.00    +0.000 C 
ATOM     60  O   UNL     1     109.906 127.886 136.317  0.00  0.00    +0.000 OA
ATOM     61  O   UNL     1     108.247 127.191 135.921  0.00  0.00    +0.000 OA
ATOM     62  C   UNL     1     111.499 126.623 136.455  0.00  0.00    +0.000 C 
ATOM     63  C   UNL     1     110.230 129.832 136.621  0.00  0.00    +0.000 C 
ENDBRANCH  51  52
ENDBRANCH  48  50
ENDBRANCH  45  47
ENDBRANCH  44  45
ENDBRANCH  36  44
ENDBRANCH  33  35
ENDBRANCH   4  33
TORSDOF 13
ENDMDL
MODEL 3
REMARK VINA RESULT:     -11.3      2.089      2.787
REMARK  Name = 
REMARK  13 active torsions:
REMARK  status: ('A' for Active; 'I' for Inactive)
REMARK    1  A    between atoms: C_1  and  O_58
REMARK    2  A    between atoms: C_8  and  O_20
REMARK    3  A    between atoms: C_9  and  C_12
REMARK    4  A    between atoms: C_15  and  O_19
REMARK    5  A    between atoms: O_19  and  C_31
REMARK    6  A    between atoms: O_20  and  C_22
REMARK    7  A    between atoms: C_24  and  C_59
REMARK    8  A    between atoms: C_32  and  O_38
REMARK    9  A    between atoms: C_35  and  C_60
REMARK   10  A    between atoms: O_38  and  C_39
REMARK   11  A    between atoms: C_39  and  C_41
REMARK   12  A    between atoms: C_42  and  C_44
REMARK   13  A    between atoms: C_45  and  C_46
REMARK                            x       y       z     vdW  Elec       q    Type
REMARK                         _______ _______ _______ _____ _____    ______ ____
ROOT
ATOM      1  C   UNL     1     109.137 128.466 140.688  0.00  0.00    +0.000 A 
ATOM      2  C   UNL     1     109.215 129.319 140.244  0.00  0.00    +0.000 A 
ATOM      3  C   UNL     1     109.874 129.445 139.552  0.00  0.00    +0.000 A 
ATOM      4  C   UNL     1     110.456 128.717 139.303  0.00  0.00    +0.000 A 
ATOM      5  C   UNL     1     110.379 127.864 139.746  0.00  0.00    +0.000 A 
ATOM      6  C   UNL     1     109.719 127.738 140.439  0.00  0.00    +0.000 A 
ENDROOT
BRANCH   1  15
ATOM      7  C   UNL     1     105.115 127.978 142.298  0.00  0.00    +0.000 A 
ATOM      8  C   UNL     1     105.328 127.991 143.221  0.00  0.00    +0.000 A 
ATOM      9  C   UNL     1     106.227 128.092 143.497  0.00  0.00    +0.000 A 
ATOM     10  C   UNL     1     106.914 128.180 142.851  0.00  0.00    +0.000 A 
ATOM     11  C   UNL     1     106.700 128.167 141.929  0.00  0.00    +0.000 A 
ATOM     12  C   UNL     1     105.801 128.066 141.653  0.00  0.00    +0.000 A 
ATOM     13  C   UNL     1     107.814 128.281 143.127  0.00  0.00    +0.000 A 
ATOM     14  C   UNL     1     108.500 128.369 142.482  0.00  0.00    +0.000 A 
ATOM     15  C   UNL     1     108.286 128.356 141.559  0.00  0.00    +0.000 A 
ATOM     16  O   UNL     1     107.387 128.255 141.283  0.00  0.00    +0.000 OA
ATOM     17  O   UNL     1     107.980 128.291 143.846  0.00  0.00    +0.000 OA
ATOM     18  O   UNL     1     106.441 128.105 144.419  0.00  0.00    +0.000 OA
BRANCH   7  19
ATOM     19  O   UNL     1     104.308 127.890 141.880  0.00  0.00    +0.000 OA
ATOM     20  C   UNL     1     103.910 128.784 141.729  0.00  0.00    +0.000 C 
ENDBRANCH   7  19
BRANCH  14  21
ATOM     21  O   UNL     1     109.822 128.518 142.824  0.00  0.00    +0.000 OA
BRANCH  21  23
ATOM     22  C   UNL     1     111.492 129.547 143.299  0.00  0.00    +0.000 C 
ATOM     23  C   UNL     1     110.720 129.459 142.874  0.00  0.00    +0.000 C 
ATOM     24  O   UNL     1     111.350 130.081 142.928  0.00  0.00    +0.000 OA
ATOM     25  C   UNL     1     111.643 130.885 142.681  0.00  0.00    +0.000 C 
ATOM     26  C   UNL     1     112.416 130.975 143.106  0.00  0.00    +0.000 C 
ATOM     27  C   UNL     1     111.787 130.352 143.052  0.00  0.00    +0.000 C 
ATOM     28  O   UNL     1     110.895 128.941 143.256  0.00  0.00    +0.000 OA
ATOM     29  O   UNL     1     112.306 130.148 143.477  0.00  0.00    +0.000 OA
ATOM     30  O   UNL     1     112.505 131.643 142.805  0.00  0.00    +0.000 OA
BRANCH  25  31
ATOM     31  C   UNL     1     111.503 131.288 142.381  0.00  0.00    +0.000 C 
ATOM     32  O   UNL     1     111.885 131.750 142.213  0.00  0.00    +0.000 OA
ENDBRANCH  25  31
ENDBRANCH  21  23
ENDBRANCH  14  21
ENDBRANCH   1  15
BRANCH   4  33
ATOM     33  O   UNL     1     111.162 128.851 138.562  0.00  0.00    +0.000 OA
BRANCH  33  35
ATOM     34  O   UNL     1     112.876 128.975 139.620  0.00  0.00    +0.000 OA
ATOM     35  C   UNL     1     112.220 129.367 139.027  0.00  0.00    +0.000 C 
ATOM     36  C   UNL     1     113.046 129.656 139.439  0.00  0.00    +0.000 C 
ATOM     37  C   UNL     1     113.703 130.360 139.563  0.00  0.00    +0.000 C 
ATOM     38  C   UNL     1     114.358 129.969 140.156  0.00  0.00    +0.000 C 
ATOM     39  C   UNL     1     113.533 129.679 139.745  0.00  0.00    +0.000 C 
ATOM     40  O   UNL     1     115.000 130.024 140.549  0.00  0.00    +0.000 OA
ATOM     41  O   UNL     1     113.774 130.926 139.367  0.00  0.00    +0.000 OA
BRANCH  39  42
ATOM     42  C   UNL     1     114.111 129.078 140.378  0.00  0.00    +0.000 C 
ATOM     43  O   UNL     1     114.546 129.372 140.740  0.00  0.00    +0.000 OA
ENDBRANCH  39  42
BRANCH  36  44
ATOM     44  O   UNL     1     112.563 129.944 139.002  0.00  0.00    +0.000 OA
BRANCH  44  45
ATOM     45  C   UNL     1     112.639 130.188 137.568  0.00  0.00    +0.000 C 
ATOM     46  O   UNL     1     111.682 130.442 137.184  0.00  0.00    +0.000 OA
BRANCH  45  47
ATOM     47  C   UNL     1     113.615 130.137 136.813  0.00  0.00    +0.000 C 
ATOM     48  C   UNL     1     113.761 129.171 136.059  0.00  0.00    +0.000 C 
ATOM     49  C   UNL     1     114.735 129.120 135.304  0.00  0.00    +0.000 C 
BRANCH  48  50
ATOM     50  C   UNL     1     112.932 128.257 136.060  0.00  0.00    +0.000 C 
ATOM     51  C   UNL     1     113.291 127.099 136.285  0.00  0.00    +0.000 C 
BRANCH  51  52
ATOM     52  C   UNL     1     112.462 126.185 136.286  0.00  0.00    +0.000 C 
ATOM     53  C   UNL     1     113.230 125.488 136.657  0.00  0.00    +0.000 C 
ATOM     54  C   UNL     1     112.974 124.434 136.843  0.00  0.00    +0.000 C 
ATOM     55  C   UNL     1     111.949 124.075 136.659  0.00  0.00    +0.000 C 
ATOM     56  C   UNL     1     111.180 124.772 136.287  0.00  0.00    +0.000 C 
ATOM     57  C   UNL     1     111.438 125.827 136.101  0.00  0.00    +0.000 C 
ATOM     58  O   UNL     1     112.133 127.310 135.928  0.00  0.00    +0.000 OA
ATOM     59  C   UNL     1     113.866 124.401 137.088  0.00  0.00    +0.000 C 
ATOM     60  O   UNL     1     112.374 125.056 136.535  0.00  0.00    +0.000 OA
ATOM     61  O   UNL     1     111.964 123.289 136.852  0.00  0.00    +0.000 OA
ATOM     62  C   UNL     1     110.915 126.301 135.848  0.00  0.00    +0.000 C 
ATOM     63  C   UNL     1     114.193 125.825 136.831  0.00  0.00    +0.000 C 
ENDBRANCH  51  52
ENDBRANCH  48  50
ENDBRANCH  45  47
ENDBRANCH  44  45
ENDBRANCH  36  44
ENDBRANCH  33  35
ENDBRANCH   4  33
TORSDOF 13
ENDMDL
MODEL 4
REMARK VINA RESULT:     -11.2      2.172      3.264
REMARK  Name = 
REMARK  13 active torsions:
REMARK  status: ('A' for Active; 'I' for Inactive)
REMARK    1  A    between atoms: C_1  and  O_58
REMARK    2  A    between atoms: C_8  and  O_20
REMARK    3  A    between atoms: C_9  and  C_12
REMARK    4  A    between atoms: C_15  and  O_19
REMARK    5  A    between atoms: O_19  and  C_31
REMARK    6  A    between atoms: O_20  and  C_22
REMARK    7  A    between atoms: C_24  and  C_59
REMARK    8  A    between atoms: C_32  and  O_38
REMARK    9  A    between atoms: C_35  and  C_60
REMARK   10  A    between atoms: O_38  and  C_39
REMARK   11  A    between atoms: C_39  and  C_41
REMARK   12  A    between atoms: C_42  and  C_44
REMARK   13  A    between atoms: C_45  and  C_46
REMARK                            x       y       z     vdW  Elec       q    Type
REMARK                         _______ _______ _______ _____ _____    ______ ____
ROOT
ATOM      1  C   UNL     1     108.786 129.603 140.864  0.00  0.00    +0.000 A 
ATOM      2  C   UNL     1     109.258 130.340 141.271  0.00  0.00    +0.000 A 
ATOM      3  C   UNL     1     109.934 130.815 140.774  0.00  0.00    +0.000 A 
ATOM      4  C   UNL     1     110.139 130.553 139.868  0.00  0.00    +0.000 A 
ATOM      5  C   UNL     1     109.668 129.817 139.460  0.00  0.00    +0.000 A 
ATOM      6  C   UNL     1     108.991 129.342 139.958  0.00  0.00    +0.000 A 
ENDROOT
BRANCH   1  15
ATOM      7  C   UNL     1     104.759 128.640 142.226  0.00  0.00    +0.000 A 
ATOM      8  C   UNL     1     104.981 127.994 142.881  0.00  0.00    +0.000 A 
ATOM      9  C   UNL     1     105.886 127.768 143.036  0.00  0.00    +0.000 A 
ATOM     10  C   UNL     1     106.571 128.190 142.535  0.00  0.00    +0.000 A 
ATOM     11  C   UNL     1     106.349 128.836 141.880  0.00  0.00    +0.000 A 
ATOM     12  C   UNL     1     105.442 129.061 141.726  0.00  0.00    +0.000 A 
ATOM     13  C   UNL     1     107.477 127.965 142.690  0.00  0.00    +0.000 A 
ATOM     14  C   UNL     1     108.161 128.386 142.190  0.00  0.00    +0.000 A 
ATOM     15  C   UNL     1     107.939 129.032 141.535  0.00  0.00    +0.000 A 
ATOM     16  O   UNL     1     107.033 129.257 141.380  0.00  0.00    +0.000 OA
ATOM     17  O   UNL     1     107.650 127.461 143.200  0.00  0.00    +0.000 OA
ATOM     18  O   UNL     1     106.108 127.122 143.690  0.00  0.00    +0.000 OA
BRANCH   7  19
ATOM     19  O   UNL     1     103.945 128.961 141.964  0.00  0.00    +0.000 OA
ATOM     20  C   UNL     1     103.653 129.677 142.582  0.00  0.00    +0.000 C 
ENDBRANCH   7  19
BRANCH  14  21
ATOM     21  O   UNL     1     109.492 128.098 142.372  0.00  0.00    +0.000 OA
BRANCH  21  23
ATOM     22  C   UNL     1     111.314 127.356 141.920  0.00  0.00    +0.000 C 
ATOM     23  C   UNL     1     110.469 127.534 141.722  0.00  0.00    +0.000 C 
ATOM     24  O   UNL     1     111.154 127.154 141.307  0.00  0.00    +0.000 OA
ATOM     25  C   UNL     1     111.469 126.757 140.574  0.00  0.00    +0.000 C 
ATOM     26  C   UNL     1     112.316 126.578 140.771  0.00  0.00    +0.000 C 
ATOM     27  C   UNL     1     111.631 126.959 141.187  0.00  0.00    +0.000 C 
ATOM     28  O   UNL     1     110.665 127.723 142.331  0.00  0.00    +0.000 OA
ATOM     29  O   UNL     1     112.201 126.951 141.596  0.00  0.00    +0.000 OA
ATOM     30  O   UNL     1     112.408 126.277 140.104  0.00  0.00    +0.000 OA
BRANCH  25  31
ATOM     31  C   UNL     1     111.313 126.611 140.099  0.00  0.00    +0.000 C 
ATOM     32  O   UNL     1     111.598 126.774 139.569  0.00  0.00    +0.000 OA
ENDBRANCH  25  31
ENDBRANCH  21  23
ENDBRANCH  14  21
ENDBRANCH   1  15
BRANCH   4  33
ATOM     33  O   UNL     1     110.862 131.062 139.335  0.00  0.00    +0.000 OA
BRANCH  33  35
ATOM     34  O   UNL     1     112.609 130.622 140.245  0.00  0.00    +0.000 OA
ATOM     35  C   UNL     1     112.002 130.536 139.497  0.00  0.00    +0.000 C 
ATOM     36  C   UNL     1     112.875 130.191 139.726  0.00  0.00    +0.000 C 
ATOM     37  C   UNL     1     113.637 129.643 139.477  0.00  0.00    +0.000 C 
ATOM     38  C   UNL     1     114.244 129.728 140.225  0.00  0.00    +0.000 C 
ATOM     39  C   UNL     1     113.370 130.073 139.996  0.00  0.00    +0.000 C 
ATOM     40  O   UNL     1     114.900 129.558 140.558  0.00  0.00    +0.000 OA
ATOM     41  O   UNL     1     113.788 129.300 139.005  0.00  0.00    +0.000 OA
BRANCH  39  42
ATOM     42  C   UNL     1     113.870 130.297 140.889  0.00  0.00    +0.000 C 
ATOM     43  O   UNL     1     114.490 130.150 140.919  0.00  0.00    +0.000 OA
ENDBRANCH  39  42
BRANCH  36  44
ATOM     44  O   UNL     1     112.429 130.128 139.176  0.00  0.00    +0.000 OA
BRANCH  44  45
ATOM     45  C   UNL     1     112.445 130.806 137.887  0.00  0.00    +0.000 C 
ATOM     46  O   UNL     1     113.308 131.418 137.800  0.00  0.00    +0.000 OA
BRANCH  45  47
ATOM     47  C   UNL     1     111.631 130.750 136.960  0.00  0.00    +0.000 C 
ATOM     48  C   UNL     1     111.576 129.743 136.247  0.00  0.00    +0.000 C 
ATOM     49  C   UNL     1     110.763 129.687 135.321  0.00  0.00    +0.000 C 
BRANCH  48  50
ATOM     50  C   UNL     1     112.333 128.793 136.462  0.00  0.00    +0.000 C 
ATOM     51  C   UNL     1     112.002 127.653 136.130  0.00  0.00    +0.000 C 
BRANCH  51  52
ATOM     52  C   UNL     1     112.759 126.703 136.345  0.00  0.00    +0.000 C 
ATOM     53  C   UNL     1     111.897 126.016 136.353  0.00  0.00    +0.000 C 
ATOM     54  C   UNL     1     112.052 124.940 136.522  0.00  0.00    +0.000 C 
ATOM     55  C   UNL     1     113.068 124.548 136.684  0.00  0.00    +0.000 C 
ATOM     56  C   UNL     1     113.930 125.234 136.676  0.00  0.00    +0.000 C 
ATOM     57  C   UNL     1     113.775 126.311 136.506  0.00  0.00    +0.000 C 
ATOM     58  O   UNL     1     113.213 127.835 136.230  0.00  0.00    +0.000 OA
ATOM     59  C   UNL     1     111.131 124.931 136.427  0.00  0.00    +0.000 C 
ATOM     60  O   UNL     1     112.732 125.555 136.505  0.00  0.00    +0.000 OA
ATOM     61  O   UNL     1     112.971 123.750 136.788  0.00  0.00    +0.000 OA
ATOM     62  C   UNL     1     114.362 126.778 136.501  0.00  0.00    +0.000 C 
ATOM     63  C   UNL     1     110.942 126.384 136.200  0.00  0.00    +0.000 C 
ENDBRANCH  51  52
ENDBRANCH  48  50
ENDBRANCH  45  47
ENDBRANCH  44  45
ENDBRANCH  36  44
ENDBRANCH  33  35
ENDBRANCH   4  33
TORSDOF 13
ENDMDL
MODEL 5
REMARK VINA RESULT:     -11.2      2.420      5.530
REMARK  Name = 
REMARK  13 active torsions:
REMARK  status: ('A' for Active; 'I' for Inactive)
REMARK    1  A    between atoms: C_1  and  O_58
REMARK    2  A    between atoms: C_8  and  O_20
REMARK    3  A    between atoms: C_9  and  C_12
REMARK    4  A    between atoms: C_15  and  O_19
REMARK    5  A    between atoms: O_19  and  C_31
REMARK    6  A    between atoms: O_20  and  C_22
REMARK    7  A    between atoms: C_24  and  C_59
REMARK    8  A    between atoms: C_32  and  O_38
REMARK    9  A    between atoms: C_35  and  C_60
REMARK   10  A    between atoms: O_38  and  C_39
REMARK   11  A    between atoms: C_39  and  C_41
REMARK   12  A    between atoms: C_42  and  C_44
REMARK   13  A    between atoms: C_45  and  C_46
REMARK                            x       y       z     vdW  Elec       q    Type
REMARK                         _______ _______ _______ _____ _____    ______ ____
ROOT
ATOM      1  C   UNL     1     112.036 130.153 140.972  0.00  0.00    +0.000 A 
ATOM      2  C   UNL     1     111.234 130.134 140.436  0.00  0.00    +0.000 A 
ATOM      3  C   UNL     1     111.297 130.136 139.474  0.00  0.00    +0.000 A 
ATOM      4  C   UNL     1     112.162 130.157 139.047  0.00  0.00    +0.000 A 
ATOM      5  C   UNL     1     112.964 130.176 139.582  0.00  0.00    +0.000 A 
ATOM      6  C   UNL     1     112.901 130.174 140.545  0.00  0.00    +0.000 A 
ENDROOT
BRANCH   1  15
ATOM      7  C   UNL     1     111.739 131.891 144.959  0.00  0.00    +0.000 A 
ATOM      8  C   UNL     1     111.626 131.092 145.455  0.00  0.00    +0.000 A 
ATOM      9  C   UNL     1     111.611 130.257 145.010  0.00  0.00    +0.000 A 
ATOM     10  C   UNL     1     111.709 130.221 144.069  0.00  0.00    +0.000 A 
ATOM     11  C   UNL     1     111.822 131.020 143.573  0.00  0.00    +0.000 A 
ATOM     12  C   UNL     1     111.837 131.855 144.019  0.00  0.00    +0.000 A 
ATOM     13  C   UNL     1     111.694 129.386 143.623  0.00  0.00    +0.000 A 
ATOM     14  C   UNL     1     111.793 129.349 142.683  0.00  0.00    +0.000 A 
ATOM     15  C   UNL     1     111.906 130.148 142.188  0.00  0.00    +0.000 A 
ATOM     16  O   UNL     1     111.920 130.983 142.633  0.00  0.00    +0.000 OA
ATOM     17  O   UNL     1     111.606 128.763 144.009  0.00  0.00    +0.000 OA
ATOM     18  O   UNL     1     111.498 129.459 145.505  0.00  0.00    +0.000 OA
BRANCH   7  19
ATOM     19  O   UNL     1     111.774 132.759 145.238  0.00  0.00    +0.000 OA
ATOM     20  C   UNL     1     111.487 132.818 146.184  0.00  0.00    +0.000 C 
ENDBRANCH   7  19
BRANCH  14  21
ATOM     21  O   UNL     1     111.779 128.166 141.984  0.00  0.00    +0.000 OA
BRANCH  21  23
ATOM     22  C   UNL     1     110.894 126.483 141.307  0.00  0.00    +0.000 C 
ATOM     23  C   UNL     1     110.912 127.358 141.446  0.00  0.00    +0.000 C 
ATOM     24  O   UNL     1     110.343 126.782 141.085  0.00  0.00    +0.000 OA
ATOM     25  C   UNL     1     109.559 126.642 140.686  0.00  0.00    +0.000 C 
ATOM     26  C   UNL     1     109.540 125.766 140.546  0.00  0.00    +0.000 C 
ATOM     27  C   UNL     1     110.110 126.341 140.907  0.00  0.00    +0.000 C 
ATOM     28  O   UNL     1     111.451 127.025 141.656  0.00  0.00    +0.000 OA
ATOM     29  O   UNL     1     110.364 125.688 140.932  0.00  0.00    +0.000 OA
ATOM     30  O   UNL     1     108.874 125.829 140.234  0.00  0.00    +0.000 OA
BRANCH  25  31
ATOM     31  C   UNL     1     109.140 126.905 140.522  0.00  0.00    +0.000 C 
ATOM     32  O   UNL     1     108.905 126.870 139.946  0.00  0.00    +0.000 OA
ENDBRANCH  25  31
ENDBRANCH  21  23
ENDBRANCH  14  21
ENDBRANCH   1  15
BRANCH   4  33
ATOM     33  O   UNL     1     112.229 130.160 138.017  0.00  0.00    +0.000 OA
BRANCH  33  35
ATOM     34  O   UNL     1     111.571 131.925 137.295  0.00  0.00    +0.000 OA
ATOM     35  C   UNL     1     111.424 130.994 137.509  0.00  0.00    +0.000 C 
ATOM     36  C   UNL     1     110.899 131.711 137.129  0.00  0.00    +0.000 C 
ATOM     37  C   UNL     1     110.051 132.006 136.759  0.00  0.00    +0.000 C 
ATOM     38  C   UNL     1     110.197 132.937 136.545  0.00  0.00    +0.000 C 
ATOM     39  C   UNL     1     110.723 132.221 136.926  0.00  0.00    +0.000 C 
ATOM     40  O   UNL     1     109.943 133.594 136.274  0.00  0.00    +0.000 OA
ATOM     41  O   UNL     1     109.515 131.753 136.649  0.00  0.00    +0.000 OA
BRANCH  39  42
ATOM     42  C   UNL     1     111.084 133.191 136.773  0.00  0.00    +0.000 C 
ATOM     43  O   UNL     1     110.684 133.612 136.509  0.00  0.00    +0.000 OA
ENDBRANCH  39  42
BRANCH  36  44
ATOM     44  O   UNL     1     110.791 131.026 137.286  0.00  0.00    +0.000 OA
BRANCH  44  45
ATOM     45  C   UNL     1     110.698 129.875 136.399  0.00  0.00    +0.000 C 
ATOM     46  O   UNL     1     111.547 129.826 135.763  0.00  0.00    +0.000 OA
BRANCH  45  47
ATOM     47  C   UNL     1     109.811 129.019 136.312  0.00  0.00    +0.000 C 
ATOM     48  C   UNL     1     110.058 127.844 136.600  0.00  0.00    +0.000 C 
ATOM     49  C   UNL     1     109.173 126.990 136.514  0.00  0.00    +0.000 C 
BRANCH  48  50
ATOM     50  C   UNL     1     111.190 127.525 136.974  0.00  0.00    +0.000 C 
ATOM     51  C   UNL     1     111.436 126.352 137.262  0.00  0.00    +0.000 C 
BRANCH  51  52
ATOM     52  C   UNL     1     112.568 126.033 137.636  0.00  0.00    +0.000 C 
ATOM     53  C   UNL     1     112.572 125.201 136.914  0.00  0.00    +0.000 C 
ATOM     54  C   UNL     1     113.448 124.539 136.842  0.00  0.00    +0.000 C 
ATOM     55  C   UNL     1     114.322 124.708 137.491  0.00  0.00    +0.000 C 
ATOM     56  C   UNL     1     114.318 125.540 138.214  0.00  0.00    +0.000 C 
ATOM     57  C   UNL     1     113.441 126.202 138.285  0.00  0.00    +0.000 C 
ATOM     58  O   UNL     1     112.002 126.993 138.146  0.00  0.00    +0.000 OA
ATOM     59  C   UNL     1     112.924 124.139 136.192  0.00  0.00    +0.000 C 
ATOM     60  O   UNL     1     113.392 125.245 137.424  0.00  0.00    +0.000 OA
ATOM     61  O   UNL     1     114.849 124.127 137.289  0.00  0.00    +0.000 OA
ATOM     62  C   UNL     1     113.438 126.768 138.777  0.00  0.00    +0.000 C 
ATOM     63  C   UNL     1     111.752 125.042 136.303  0.00  0.00    +0.000 C 
ENDBRANCH  51  52
ENDBRANCH  48  50
ENDBRANCH  45  47
ENDBRANCH  44  45
ENDBRANCH  36  44
ENDBRANCH  33  35
ENDBRANCH   4  33
TORSDOF 13
ENDMDL
MODEL 6
REMARK VINA RESULT:     -11.2      2.611      4.301
REMARK  Name = 
REMARK  13 active torsions:
REMARK  status: ('A' for Active; 'I' for Inactive)
REMARK    1  A    between atoms: C_1  and  O_58
REMARK    2  A    between atoms: C_8  and  O_20
REMARK    3  A    between atoms: C_9  and  C_12
REMARK    4  A    between atoms: C_15  and  O_19
REMARK    5  A    between atoms: O_19  and  C_31
REMARK    6  A    between atoms: O_20  and  C_22
REMARK    7  A    between atoms: C_24  and  C_59
REMARK    8  A    between atoms: C_32  and  O_38
REMARK    9  A    between atoms: C_35  and  C_60
REMARK   10  A    between atoms: O_38  and  C_39
REMARK   11  A    between atoms: C_39  and  C_41
REMARK   12  A    between atoms: C_42  and  C_44
REMARK   13  A    between atoms: C_45  and  C_46
REMARK                            x       y       z     vdW  Elec       q    Type
REMARK                         _______ _______ _______ _____ _____    ______ ____
ROOT
ATOM      1  C   UNL     1     108.315 129.369 141.127  0.00  0.00    +0.000 A 
ATOM      2  C   UNL     1     107.843 130.209 141.067  0.00  0.00    +0.000 A 
ATOM      3  C   UNL     1     108.186 130.917 140.509  0.00  0.00    +0.000 A 
ATOM      4  C   UNL     1     109.002 130.785 140.010  0.00  0.00    +0.000 A 
ATOM      5  C   UNL     1     109.473 129.946 140.069  0.00  0.00    +0.000 A 
ATOM      6  C   UNL     1     109.130 129.238 140.627  0.00  0.00    +0.000 A 
ENDROOT
BRANCH   1  15
ATOM      7  C   UNL     1     105.977 125.817 142.086  0.00  0.00    +0.000 A 
ATOM      8  C   UNL     1     106.140 125.787 143.018  0.00  0.00    +0.000 A 
ATOM      9  C   UNL     1     106.687 126.443 143.424  0.00  0.00    +0.000 A 
ATOM     10  C   UNL     1     107.072 127.130 142.899  0.00  0.00    +0.000 A 
ATOM     11  C   UNL     1     106.909 127.160 141.966  0.00  0.00    +0.000 A 
ATOM     12  C   UNL     1     106.361 126.503 141.560  0.00  0.00    +0.000 A 
ATOM     13  C   UNL     1     107.619 127.787 143.305  0.00  0.00    +0.000 A 
ATOM     14  C   UNL     1     108.004 128.473 142.779  0.00  0.00    +0.000 A 
ATOM     15  C   UNL     1     107.841 128.503 141.847  0.00  0.00    +0.000 A 
ATOM     16  O   UNL     1     107.294 127.847 141.441  0.00  0.00    +0.000 OA
ATOM     17  O   UNL     1     107.746 127.764 144.031  0.00  0.00    +0.000 OA
ATOM     18  O   UNL     1     106.850 126.413 144.356  0.00  0.00    +0.000 OA
BRANCH   7  19
ATOM     19  O   UNL     1     105.480 125.266 141.555  0.00  0.00    +0.000 OA
ATOM     20  C   UNL     1     105.664 124.321 141.788  0.00  0.00    +0.000 C 
ENDBRANCH   7  19
BRANCH  14  21
ATOM     21  O   UNL     1     108.806 129.452 143.314  0.00  0.00    +0.000 OA
BRANCH  21  23
ATOM     22  C   UNL     1     110.407 130.221 144.274  0.00  0.00    +0.000 C 
ATOM     23  C   UNL     1     109.881 129.546 144.042  0.00  0.00    +0.000 C 
ATOM     24  O   UNL     1     110.614 129.644 144.532  0.00  0.00    +0.000 OA
ATOM     25  C   UNL     1     111.239 129.266 145.042  0.00  0.00    +0.000 C 
ATOM     26  C   UNL     1     111.766 129.941 145.274  0.00  0.00    +0.000 C 
ATOM     27  C   UNL     1     111.034 129.844 144.784  0.00  0.00    +0.000 C 
ATOM     28  O   UNL     1     109.703 130.142 143.801  0.00  0.00    +0.000 OA
ATOM     29  O   UNL     1     111.241 130.514 144.795  0.00  0.00    +0.000 OA
ATOM     30  O   UNL     1     112.190 129.477 145.661  0.00  0.00    +0.000 OA
BRANCH  25  31
ATOM     31  C   UNL     1     111.375 128.800 145.229  0.00  0.00    +0.000 C 
ATOM     32  O   UNL     1     111.950 128.651 145.419  0.00  0.00    +0.000 OA
ENDBRANCH  25  31
ENDBRANCH  21  23
ENDBRANCH  14  21
ENDBRANCH   1  15
BRANCH   4  33
ATOM     33  O   UNL     1     109.369 131.543 139.412  0.00  0.00    +0.000 OA
BRANCH  33  35
ATOM     34  O   UNL     1     108.314 131.468 137.694  0.00  0.00    +0.000 OA
ATOM     35  C   UNL     1     109.130 131.317 138.190  0.00  0.00    +0.000 C 
ATOM     36  C   UNL     1     108.837 131.187 137.278  0.00  0.00    +0.000 C 
ATOM     37  C   UNL     1     109.049 130.889 136.378  0.00  0.00    +0.000 C 
ATOM     38  C   UNL     1     108.234 131.040 135.881  0.00  0.00    +0.000 C 
ATOM     39  C   UNL     1     108.525 131.171 136.794  0.00  0.00    +0.000 C 
ATOM     40  O   UNL     1     107.847 131.009 135.234  0.00  0.00    +0.000 OA
ATOM     41  O   UNL     1     109.531 130.656 136.101  0.00  0.00    +0.000 OA
BRANCH  39  42
ATOM     42  C   UNL     1     107.566 131.409 136.449  0.00  0.00    +0.000 C 
ATOM     43  O   UNL     1     107.397 131.178 135.879  0.00  0.00    +0.000 OA
ENDBRANCH  39  42
BRANCH  36  44
ATOM     44  O   UNL     1     109.437 131.076 137.644  0.00  0.00    +0.000 OA
BRANCH  44  45
ATOM     45  C   UNL     1     110.656 131.873 137.691  0.00  0.00    +0.000 C 
ATOM     46  O   UNL     1     110.529 132.706 138.338  0.00  0.00    +0.000 OA
BRANCH  45  47
ATOM     47  C   UNL     1     111.731 131.700 137.109  0.00  0.00    +0.000 C 
ATOM     48  C   UNL     1     112.594 130.973 137.610  0.00  0.00    +0.000 C 
ATOM     49  C   UNL     1     113.668 130.801 137.029  0.00  0.00    +0.000 C 
BRANCH  48  50
ATOM     50  C   UNL     1     112.382 130.421 138.693  0.00  0.00    +0.000 C 
ATOM     51  C   UNL     1     112.987 129.387 138.987  0.00  0.00    +0.000 C 
BRANCH  51  52
ATOM     52  C   UNL     1     112.775 128.834 140.069  0.00  0.00    +0.000 C 
ATOM     53  C   UNL     1     112.520 127.900 139.542  0.00  0.00    +0.000 C 
ATOM     54  C   UNL     1     112.229 127.007 140.115  0.00  0.00    +0.000 C 
ATOM     55  C   UNL     1     112.192 127.046 141.215  0.00  0.00    +0.000 C 
ATOM     56  C   UNL     1     112.447 127.979 141.742  0.00  0.00    +0.000 C 
ATOM     57  C   UNL     1     112.739 128.873 141.168  0.00  0.00    +0.000 C 
ATOM     58  O   UNL     1     113.126 130.008 140.039  0.00  0.00    +0.000 OA
ATOM     59  C   UNL     1     112.160 126.650 139.264  0.00  0.00    +0.000 C 
ATOM     60  O   UNL     1     112.451 127.809 140.502  0.00  0.00    +0.000 OA
ATOM     61  O   UNL     1     111.961 126.304 141.444  0.00  0.00    +0.000 OA
ATOM     62  C   UNL     1     112.912 129.508 141.527  0.00  0.00    +0.000 C 
ATOM     63  C   UNL     1     112.554 127.864 138.509  0.00  0.00    +0.000 C 
ENDBRANCH  51  52
ENDBRANCH  48  50
ENDBRANCH  45  47
ENDBRANCH  44  45
ENDBRANCH  36  44
ENDBRANCH  33  35
ENDBRANCH   4  33
TORSDOF 13
ENDMDL
MODEL 7
REMARK VINA RESULT:     -11.1      2.080      3.957
REMARK  Name = 
REMARK  13 active torsions:
REMARK  status: ('A' for Active; 'I' for Inactive)
REMARK    1  A    between atoms: C_1  and  O_58
REMARK    2  A    between atoms: C_8  and  O_20
REMARK    3  A    between atoms: C_9  and  C_12
REMARK    4  A    between atoms: C_15  and  O_19
REMARK    5  A    between atoms: O_19  and  C_31
REMARK    6  A    between atoms: O_20  and  C_22
REMARK    7  A    between atoms: C_24  and  C_59
REMARK    8  A    between atoms: C_32  and  O_38
REMARK    9  A    between atoms: C_35  and  C_60
REMARK   10  A    between atoms: O_38  and  C_39
REMARK   11  A    between atoms: C_39  and  C_41
REMARK   12  A    between atoms: C_42  and  C_44
REMARK   13  A    between atoms: C_45  and  C_46
REMARK                            x       y       z     vdW  Elec       q    Type
REMARK                         _______ _______ _______ _____ _____    ______ ____
ROOT
ATOM      1  C   UNL     1     108.621 127.217 141.185  0.00  0.00    +0.000 A 
ATOM      2  C   UNL     1     108.963 127.648 140.393  0.00  0.00    +0.000 A 
ATOM      3  C   UNL     1     109.609 127.196 139.838  0.00  0.00    +0.000 A 
ATOM      4  C   UNL     1     109.915 126.312 140.075  0.00  0.00    +0.000 A 
ATOM      5  C   UNL     1     109.573 125.881 140.867  0.00  0.00    +0.000 A 
ATOM      6  C   UNL     1     108.927 126.333 141.423  0.00  0.00    +0.000 A 
ENDROOT
BRANCH   1  15
ATOM      7  C   UNL     1     104.674 128.703 142.289  0.00  0.00    +0.000 A 
ATOM      8  C   UNL     1     104.917 129.192 143.062  0.00  0.00    +0.000 A 
ATOM      9  C   UNL     1     105.821 129.218 143.340  0.00  0.00    +0.000 A 
ATOM     10  C   UNL     1     106.482 128.756 142.846  0.00  0.00    +0.000 A 
ATOM     11  C   UNL     1     106.239 128.266 142.072  0.00  0.00    +0.000 A 
ATOM     12  C   UNL     1     105.335 128.240 141.794  0.00  0.00    +0.000 A 
ATOM     13  C   UNL     1     107.387 128.782 143.124  0.00  0.00    +0.000 A 
ATOM     14  C   UNL     1     108.047 128.320 142.630  0.00  0.00    +0.000 A 
ATOM     15  C   UNL     1     107.804 127.830 141.856  0.00  0.00    +0.000 A 
ATOM     16  O   UNL     1     106.901 127.804 141.578  0.00  0.00    +0.000 OA
ATOM     17  O   UNL     1     107.576 129.163 143.727  0.00  0.00    +0.000 OA
ATOM     18  O   UNL     1     106.063 129.707 144.113  0.00  0.00    +0.000 OA
BRANCH   7  19
ATOM     19  O   UNL     1     103.858 128.582 141.898  0.00  0.00    +0.000 OA
ATOM     20  C   UNL     1     103.428 129.461 141.745  0.00  0.00    +0.000 C 
ENDBRANCH   7  19
BRANCH  14  21
ATOM     21  O   UNL     1     109.374 128.323 142.987  0.00  0.00    +0.000 OA
BRANCH  21  23
ATOM     22  C   UNL     1     111.264 129.029 143.048  0.00  0.00    +0.000 C 
ATOM     23  C   UNL     1     110.475 128.934 142.657  0.00  0.00    +0.000 C 
ATOM     24  O   UNL     1     111.239 129.339 142.460  0.00  0.00    +0.000 OA
ATOM     25  C   UNL     1     111.707 129.835 141.887  0.00  0.00    +0.000 C 
ATOM     26  C   UNL     1     112.497 129.931 142.278  0.00  0.00    +0.000 C 
ATOM     27  C   UNL     1     111.734 129.525 142.475  0.00  0.00    +0.000 C 
ATOM     28  O   UNL     1     110.536 128.635 143.250  0.00  0.00    +0.000 OA
ATOM     29  O   UNL     1     112.206 129.433 142.985  0.00  0.00    +0.000 OA
ATOM     30  O   UNL     1     112.732 130.334 141.706  0.00  0.00    +0.000 OA
BRANCH  25  31
ATOM     31  C   UNL     1     111.656 130.067 141.423  0.00  0.00    +0.000 C 
ATOM     32  O   UNL     1     112.068 130.020 140.959  0.00  0.00    +0.000 OA
ENDBRANCH  25  31
ENDBRANCH  21  23
ENDBRANCH  14  21
ENDBRANCH   1  15
BRANCH   4  33
ATOM     33  O   UNL     1     110.606 125.828 139.481  0.00  0.00    +0.000 OA
BRANCH  33  35
ATOM     34  O   UNL     1     112.318 126.350 140.413  0.00  0.00    +0.000 OA
ATOM     35  C   UNL     1     111.760 126.329 139.624  0.00  0.00    +0.000 C 
ATOM     36  C   UNL     1     112.635 126.673 139.847  0.00  0.00    +0.000 C 
ATOM     37  C   UNL     1     113.436 127.140 139.558  0.00  0.00    +0.000 C 
ATOM     38  C   UNL     1     113.995 127.162 140.346  0.00  0.00    +0.000 C 
ATOM     39  C   UNL     1     113.120 126.817 140.124  0.00  0.00    +0.000 C 
ATOM     40  O   UNL     1     114.638 127.360 140.687  0.00  0.00    +0.000 OA
ATOM     41  O   UNL     1     113.631 127.389 139.044  0.00  0.00    +0.000 OA
BRANCH  39  42
ATOM     42  C   UNL     1     113.556 126.732 141.072  0.00  0.00    +0.000 C 
ATOM     43  O   UNL     1     114.124 127.010 141.156  0.00  0.00    +0.000 OA
ENDBRANCH  39  42
BRANCH  36  44
ATOM     44  O   UNL     1     112.224 126.657 139.267  0.00  0.00    +0.000 OA
BRANCH  44  45
ATOM     45  C   UNL     1     112.197 125.692 138.176  0.00  0.00    +0.000 C 
ATOM     46  O   UNL     1     113.041 125.049 138.228  0.00  0.00    +0.000 OA
BRANCH  45  47
ATOM     47  C   UNL     1     111.367 125.551 137.272  0.00  0.00    +0.000 C 
ATOM     48  C   UNL     1     111.431 126.256 136.261  0.00  0.00    +0.000 C 
ATOM     49  C   UNL     1     110.603 126.115 135.358  0.00  0.00    +0.000 C 
BRANCH  48  50
ATOM     50  C   UNL     1     112.324 127.101 136.154  0.00  0.00    +0.000 C 
ATOM     51  C   UNL     1     112.044 128.302 136.192  0.00  0.00    +0.000 C 
BRANCH  51  52
ATOM     52  C   UNL     1     112.936 129.147 136.084  0.00  0.00    +0.000 C 
ATOM     53  C   UNL     1     112.383 129.817 136.763  0.00  0.00    +0.000 C 
ATOM     54  C   UNL     1     112.796 130.804 137.019  0.00  0.00    +0.000 C 
ATOM     55  C   UNL     1     113.762 131.124 136.597  0.00  0.00    +0.000 C 
ATOM     56  C   UNL     1     114.315 130.454 135.919  0.00  0.00    +0.000 C 
ATOM     57  C   UNL     1     113.901 129.466 135.663  0.00  0.00    +0.000 C 
ATOM     58  O   UNL     1     113.025 128.083 135.484  0.00  0.00    +0.000 OA
ATOM     59  C   UNL     1     112.016 130.851 137.516  0.00  0.00    +0.000 C 
ATOM     60  O   UNL     1     113.214 130.208 136.460  0.00  0.00    +0.000 OA
ATOM     61  O   UNL     1     113.889 131.864 136.900  0.00  0.00    +0.000 OA
ATOM     62  C   UNL     1     114.278 129.010 135.201  0.00  0.00    +0.000 C 
ATOM     63  C   UNL     1     111.476 129.517 137.159  0.00  0.00    +0.000 C 
ENDBRANCH  51  52
ENDBRANCH  48  50
ENDBRANCH  45  47
ENDBRANCH  44  45
ENDBRANCH  36  44
ENDBRANCH  33  35
ENDBRANCH   4  33
TORSDOF 13
ENDMDL
MODEL 8
REMARK VINA RESULT:     -11.0      2.402      7.657
REMARK  Name = 
REMARK  13 active torsions:
REMARK  status: ('A' for Active; 'I' for Inactive)
REMARK    1  A    between atoms: C_1  and  O_58
REMARK    2  A    between atoms: C_8  and  O_20
REMARK    3  A    between atoms: C_9  and  C_12
REMARK    4  A    between atoms: C_15  and  O_19
REMARK    5  A    between atoms: O_19  and  C_31
REMARK    6  A    between atoms: O_20  and  C_22
REMARK    7  A    between atoms: C_24  and  C_59
REMARK    8  A    between atoms: C_32  and  O_38
REMARK    9  A    between atoms: C_35  and  C_60
REMARK   10  A    between atoms: O_38  and  C_39
REMARK   11  A    between atoms: C_39  and  C_41
REMARK   12  A    between atoms: C_42  and  C_44
REMARK   13  A    between atoms: C_45  and  C_46
REMARK                            x       y       z     vdW  Elec       q    Type
REMARK                         _______ _______ _______ _____ _____    ______ ____
ROOT
ATOM      1  C   UNL     1     111.214 129.669 142.955  0.00  0.00    +0.000 A 
ATOM      2  C   UNL     1     110.308 129.340 142.926  0.00  0.00    +0.000 A 
ATOM      3  C   UNL     1     110.125 128.457 142.584  0.00  0.00    +0.000 A 
ATOM      4  C   UNL     1     110.850 127.902 142.269  0.00  0.00    +0.000 A 
ATOM      5  C   UNL     1     111.756 128.231 142.298  0.00  0.00    +0.000 A 
ATOM      6  C   UNL     1     111.939 129.114 142.640  0.00  0.00    +0.000 A 
ENDROOT
BRANCH   1  15
ATOM      7  C   UNL     1     111.724 132.710 146.036  0.00  0.00    +0.000 A 
ATOM      8  C   UNL     1     111.836 133.464 145.475  0.00  0.00    +0.000 A 
ATOM      9  C   UNL     1     111.810 133.362 144.535  0.00  0.00    +0.000 A 
ATOM     10  C   UNL     1     111.672 132.506 144.155  0.00  0.00    +0.000 A 
ATOM     11  C   UNL     1     111.560 131.752 144.717  0.00  0.00    +0.000 A 
ATOM     12  C   UNL     1     111.586 131.854 145.658  0.00  0.00    +0.000 A 
ATOM     13  C   UNL     1     111.646 132.403 143.215  0.00  0.00    +0.000 A 
ATOM     14  C   UNL     1     111.508 131.548 142.836  0.00  0.00    +0.000 A 
ATOM     15  C   UNL     1     111.395 130.794 143.397  0.00  0.00    +0.000 A 
ATOM     16  O   UNL     1     111.422 130.896 144.337  0.00  0.00    +0.000 OA
ATOM     17  O   UNL     1     111.733 132.991 142.777  0.00  0.00    +0.000 OA
ATOM     18  O   UNL     1     111.922 134.116 143.974  0.00  0.00    +0.000 OA
BRANCH   7  19
ATOM     19  O   UNL     1     111.724 132.646 146.947  0.00  0.00    +0.000 OA
ATOM     20  C   UNL     1     111.147 133.353 147.332  0.00  0.00    +0.000 C 
ENDBRANCH   7  19
BRANCH  14  21
ATOM     21  O   UNL     1     111.460 131.340 141.478  0.00  0.00    +0.000 OA
BRANCH  21  23
ATOM     22  C   UNL     1     110.605 131.059 139.672  0.00  0.00    +0.000 C 
ATOM     23  C   UNL     1     110.576 131.089 140.557  0.00  0.00    +0.000 C 
ATOM     24  O   UNL     1     109.997 130.922 139.906  0.00  0.00    +0.000 OA
ATOM     25  C   UNL     1     109.164 130.711 139.669  0.00  0.00    +0.000 C 
ATOM     26  C   UNL     1     109.192 130.681 138.783  0.00  0.00    +0.000 C 
ATOM     27  C   UNL     1     109.772 130.848 139.433  0.00  0.00    +0.000 C 
ATOM     28  O   UNL     1     111.171 131.221 140.287  0.00  0.00    +0.000 OA
ATOM     29  O   UNL     1     110.079 130.896 138.804  0.00  0.00    +0.000 OA
ATOM     30  O   UNL     1     108.475 130.507 138.766  0.00  0.00    +0.000 OA
BRANCH  25  31
ATOM     31  C   UNL     1     108.701 130.608 139.883  0.00  0.00    +0.000 C 
ATOM     32  O   UNL     1     108.376 130.086 139.785  0.00  0.00    +0.000 OA
ENDBRANCH  25  31
ENDBRANCH  21  23
ENDBRANCH  14  21
ENDBRANCH   1  15
BRANCH   4  33
ATOM     33  O   UNL     1     110.654 126.957 141.903  0.00  0.00    +0.000 OA
BRANCH  33  35
ATOM     34  O   UNL     1     110.875 127.162 139.908  0.00  0.00    +0.000 OA
ATOM     35  C   UNL     1     110.320 127.001 140.682  0.00  0.00    +0.000 C 
ATOM     36  C   UNL     1     110.181 127.057 139.728  0.00  0.00    +0.000 C 
ATOM     37  C   UNL     1     109.562 127.012 138.981  0.00  0.00    +0.000 C 
ATOM     38  C   UNL     1     110.117 127.172 138.205  0.00  0.00    +0.000 C 
ATOM     39  C   UNL     1     110.257 127.117 139.160  0.00  0.00    +0.000 C 
ATOM     40  O   UNL     1     110.190 127.247 137.458  0.00  0.00    +0.000 OA
ATOM     41  O   UNL     1     108.971 126.915 138.913  0.00  0.00    +0.000 OA
BRANCH  39  42
ATOM     42  C   UNL     1     111.020 127.307 138.469  0.00  0.00    +0.000 C 
ATOM     43  O   UNL     1     110.843 127.467 137.877  0.00  0.00    +0.000 OA
ENDBRANCH  39  42
BRANCH  36  44
ATOM     44  O   UNL     1     109.773 126.939 140.298  0.00  0.00    +0.000 OA
BRANCH  44  45
ATOM     45  C   UNL     1     109.196 125.692 140.784  0.00  0.00    +0.000 C 
ATOM     46  O   UNL     1     109.915 125.140 141.336  0.00  0.00    +0.000 OA
BRANCH  45  47
ATOM     47  C   UNL     1     108.055 125.244 140.635  0.00  0.00    +0.000 C 
ATOM     48  C   UNL     1     107.155 125.578 141.412  0.00  0.00    +0.000 C 
ATOM     49  C   UNL     1     106.015 125.131 141.263  0.00  0.00    +0.000 C 
BRANCH  48  50
ATOM     50  C   UNL     1     107.397 126.358 142.337  0.00  0.00    +0.000 C 
ATOM     51  C   UNL     1     106.507 127.092 142.773  0.00  0.00    +0.000 C 
BRANCH  51  52
ATOM     52  C   UNL     1     106.748 127.872 143.698  0.00  0.00    +0.000 C 
ATOM     53  C   UNL     1     106.488 128.723 143.048  0.00  0.00    +0.000 C 
ATOM     54  C   UNL     1     106.545 129.750 143.438  0.00  0.00    +0.000 C 
ATOM     55  C   UNL     1     106.862 129.929 144.477  0.00  0.00    +0.000 C 
ATOM     56  C   UNL     1     107.121 129.078 145.127  0.00  0.00    +0.000 C 
ATOM     57  C   UNL     1     107.064 128.050 144.737  0.00  0.00    +0.000 C 
ATOM     58  O   UNL     1     106.878 126.665 143.864  0.00  0.00    +0.000 OA
ATOM     59  C   UNL     1     106.262 129.947 142.579  0.00  0.00    +0.000 C 
ATOM     60  O   UNL     1     106.750 129.007 143.934  0.00  0.00    +0.000 OA
ATOM     61  O   UNL     1     106.839 130.734 144.569  0.00  0.00    +0.000 OA
ATOM     62  C   UNL     1     107.241 127.471 145.179  0.00  0.00    +0.000 C 
ATOM     63  C   UNL     1     106.191 128.556 142.071  0.00  0.00    +0.000 C 
ENDBRANCH  51  52
ENDBRANCH  48  50
ENDBRANCH  45  47
ENDBRANCH  44  45
ENDBRANCH  36  44
ENDBRANCH  33  35
ENDBRANCH   4  33
TORSDOF 13
ENDMDL
MODEL 9
REMARK VINA RESULT:     -10.9      2.221      5.518
REMARK  Name = 
REMARK  13 active torsions:
REMARK  status: ('A' for Active; 'I' for Inactive)
REMARK    1  A    between atoms: C_1  and  O_58
REMARK    2  A    between atoms: C_8  and  O_20
REMARK    3  A    between atoms: C_9  and  C_12
REMARK    4  A    between atoms: C_15  and  O_19
REMARK    5  A    between atoms: O_19  and  C_31
REMARK    6  A    between atoms: O_20  and  C_22
REMARK    7  A    between atoms: C_24  and  C_59
REMARK    8  A    between atoms: C_32  and  O_38
REMARK    9  A    between atoms: C_35  and  C_60
REMARK   10  A    between atoms: O_38  and  C_39
REMARK   11  A    between atoms: C_39  and  C_41
REMARK   12  A    between atoms: C_42  and  C_44
REMARK   13  A    between atoms: C_45  and  C_46
REMARK                            x       y       z     vdW  Elec       q    Type
REMARK                         _______ _______ _______ _____ _____    ______ ____
ROOT
ATOM      1  C   UNL     1     109.083 128.080 140.953  0.00  0.00    +0.000 A 
ATOM      2  C   UNL     1     110.019 128.079 140.720  0.00  0.00    +0.000 A 
ATOM      3  C   UNL     1     110.382 127.364 140.184  0.00  0.00    +0.000 A 
ATOM      4  C   UNL     1     109.809 126.650 139.880  0.00  0.00    +0.000 A 
ATOM      5  C   UNL     1     108.873 126.650 140.114  0.00  0.00    +0.000 A 
ATOM      6  C   UNL     1     108.510 127.365 140.650  0.00  0.00    +0.000 A 
ENDROOT
BRANCH   1  15
ATOM      7  C   UNL     1     107.921 130.126 144.623  0.00  0.00    +0.000 A 
ATOM      8  C   UNL     1     107.664 130.957 144.248  0.00  0.00    +0.000 A 
ATOM      9  C   UNL     1     107.723 131.092 143.314  0.00  0.00    +0.000 A 
ATOM     10  C   UNL     1     108.039 130.397 142.754  0.00  0.00    +0.000 A 
ATOM     11  C   UNL     1     108.295 129.566 143.129  0.00  0.00    +0.000 A 
ATOM     12  C   UNL     1     108.236 129.431 144.064  0.00  0.00    +0.000 A 
ATOM     13  C   UNL     1     108.098 130.532 141.819  0.00  0.00    +0.000 A 
ATOM     14  C   UNL     1     108.413 129.838 141.259  0.00  0.00    +0.000 A 
ATOM     15  C   UNL     1     108.670 129.007 141.635  0.00  0.00    +0.000 A 
ATOM     16  O   UNL     1     108.611 128.871 142.569  0.00  0.00    +0.000 OA
ATOM     17  O   UNL     1     107.898 131.179 141.526  0.00  0.00    +0.000 OA
ATOM     18  O   UNL     1     107.467 131.922 142.939  0.00  0.00    +0.000 OA
BRANCH   7  19
ATOM     19  O   UNL     1     107.922 129.845 145.492  0.00  0.00    +0.000 OA
ATOM     20  C   UNL     1     107.070 130.102 145.927  0.00  0.00    +0.000 C 
ENDBRANCH   7  19
BRANCH  14  21
ATOM     21  O   UNL     1     108.520 129.977 139.897  0.00  0.00    +0.000 OA
BRANCH  21  23
ATOM     22  C   UNL     1     108.854 130.964 138.167  0.00  0.00    +0.000 C 
ATOM     23  C   UNL     1     108.984 130.835 139.035  0.00  0.00    +0.000 C 
ATOM     24  O   UNL     1     109.282 131.404 138.423  0.00  0.00    +0.000 OA
ATOM     25  C   UNL     1     109.799 132.103 138.228  0.00  0.00    +0.000 C 
ATOM     26  C   UNL     1     109.669 132.234 137.360  0.00  0.00    +0.000 C 
ATOM     27  C   UNL     1     109.371 131.664 137.971  0.00  0.00    +0.000 C 
ATOM     28  O   UNL     1     108.560 130.411 138.744  0.00  0.00    +0.000 OA
ATOM     29  O   UNL     1     109.089 131.529 137.342  0.00  0.00    +0.000 OA
ATOM     30  O   UNL     1     110.138 132.803 137.375  0.00  0.00    +0.000 OA
BRANCH  25  31
ATOM     31  C   UNL     1     110.131 132.433 138.458  0.00  0.00    +0.000 C 
ATOM     32  O   UNL     1     110.016 133.038 138.553  0.00  0.00    +0.000 OA
ENDBRANCH  25  31
ENDBRANCH  21  23
ENDBRANCH  14  21
ENDBRANCH   1  15
BRANCH   4  33
ATOM     33  O   UNL     1     110.197 125.885 139.306  0.00  0.00    +0.000 OA
BRANCH  33  35
ATOM     34  O   UNL     1     109.422 126.336 137.499  0.00  0.00    +0.000 OA
ATOM     35  C   UNL     1     110.182 126.184 138.076  0.00  0.00    +0.000 C 
ATOM     36  C   UNL     1     110.051 126.412 137.147  0.00  0.00    +0.000 C 
ATOM     37  C   UNL     1     110.447 126.616 136.284  0.00  0.00    +0.000 C 
ATOM     38  C   UNL     1     109.687 126.768 135.705  0.00  0.00    +0.000 C 
ATOM     39  C   UNL     1     109.817 126.540 136.636  0.00  0.00    +0.000 C 
ATOM     40  O   UNL     1     109.406 126.938 135.026  0.00  0.00    +0.000 OA
ATOM     41  O   UNL     1     111.006 126.661 136.063  0.00  0.00    +0.000 OA
BRANCH  39  42
ATOM     42  C   UNL     1     108.877 126.662 136.192  0.00  0.00    +0.000 C 
ATOM     43  O   UNL     1     108.853 126.652 135.554  0.00  0.00    +0.000 OA
ENDBRANCH  39  42
BRANCH  36  44
ATOM     44  O   UNL     1     110.610 126.300 137.572  0.00  0.00    +0.000 OA
BRANCH  44  45
ATOM     45  C   UNL     1     111.460 125.124 137.695  0.00  0.00    +0.000 C 
ATOM     46  O   UNL     1     111.020 124.415 138.352  0.00  0.00    +0.000 OA
BRANCH  45  47
ATOM     47  C   UNL     1     112.548 124.881 137.163  0.00  0.00    +0.000 C 
ATOM     48  C   UNL     1     113.582 125.378 137.619  0.00  0.00    +0.000 C 
ATOM     49  C   UNL     1     114.668 125.136 137.087  0.00  0.00    +0.000 C 
BRANCH  48  50
ATOM     50  C   UNL     1     113.528 126.117 138.606  0.00  0.00    +0.000 C 
ATOM     51  C   UNL     1     113.694 127.332 138.476  0.00  0.00    +0.000 C 
BRANCH  51  52
ATOM     52  C   UNL     1     113.641 128.071 139.463  0.00  0.00    +0.000 C 
ATOM     53  C   UNL     1     113.270 128.892 138.829  0.00  0.00    +0.000 C 
ATOM     54  C   UNL     1     113.044 129.872 139.274  0.00  0.00    +0.000 C 
ATOM     55  C   UNL     1     113.188 130.034 140.354  0.00  0.00    +0.000 C 
ATOM     56  C   UNL     1     113.558 129.212 140.989  0.00  0.00    +0.000 C 
ATOM     57  C   UNL     1     113.785 128.232 140.542  0.00  0.00    +0.000 C 
ATOM     58  O   UNL     1     114.024 126.913 139.584  0.00  0.00    +0.000 OA
ATOM     59  C   UNL     1     112.825 130.069 138.396  0.00  0.00    +0.000 C 
ATOM     60  O   UNL     1     113.354 129.156 139.755  0.00  0.00    +0.000 OA
ATOM     61  O   UNL     1     112.970 130.804 140.483  0.00  0.00    +0.000 OA
ATOM     62  C   UNL     1     114.037 127.673 140.974  0.00  0.00    +0.000 C 
ATOM     63  C   UNL     1     113.135 128.741 137.814  0.00  0.00    +0.000 C 
ENDBRANCH  51  52
ENDBRANCH  48  50
ENDBRANCH  45  47
ENDBRANCH  44  45
ENDBRANCH  36  44
ENDBRANCH  33  35
ENDBRANCH   4  33
TORSDOF 13
ENDMDL
MODEL 10
REMARK VINA RESULT:     -10.9      3.198      8.064
REMARK  Name = 
REMARK  13 active torsions:
REMARK  status: ('A' for Active; 'I' for Inactive)
REMARK    1  A    between atoms: C_1  and  O_58
REMARK    2  A    between atoms: C_8  and  O_20
REMARK    3  A    between atoms: C_9  and  C_12
REMARK    4  A    between atoms: C_15  and  O_19
REMARK    5  A    between atoms: O_19  and  C_31
REMARK    6  A    between atoms: O_20  and  C_22
REMARK    7  A    between atoms: C_24  and  C_59
REMARK    8  A    between atoms: C_32  and  O_38
REMARK    9  A    between atoms: C_35  and  C_60
REMARK   10  A    between atoms: O_38  and  C_39
REMARK   11  A    between atoms: C_39  and  C_41
REMARK   12  A    between atoms: C_42  and  C_44
REMARK   13  A    between atoms: C_45  and  C_46
REMARK                            x       y       z     vdW  Elec       q    Type
REMARK                         _______ _______ _______ _____ _____    ______ ____
ROOT
ATOM      1  C   UNL     1     110.915 126.927 139.794  0.00  0.00    +0.000 A 
ATOM      2  C   UNL     1     109.981 126.880 139.556  0.00  0.00    +0.000 A 
ATOM      3  C   UNL     1     109.304 127.001 140.232  0.00  0.00    +0.000 A 
ATOM      4  C   UNL     1     109.561 127.170 141.147  0.00  0.00    +0.000 A 
ATOM      5  C   UNL     1     110.494 127.217 141.385  0.00  0.00    +0.000 A 
ATOM      6  C   UNL     1     111.172 127.096 140.708  0.00  0.00    +0.000 A 
ENDROOT
BRANCH   1  15
ATOM      7  C   UNL     1     113.252 124.681 136.878  0.00  0.00    +0.000 A 
ATOM      8  C   UNL     1     113.748 125.399 136.510  0.00  0.00    +0.000 A 
ATOM      9  C   UNL     1     113.617 126.278 136.832  0.00  0.00    +0.000 A 
ATOM     10  C   UNL     1     112.990 126.442 137.522  0.00  0.00    +0.000 A 
ATOM     11  C   UNL     1     112.494 125.724 137.890  0.00  0.00    +0.000 A 
ATOM     12  C   UNL     1     112.625 124.843 137.568  0.00  0.00    +0.000 A 
ATOM     13  C   UNL     1     112.858 127.322 137.844  0.00  0.00    +0.000 A 
ATOM     14  C   UNL     1     112.231 127.485 138.533  0.00  0.00    +0.000 A 
ATOM     15  C   UNL     1     111.735 126.767 138.902  0.00  0.00    +0.000 A 
ATOM     16  O   UNL     1     111.867 125.887 138.580  0.00  0.00    +0.000 OA
ATOM     17  O   UNL     1     113.244 127.881 137.557  0.00  0.00    +0.000 OA
ATOM     18  O   UNL     1     114.112 126.995 136.464  0.00  0.00    +0.000 OA
BRANCH   7  19
ATOM     19  O   UNL     1     113.265 123.790 136.679  0.00  0.00    +0.000 OA
ATOM     20  C   UNL     1     112.376 123.510 136.342  0.00  0.00    +0.000 C 
ENDBRANCH   7  19
BRANCH  14  21
ATOM     21  O   UNL     1     111.999 128.741 139.039  0.00  0.00    +0.000 OA
BRANCH  21  23
ATOM     22  C   UNL     1     111.110 130.551 139.127  0.00  0.00    +0.000 C 
ATOM     23  C   UNL     1     111.107 129.683 138.947  0.00  0.00    +0.000 C 
ATOM     24  O   UNL     1     110.521 130.348 138.896  0.00  0.00    +0.000 OA
ATOM     25  C   UNL     1     109.697 130.616 138.686  0.00  0.00    +0.000 C 
ATOM     26  C   UNL     1     109.700 131.485 138.866  0.00  0.00    +0.000 C 
ATOM     27  C   UNL     1     110.287 130.821 138.918  0.00  0.00    +0.000 C 
ATOM     28  O   UNL     1     111.683 129.923 139.182  0.00  0.00    +0.000 OA
ATOM     29  O   UNL     1     110.571 131.425 139.134  0.00  0.00    +0.000 OA
ATOM     30  O   UNL     1     108.997 131.533 138.650  0.00  0.00    +0.000 OA
BRANCH  25  31
ATOM     31  C   UNL     1     109.249 130.426 138.502  0.00  0.00    +0.000 C 
ATOM     32  O   UNL     1     108.763 130.776 138.330  0.00  0.00    +0.000 OA
ENDBRANCH  25  31
ENDBRANCH  21  23
ENDBRANCH  14  21
ENDBRANCH   1  15
BRANCH   4  33
ATOM     33  O   UNL     1     108.837 127.300 141.871  0.00  0.00    +0.000 OA
BRANCH  33  35
ATOM     34  O   UNL     1     108.579 129.290 142.081  0.00  0.00    +0.000 OA
ATOM     35  C   UNL     1     108.277 128.430 141.759  0.00  0.00    +0.000 C 
ATOM     36  C   UNL     1     107.944 129.337 141.734  0.00  0.00    +0.000 C 
ATOM     37  C   UNL     1     107.247 129.952 141.453  0.00  0.00    +0.000 C 
ATOM     38  C   UNL     1     107.548 130.813 141.776  0.00  0.00    +0.000 C 
ATOM     39  C   UNL     1     107.882 129.906 141.801  0.00  0.00    +0.000 C 
ATOM     40  O   UNL     1     107.443 131.556 141.850  0.00  0.00    +0.000 OA
ATOM     41  O   UNL     1     106.726 129.909 141.154  0.00  0.00    +0.000 OA
BRANCH  39  42
ATOM     42  C   UNL     1     108.380 130.722 142.226  0.00  0.00    +0.000 C 
ATOM     43  O   UNL     1     108.173 131.304 142.067  0.00  0.00    +0.000 OA
ENDBRANCH  39  42
BRANCH  36  44
ATOM     44  O   UNL     1     107.723 128.704 141.497  0.00  0.00    +0.000 OA
BRANCH  44  45
ATOM     45  C   UNL     1     106.799 127.756 142.107  0.00  0.00    +0.000 C 
ATOM     46  O   UNL     1     106.335 127.159 141.362  0.00  0.00    +0.000 OA
BRANCH  45  47
ATOM     47  C   UNL     1     106.521 127.586 143.298  0.00  0.00    +0.000 C 
ATOM     48  C   UNL     1     105.438 127.980 143.741  0.00  0.00    +0.000 C 
ATOM     49  C   UNL     1     105.160 127.810 144.930  0.00  0.00    +0.000 C 
BRANCH  48  50
ATOM     50  C   UNL     1     104.634 128.543 142.993  0.00  0.00    +0.000 C 
ATOM     51  C   UNL     1     104.050 129.562 143.370  0.00  0.00    +0.000 C 
BRANCH  51  52
ATOM     52  C   UNL     1     103.246 130.125 142.622  0.00  0.00    +0.000 C 
ATOM     53  C   UNL     1     103.040 130.872 143.406  0.00  0.00    +0.000 C 
ATOM     54  C   UNL     1     102.317 131.679 143.219  0.00  0.00    +0.000 C 
ATOM     55  C   UNL     1     101.798 131.742 142.250  0.00  0.00    +0.000 C 
ATOM     56  C   UNL     1     102.003 130.995 141.467  0.00  0.00    +0.000 C 
ATOM     57  C   UNL     1     102.727 130.186 141.654  0.00  0.00    +0.000 C 
ATOM     58  O   UNL     1     103.843 129.126 142.239  0.00  0.00    +0.000 OA
ATOM     59  C   UNL     1     102.556 131.909 144.084  0.00  0.00    +0.000 C 
ATOM     60  O   UNL     1     102.525 131.033 142.604  0.00  0.00    +0.000 OA
ATOM     61  O   UNL     1     101.317 132.392 142.310  0.00  0.00    +0.000 OA
ATOM     62  C   UNL     1     102.867 129.678 141.120  0.00  0.00    +0.000 C 
ATOM     63  C   UNL     1     103.528 130.813 144.316  0.00  0.00    +0.000 C 
ENDBRANCH  51  52
ENDBRANCH  48  50
ENDBRANCH  45  47
ENDBRANCH  44  45
ENDBRANCH  36  44
ENDBRANCH  33  35
ENDBRANCH   4  33
TORSDOF 13
ENDMDL
