MODEL 1
REMARK VINA RESULT:      -9.1      0.000      0.000
REMARK  Name = 44259709
REMARK  2 active torsions:
REMARK  status: ('A' for Active; 'I' for Inactive)
REMARK    1  A    between atoms: O_2  and  C_13
REMARK    2  A    between atoms: C_10  and  C_12
REMARK                            x       y       z     vdW  Elec       q    Type
REMARK                         _______ _______ _______ _____ _____    ______ ____
ROOT
ATOM      1  O   UNL     1     105.579 124.415 147.790  0.00  0.00    +0.000 OA
ATOM      2  O   UNL     1     108.085 125.600 146.975  0.00  0.00    +0.000 OA
ATOM      3  O   UNL     1     106.939 125.605 146.099  0.00  0.00    +0.000 OA
ATOM      4  O   UNL     1     107.851 124.367 149.612  0.00  0.00    +0.000 OA
ATOM      5  C   UNL     1     106.819 125.001 147.388  0.00  0.00    +0.000 A 
ATOM      6  C   UNL     1     105.245 124.623 147.065  0.00  0.00    +0.000 A 
ATOM      7  C   UNL     1     106.365 124.604 147.952  0.00  0.00    +0.000 A 
ATOM      8  C   UNL     1     105.699 125.020 146.501  0.00  0.00    +0.000 A 
ATOM      9  C   UNL     1     106.486 125.209 146.663  0.00  0.00    +0.000 A 
ATOM     10  C   UNL     1     107.640 125.204 147.544  0.00  0.00    +0.000 A 
ATOM     11  C   UNL     1     106.701 124.382 148.711  0.00  0.00    +0.000 A 
ATOM     12  C   UNL     1     107.520 124.576 148.886  0.00  0.00    +0.000 A 
ATOM     13  C   UNL     1     107.992 124.990 148.298  0.00  0.00    +0.000 A 
ENDROOT
BRANCH   6  17
ATOM     14  O   UNL     1     102.458 125.199 147.322  0.00  0.00    +0.000 OA
ATOM     15  O   UNL     1     103.313 122.913 145.835  0.00  0.00    +0.000 OA
ATOM     16  O   UNL     1     102.099 123.867 146.416  0.00  0.00    +0.000 OA
ATOM     17  C   UNL     1     104.459 124.434 146.903  0.00  0.00    +0.000 A 
ATOM     18  C   UNL     1     104.280 123.769 146.450  0.00  0.00    +0.000 A 
ATOM     19  C   UNL     1     103.852 124.911 147.193  0.00  0.00    +0.000 A 
ATOM     20  C   UNL     1     103.066 124.722 147.031  0.00  0.00    +0.000 A 
ATOM     21  C   UNL     1     103.493 123.579 146.288  0.00  0.00    +0.000 A 
ATOM     22  C   UNL     1     102.886 124.056 146.579  0.00  0.00    +0.000 A 
ENDBRANCH   6  17
BRANCH   8  23
ATOM     23  O   UNL     1     105.366 125.228 145.775  0.00  0.00    +0.000 OA
ATOM     24  C   UNL     1     105.682 125.853 145.340  0.00  0.00    +0.000 C 
ENDBRANCH   8  23
TORSDOF 2
ENDMDL
MODEL 2
REMARK VINA RESULT:      -8.5      0.851      4.249
REMARK  Name = 44259709
REMARK  2 active torsions:
REMARK  status: ('A' for Active; 'I' for Inactive)
REMARK    1  A    between atoms: O_2  and  C_13
REMARK    2  A    between atoms: C_10  and  C_12
REMARK                            x       y       z     vdW  Elec       q    Type
REMARK                         _______ _______ _______ _____ _____    ______ ____
ROOT
ATOM      1  O   UNL     1     104.847 124.195 146.825  0.00  0.00    +0.000 OA
ATOM      2  O   UNL     1     102.117 124.910 147.442  0.00  0.00    +0.000 OA
ATOM      3  O   UNL     1     103.225 125.609 148.047  0.00  0.00    +0.000 OA
ATOM      4  O   UNL     1     102.660 122.740 145.566  0.00  0.00    +0.000 OA
ATOM      5  C   UNL     1     103.497 124.548 147.129  0.00  0.00    +0.000 A 
ATOM      6  C   UNL     1     105.117 124.784 147.335  0.00  0.00    +0.000 A 
ATOM      7  C   UNL     1     104.037 124.076 146.722  0.00  0.00    +0.000 A 
ATOM      8  C   UNL     1     104.576 125.256 147.742  0.00  0.00    +0.000 A 
ATOM      9  C   UNL     1     103.765 125.138 147.639  0.00  0.00    +0.000 A 
ATOM     10  C   UNL     1     102.650 124.435 147.031  0.00  0.00    +0.000 A 
ATOM     11  C   UNL     1     103.769 123.458 146.188  0.00  0.00    +0.000 A 
ATOM     12  C   UNL     1     102.927 123.331 146.077  0.00  0.00    +0.000 A 
ATOM     13  C   UNL     1     102.363 123.822 146.501  0.00  0.00    +0.000 A 
ENDROOT
BRANCH   6  17
ATOM     14  O   UNL     1     107.584 125.923 146.450  0.00  0.00    +0.000 OA
ATOM     15  O   UNL     1     107.509 124.356 148.838  0.00  0.00    +0.000 OA
ATOM     16  O   UNL     1     108.357 125.258 147.747  0.00  0.00    +0.000 OA
ATOM     17  C   UNL     1     105.926 124.903 147.438  0.00  0.00    +0.000 A 
ATOM     18  C   UNL     1     106.312 124.570 148.086  0.00  0.00    +0.000 A 
ATOM     19  C   UNL     1     106.350 125.354 146.892  0.00  0.00    +0.000 A 
ATOM     20  C   UNL     1     107.160 125.472 146.995  0.00  0.00    +0.000 A 
ATOM     21  C   UNL     1     107.123 124.688 148.190  0.00  0.00    +0.000 A 
ATOM     22  C   UNL     1     107.546 125.139 147.644  0.00  0.00    +0.000 A 
ENDBRANCH   6  17
BRANCH   8  23
ATOM     23  O   UNL     1     104.845 125.846 148.252  0.00  0.00    +0.000 OA
ATOM     24  C   UNL     1     104.361 126.490 148.430  0.00  0.00    +0.000 C 
ENDBRANCH   8  23
TORSDOF 2
ENDMDL
MODEL 3
REMARK VINA RESULT:      -8.2     12.265     13.635
REMARK  Name = 44259709
REMARK  2 active torsions:
REMARK  status: ('A' for Active; 'I' for Inactive)
REMARK    1  A    between atoms: O_2  and  C_13
REMARK    2  A    between atoms: C_10  and  C_12
REMARK                            x       y       z     vdW  Elec       q    Type
REMARK                         _______ _______ _______ _____ _____    ______ ____
ROOT
ATOM      1  O   UNL     1     111.876 125.935 136.080  0.00  0.00    +0.000 OA
ATOM      2  O   UNL     1     110.646 128.168 134.721  0.00  0.00    +0.000 OA
ATOM      3  O   UNL     1     111.876 128.330 135.457  0.00  0.00    +0.000 OA
ATOM      4  O   UNL     1     109.393 125.533 134.612  0.00  0.00    +0.000 OA
ATOM      5  C   UNL     1     111.267 127.038 135.407  0.00  0.00    +0.000 A 
ATOM      6  C   UNL     1     112.486 126.428 136.338  0.00  0.00    +0.000 A 
ATOM      7  C   UNL     1     111.267 126.240 135.615  0.00  0.00    +0.000 A 
ATOM      8  C   UNL     1     112.486 127.226 136.130  0.00  0.00    +0.000 A 
ATOM      9  C   UNL     1     111.876 127.532 135.665  0.00  0.00    +0.000 A 
ATOM     10  C   UNL     1     110.638 127.369 134.923  0.00  0.00    +0.000 A 
ATOM     11  C   UNL     1     110.638 125.716 135.353  0.00  0.00    +0.000 A 
ATOM     12  C   UNL     1     110.001 126.028 134.868  0.00  0.00    +0.000 A 
ATOM     13  C   UNL     1     110.001 126.860 134.652  0.00  0.00    +0.000 A 
ENDROOT
BRANCH   6  17
ATOM     14  O   UNL     1     114.990 125.067 136.556  0.00  0.00    +0.000 OA
ATOM     15  O   UNL     1     113.638 125.959 138.911  0.00  0.00    +0.000 OA
ATOM     16  O   UNL     1     114.923 125.208 138.198  0.00  0.00    +0.000 OA
ATOM     17  C   UNL     1     113.095 126.123 136.802  0.00  0.00    +0.000 A 
ATOM     18  C   UNL     1     113.061 126.193 137.624  0.00  0.00    +0.000 A 
ATOM     19  C   UNL     1     113.738 125.748 136.447  0.00  0.00    +0.000 A 
ATOM     20  C   UNL     1     114.347 125.443 136.911  0.00  0.00    +0.000 A 
ATOM     21  C   UNL     1     113.671 125.888 138.089  0.00  0.00    +0.000 A 
ATOM     22  C   UNL     1     114.313 125.513 137.733  0.00  0.00    +0.000 A 
ENDBRANCH   6  17
BRANCH   8  23
ATOM     23  O   UNL     1     113.094 127.720 136.387  0.00  0.00    +0.000 OA
ATOM     24  C   UNL     1     113.253 128.423 135.986  0.00  0.00    +0.000 C 
ENDBRANCH   8  23
TORSDOF 2
ENDMDL
MODEL 4
REMARK VINA RESULT:      -8.2     12.547     13.245
REMARK  Name = 44259709
REMARK  2 active torsions:
REMARK  status: ('A' for Active; 'I' for Inactive)
REMARK    1  A    between atoms: O_2  and  C_13
REMARK    2  A    between atoms: C_10  and  C_12
REMARK                            x       y       z     vdW  Elec       q    Type
REMARK                         _______ _______ _______ _____ _____    ______ ____
ROOT
ATOM      1  O   UNL     1     112.909 126.580 136.567  0.00  0.00    +0.000 OA
ATOM      2  O   UNL     1     112.317 123.757 136.415  0.00  0.00    +0.000 OA
ATOM      3  O   UNL     1     111.350 124.743 136.001  0.00  0.00    +0.000 OA
ATOM      4  O   UNL     1     114.911 124.645 137.421  0.00  0.00    +0.000 OA
ATOM      5  C   UNL     1     112.617 125.184 136.492  0.00  0.00    +0.000 A 
ATOM      6  C   UNL     1     112.161 126.753 136.264  0.00  0.00    +0.000 A 
ATOM      7  C   UNL     1     113.137 125.796 136.681  0.00  0.00    +0.000 A 
ATOM      8  C   UNL     1     111.641 126.141 136.075  0.00  0.00    +0.000 A 
ATOM      9  C   UNL     1     111.869 125.355 136.189  0.00  0.00    +0.000 A 
ATOM     10  C   UNL     1     112.843 124.362 136.606  0.00  0.00    +0.000 A 
ATOM     11  C   UNL     1     113.919 125.629 136.997  0.00  0.00    +0.000 A 
ATOM     12  C   UNL     1     114.162 124.814 137.118  0.00  0.00    +0.000 A 
ATOM     13  C   UNL     1     113.620 124.176 136.921  0.00  0.00    +0.000 A 
ENDROOT
BRANCH   6  17
ATOM     14  O   UNL     1     112.046 129.082 134.612  0.00  0.00    +0.000 OA
ATOM     15  O   UNL     1     110.905 129.130 137.232  0.00  0.00    +0.000 OA
ATOM     16  O   UNL     1     111.247 129.891 135.808  0.00  0.00    +0.000 OA
ATOM     17  C   UNL     1     111.933 127.537 136.150  0.00  0.00    +0.000 A 
ATOM     18  C   UNL     1     111.533 127.941 136.748  0.00  0.00    +0.000 A 
ATOM     19  C   UNL     1     112.103 127.918 135.438  0.00  0.00    +0.000 A 
ATOM     20  C   UNL     1     111.875 128.702 135.324  0.00  0.00    +0.000 A 
ATOM     21  C   UNL     1     111.304 128.726 136.634  0.00  0.00    +0.000 A 
ATOM     22  C   UNL     1     111.476 129.106 135.922  0.00  0.00    +0.000 A 
ENDBRANCH   6  17
BRANCH   8  23
ATOM     23  O   UNL     1     110.893 126.312 135.773  0.00  0.00    +0.000 OA
ATOM     24  C   UNL     1     110.470 125.733 135.365  0.00  0.00    +0.000 C 
ENDBRANCH   8  23
TORSDOF 2
ENDMDL
MODEL 5
REMARK VINA RESULT:      -8.1      1.341      4.299
REMARK  Name = 44259709
REMARK  2 active torsions:
REMARK  status: ('A' for Active; 'I' for Inactive)
REMARK    1  A    between atoms: O_2  and  C_13
REMARK    2  A    between atoms: C_10  and  C_12
REMARK                            x       y       z     vdW  Elec       q    Type
REMARK                         _______ _______ _______ _____ _____    ______ ____
ROOT
ATOM      1  O   UNL     1     103.567 124.886 147.050  0.00  0.00    +0.000 OA
ATOM      2  O   UNL     1     101.578 122.812 146.763  0.00  0.00    +0.000 OA
ATOM      3  O   UNL     1     102.835 122.739 146.060  0.00  0.00    +0.000 OA
ATOM      4  O   UNL     1     101.050 125.099 148.499  0.00  0.00    +0.000 OA
ATOM      5  C   UNL     1     102.583 123.861 146.909  0.00  0.00    +0.000 A 
ATOM      6  C   UNL     1     104.065 124.481 146.532  0.00  0.00    +0.000 A 
ATOM      7  C   UNL     1     102.826 124.577 147.239  0.00  0.00    +0.000 A 
ATOM      8  C   UNL     1     103.821 123.765 146.202  0.00  0.00    +0.000 A 
ATOM      9  C   UNL     1     103.079 123.455 146.390  0.00  0.00    +0.000 A 
ATOM     10  C   UNL     1     101.813 123.527 147.097  0.00  0.00    +0.000 A 
ATOM     11  C   UNL     1     102.317 125.009 147.780  0.00  0.00    +0.000 A 
ATOM     12  C   UNL     1     101.545 124.691 147.980  0.00  0.00    +0.000 A 
ATOM     13  C   UNL     1     101.291 123.945 147.636  0.00  0.00    +0.000 A 
ENDROOT
BRANCH   6  17
ATOM     14  O   UNL     1     106.855 124.741 147.093  0.00  0.00    +0.000 OA
ATOM     15  O   UNL     1     105.720 126.080 144.837  0.00  0.00    +0.000 OA
ATOM     16  O   UNL     1     107.028 125.721 145.776  0.00  0.00    +0.000 OA
ATOM     17  C   UNL     1     104.805 124.791 146.343  0.00  0.00    +0.000 A 
ATOM     18  C   UNL     1     104.892 125.280 145.685  0.00  0.00    +0.000 A 
ATOM     19  C   UNL     1     105.460 124.611 146.812  0.00  0.00    +0.000 A 
ATOM     20  C   UNL     1     106.200 124.921 146.624  0.00  0.00    +0.000 A 
ATOM     21  C   UNL     1     105.633 125.590 145.496  0.00  0.00    +0.000 A 
ATOM     22  C   UNL     1     106.287 125.410 145.965  0.00  0.00    +0.000 A 
ENDBRANCH   6  17
BRANCH   8  23
ATOM     23  O   UNL     1     104.317 123.359 145.683  0.00  0.00    +0.000 OA
ATOM     24  C   UNL     1     104.001 122.814 145.151  0.00  0.00    +0.000 C 
ENDBRANCH   8  23
TORSDOF 2
ENDMDL
MODEL 6
REMARK VINA RESULT:      -8.1     12.117     13.430
REMARK  Name = 44259709
REMARK  2 active torsions:
REMARK  status: ('A' for Active; 'I' for Inactive)
REMARK    1  A    between atoms: O_2  and  C_13
REMARK    2  A    between atoms: C_10  and  C_12
REMARK                            x       y       z     vdW  Elec       q    Type
REMARK                         _______ _______ _______ _____ _____    ______ ____
ROOT
ATOM      1  O   UNL     1     112.163 126.717 136.177  0.00  0.00    +0.000 OA
ATOM      2  O   UNL     1     109.763 125.747 134.895  0.00  0.00    +0.000 OA
ATOM      3  O   UNL     1     110.596 124.867 135.678  0.00  0.00    +0.000 OA
ATOM      4  O   UNL     1     110.529 128.550 134.612  0.00  0.00    +0.000 OA
ATOM      5  C   UNL     1     110.976 126.238 135.543  0.00  0.00    +0.000 A 
ATOM      6  C   UNL     1     112.306 125.962 136.480  0.00  0.00    +0.000 A 
ATOM      7  C   UNL     1     111.498 126.855 135.709  0.00  0.00    +0.000 A 
ATOM      8  C   UNL     1     111.784 125.346 136.313  0.00  0.00    +0.000 A 
ATOM      9  C   UNL     1     111.118 125.484 135.845  0.00  0.00    +0.000 A 
ATOM     10  C   UNL     1     110.279 126.369 135.056  0.00  0.00    +0.000 A 
ATOM     11  C   UNL     1     111.360 127.645 135.401  0.00  0.00    +0.000 A 
ATOM     12  C   UNL     1     110.669 127.795 134.913  0.00  0.00    +0.000 A 
ATOM     13  C   UNL     1     110.125 127.152 134.739  0.00  0.00    +0.000 A 
ENDROOT
BRANCH   6  17
ATOM     14  O   UNL     1     114.991 125.020 136.750  0.00  0.00    +0.000 OA
ATOM     15  O   UNL     1     113.612 126.077 139.019  0.00  0.00    +0.000 OA
ATOM     16  O   UNL     1     114.966 125.411 138.353  0.00  0.00    +0.000 OA
ATOM     17  C   UNL     1     112.971 125.825 136.947  0.00  0.00    +0.000 A 
ATOM     18  C   UNL     1     112.958 126.020 137.749  0.00  0.00    +0.000 A 
ATOM     19  C   UNL     1     113.648 125.491 136.615  0.00  0.00    +0.000 A 
ATOM     20  C   UNL     1     114.313 125.353 137.083  0.00  0.00    +0.000 A 
ATOM     21  C   UNL     1     113.624 125.882 138.218  0.00  0.00    +0.000 A 
ATOM     22  C   UNL     1     114.301 125.549 137.884  0.00  0.00    +0.000 A 
ENDBRANCH   6  17
BRANCH   8  23
ATOM     23  O   UNL     1     111.926 124.591 136.615  0.00  0.00    +0.000 OA
ATOM     24  C   UNL     1     111.608 123.930 136.238  0.00  0.00    +0.000 C 
ENDBRANCH   8  23
TORSDOF 2
ENDMDL
MODEL 7
REMARK VINA RESULT:      -8.1      1.175      2.896
REMARK  Name = 44259709
REMARK  2 active torsions:
REMARK  status: ('A' for Active; 'I' for Inactive)
REMARK    1  A    between atoms: O_2  and  C_13
REMARK    2  A    between atoms: C_10  and  C_12
REMARK                            x       y       z     vdW  Elec       q    Type
REMARK                         _______ _______ _______ _____ _____    ______ ____
ROOT
ATOM      1  O   UNL     1     106.693 125.182 146.867  0.00  0.00    +0.000 OA
ATOM      2  O   UNL     1     105.436 124.360 149.334  0.00  0.00    +0.000 OA
ATOM      3  O   UNL     1     104.650 124.669 148.165  0.00  0.00    +0.000 OA
ATOM      4  O   UNL     1     108.344 124.573 149.188  0.00  0.00    +0.000 OA
ATOM      5  C   UNL     1     106.073 124.775 148.087  0.00  0.00    +0.000 A 
ATOM      6  C   UNL     1     105.952 125.247 146.511  0.00  0.00    +0.000 A 
ATOM      7  C   UNL     1     106.754 124.946 147.655  0.00  0.00    +0.000 A 
ATOM      8  C   UNL     1     105.271 125.076 146.944  0.00  0.00    +0.000 A 
ATOM      9  C   UNL     1     105.331 124.840 147.733  0.00  0.00    +0.000 A 
ATOM     10  C   UNL     1     106.122 124.528 148.910  0.00  0.00    +0.000 A 
ATOM     11  C   UNL     1     107.532 124.882 148.014  0.00  0.00    +0.000 A 
ATOM     12  C   UNL     1     107.601 124.637 148.835  0.00  0.00    +0.000 A 
ATOM     13  C   UNL     1     106.891 124.459 149.286  0.00  0.00    +0.000 A 
ENDROOT
BRANCH   6  17
ATOM     14  O   UNL     1     105.964 124.603 143.726  0.00  0.00    +0.000 OA
ATOM     15  O   UNL     1     105.576 127.307 144.566  0.00  0.00    +0.000 OA
ATOM     16  O   UNL     1     105.710 126.192 143.358  0.00  0.00    +0.000 OA
ATOM     17  C   UNL     1     105.892 125.483 145.723  0.00  0.00    +0.000 A 
ATOM     18  C   UNL     1     105.764 126.277 145.539  0.00  0.00    +0.000 A 
ATOM     19  C   UNL     1     105.958 124.925 145.119  0.00  0.00    +0.000 A 
ATOM     20  C   UNL     1     105.898 125.161 144.331  0.00  0.00    +0.000 A 
ATOM     21  C   UNL     1     105.704 126.513 144.750  0.00  0.00    +0.000 A 
ATOM     22  C   UNL     1     105.770 125.955 144.147  0.00  0.00    +0.000 A 
ENDBRANCH   6  17
BRANCH   8  23
ATOM     23  O   UNL     1     104.529 125.141 146.589  0.00  0.00    +0.000 OA
ATOM     24  C   UNL     1     103.891 124.707 146.882  0.00  0.00    +0.000 C 
ENDBRANCH   8  23
TORSDOF 2
ENDMDL
MODEL 8
REMARK VINA RESULT:      -8.1      1.402      4.226
REMARK  Name = 44259709
REMARK  2 active torsions:
REMARK  status: ('A' for Active; 'I' for Inactive)
REMARK    1  A    between atoms: O_2  and  C_13
REMARK    2  A    between atoms: C_10  and  C_12
REMARK                            x       y       z     vdW  Elec       q    Type
REMARK                         _______ _______ _______ _____ _____    ______ ____
ROOT
ATOM      1  O   UNL     1     103.519 124.035 147.233  0.00  0.00    +0.000 OA
ATOM      2  O   UNL     1     102.789 122.761 144.746  0.00  0.00    +0.000 OA
ATOM      3  O   UNL     1     104.067 123.410 144.902  0.00  0.00    +0.000 OA
ATOM      4  O   UNL     1     100.921 122.744 146.990  0.00  0.00    +0.000 OA
ATOM      5  C   UNL     1     103.157 123.405 146.004  0.00  0.00    +0.000 A 
ATOM      6  C   UNL     1     104.248 124.249 146.910  0.00  0.00    +0.000 A 
ATOM      7  C   UNL     1     102.974 123.613 146.781  0.00  0.00    +0.000 A 
ATOM      8  C   UNL     1     104.430 124.041 146.133  0.00  0.00    +0.000 A 
ATOM      9  C   UNL     1     103.885 123.618 145.679  0.00  0.00    +0.000 A 
ATOM     10  C   UNL     1     102.598 122.964 145.521  0.00  0.00    +0.000 A 
ATOM     11  C   UNL     1     102.219 123.396 147.130  0.00  0.00    +0.000 A 
ATOM     12  C   UNL     1     101.648 122.956 146.663  0.00  0.00    +0.000 A 
ATOM     13  C   UNL     1     101.838 122.739 145.853  0.00  0.00    +0.000 A 
ENDROOT
BRANCH   6  17
ATOM     14  O   UNL     1     106.515 124.293 148.648  0.00  0.00    +0.000 OA
ATOM     15  O   UNL     1     105.251 126.741 147.886  0.00  0.00    +0.000 OA
ATOM     16  O   UNL     1     106.429 125.940 148.720  0.00  0.00    +0.000 OA
ATOM     17  C   UNL     1     104.792 124.671 147.362  0.00  0.00    +0.000 A 
ATOM     18  C   UNL     1     104.749 125.495 147.398  0.00  0.00    +0.000 A 
ATOM     19  C   UNL     1     105.381 124.271 147.779  0.00  0.00    +0.000 A 
ATOM     20  C   UNL     1     105.926 124.693 148.231  0.00  0.00    +0.000 A 
ATOM     21  C   UNL     1     105.295 125.918 147.850  0.00  0.00    +0.000 A 
ATOM     22  C   UNL     1     105.883 125.517 148.267  0.00  0.00    +0.000 A 
ENDBRANCH   6  17
BRANCH   8  23
ATOM     23  O   UNL     1     105.158 124.254 145.808  0.00  0.00    +0.000 OA
ATOM     24  C   UNL     1     105.236 124.342 144.991  0.00  0.00    +0.000 C 
ENDBRANCH   8  23
TORSDOF 2
ENDMDL
MODEL 9
REMARK VINA RESULT:      -7.9     11.844     13.732
REMARK  Name = 44259709
REMARK  2 active torsions:
REMARK  status: ('A' for Active; 'I' for Inactive)
REMARK    1  A    between atoms: O_2  and  C_13
REMARK    2  A    between atoms: C_10  and  C_12
REMARK                            x       y       z     vdW  Elec       q    Type
REMARK                         _______ _______ _______ _____ _____    ______ ____
ROOT
ATOM      1  O   UNL     1     113.820 127.419 136.109  0.00  0.00    +0.000 OA
ATOM      2  O   UNL     1     113.187 129.979 137.289  0.00  0.00    +0.000 OA
ATOM      3  O   UNL     1     112.827 128.747 137.947  0.00  0.00    +0.000 OA
ATOM      4  O   UNL     1     114.577 129.866 134.724  0.00  0.00    +0.000 OA
ATOM      5  C   UNL     1     113.507 128.686 136.692  0.00  0.00    +0.000 A 
ATOM      6  C   UNL     1     113.471 127.037 136.752  0.00  0.00    +0.000 A 
ATOM      7  C   UNL     1     113.838 128.243 136.079  0.00  0.00    +0.000 A 
ATOM      8  C   UNL     1     113.140 127.479 137.365  0.00  0.00    +0.000 A 
ATOM      9  C   UNL     1     113.158 128.304 137.335  0.00  0.00    +0.000 A 
ATOM     10  C   UNL     1     113.520 129.545 136.673  0.00  0.00    +0.000 A 
ATOM     11  C   UNL     1     114.205 128.629 135.404  0.00  0.00    +0.000 A 
ATOM     12  C   UNL     1     114.227 129.487 135.368  0.00  0.00    +0.000 A 
ATOM     13  C   UNL     1     113.882 129.948 136.006  0.00  0.00    +0.000 A 
ENDROOT
BRANCH   6  17
ATOM     14  O   UNL     1     112.115 124.571 136.252  0.00  0.00    +0.000 OA
ATOM     15  O   UNL     1     114.717 124.557 137.433  0.00  0.00    +0.000 OA
ATOM     16  O   UNL     1     113.398 123.740 136.873  0.00  0.00    +0.000 OA
ATOM     17  C   UNL     1     113.452 126.213 136.782  0.00  0.00    +0.000 A 
ATOM     18  C   UNL     1     114.094 125.798 137.093  0.00  0.00    +0.000 A 
ATOM     19  C   UNL     1     112.793 125.804 136.502  0.00  0.00    +0.000 A 
ATOM     20  C   UNL     1     112.775 124.980 136.532  0.00  0.00    +0.000 A 
ATOM     21  C   UNL     1     114.076 124.973 137.123  0.00  0.00    +0.000 A 
ATOM     22  C   UNL     1     113.416 124.565 136.843  0.00  0.00    +0.000 A 
ENDBRANCH   6  17
BRANCH   8  23
ATOM     23  O   UNL     1     112.791 127.098 138.007  0.00  0.00    +0.000 OA
ATOM     24  C   UNL     1     112.720 127.489 138.731  0.00  0.00    +0.000 C 
ENDBRANCH   8  23
TORSDOF 2
ENDMDL
