MODEL 1
REMARK VINA RESULT:      -9.1      0.000      0.000
REMARK  Name = 14825845
REMARK  6 active torsions:
REMARK  status: ('A' for Active; 'I' for Inactive)
REMARK    1  A    between atoms: O_2  and  C_17
REMARK    2  A    between atoms: O_2  and  C_19
REMARK    3  A    between atoms: O_8  and  C_20
REMARK    4  A    between atoms: O_11  and  C_32
REMARK    5  A    between atoms: C_16  and  C_18
REMARK    6  A    between atoms: C_26  and  C_28
REMARK                            x       y       z     vdW  Elec       q    Type
REMARK                         _______ _______ _______ _____ _____    ______ ____
ROOT
ATOM      1  O   UNL     1     110.375 128.137 135.968  0.00  0.00    +0.000 OA
ATOM      2  O   UNL     1     108.070 129.887 135.906  0.00  0.00    +0.000 OA
ATOM      3  O   UNL     1     107.871 128.464 135.771  0.00  0.00    +0.000 OA
ATOM      4  C   UNL     1     110.194 130.335 136.133  0.00  0.00    +0.000 A 
ATOM      5  C   UNL     1     110.518 129.577 136.099  0.00  0.00    +0.000 A 
ATOM      6  C   UNL     1     109.378 130.438 136.069  0.00  0.00    +0.000 A 
ATOM      7  C   UNL     1     110.026 128.922 136.001  0.00  0.00    +0.000 A 
ATOM      8  C   UNL     1     109.209 129.026 135.937  0.00  0.00    +0.000 A 
ATOM      9  C   UNL     1     108.886 129.783 135.971  0.00  0.00    +0.000 A 
ATOM     10  C   UNL     1     108.687 128.352 135.835  0.00  0.00    +0.000 A 
ATOM     11  C   UNL     1     109.868 127.452 135.866  0.00  0.00    +0.000 A 
ATOM     12  C   UNL     1     109.018 127.559 135.799  0.00  0.00    +0.000 A 
ENDROOT
BRANCH  11  14
ATOM     13  O   UNL     1     111.174 124.424 135.734  0.00  0.00    +0.000 OA
ATOM     14  C   UNL     1     110.194 126.695 135.833  0.00  0.00    +0.000 A 
ATOM     15  C   UNL     1     110.395 126.301 136.529  0.00  0.00    +0.000 A 
ATOM     16  C   UNL     1     110.320 126.331 135.103  0.00  0.00    +0.000 A 
ATOM     17  C   UNL     1     110.721 125.545 136.497  0.00  0.00    +0.000 A 
ATOM     18  C   UNL     1     110.646 125.574 135.069  0.00  0.00    +0.000 A 
ATOM     19  C   UNL     1     110.847 125.181 135.767  0.00  0.00    +0.000 A 
BRANCH  17  20
ATOM     20  O   UNL     1     110.922 125.151 137.194  0.00  0.00    +0.000 OA
ATOM     21  C   UNL     1     111.278 125.564 137.813  0.00  0.00    +0.000 C 
ENDBRANCH  17  20
ENDBRANCH  11  14
BRANCH   5  22
ATOM     22  O   UNL     1     111.334 129.474 136.164  0.00  0.00    +0.000 OA
ATOM     23  C   UNL     1     111.810 129.524 135.492  0.00  0.00    +0.000 C 
ENDBRANCH   5  22
BRANCH   4  24
ATOM     24  O   UNL     1     110.686 130.990 136.231  0.00  0.00    +0.000 OA
BRANCH  24  33
ATOM     25  O   UNL     1     110.471 131.260 137.618  0.00  0.00    +0.000 OA
ATOM     26  O   UNL     1     110.249 133.673 137.113  0.00  0.00    +0.000 OA
ATOM     27  O   UNL     1     110.108 133.139 138.667  0.00  0.00    +0.000 OA
ATOM     28  O   UNL     1     110.538 132.599 135.895  0.00  0.00    +0.000 OA
ATOM     29  C   UNL     1     110.323 132.869 137.281  0.00  0.00    +0.000 C 
ATOM     30  C   UNL     1     110.252 132.601 138.058  0.00  0.00    +0.000 C 
ATOM     31  C   UNL     1     110.467 132.331 136.672  0.00  0.00    +0.000 C 
ATOM     32  C   UNL     1     110.326 131.797 138.226  0.00  0.00    +0.000 C 
ATOM     33  C   UNL     1     110.541 131.527 136.840  0.00  0.00    +0.000 C 
BRANCH  32  35
ATOM     34  O   UNL     1     110.874 131.110 139.354  0.00  0.00    +0.000 OA
ATOM     35  C   UNL     1     110.256 131.530 139.003  0.00  0.00    +0.000 C 
ENDBRANCH  32  35
ENDBRANCH  24  33
ENDBRANCH   4  24
TORSDOF 6
ENDMDL
MODEL 2
REMARK VINA RESULT:      -8.9      3.291      6.841
REMARK  Name = 14825845
REMARK  6 active torsions:
REMARK  status: ('A' for Active; 'I' for Inactive)
REMARK    1  A    between atoms: O_2  and  C_17
REMARK    2  A    between atoms: O_2  and  C_19
REMARK    3  A    between atoms: O_8  and  C_20
REMARK    4  A    between atoms: O_11  and  C_32
REMARK    5  A    between atoms: C_16  and  C_18
REMARK    6  A    between atoms: C_26  and  C_28
REMARK                            x       y       z     vdW  Elec       q    Type
REMARK                         _______ _______ _______ _____ _____    ______ ____
ROOT
ATOM      1  O   UNL     1     113.336 128.652 139.528  0.00  0.00    +0.000 OA
ATOM      2  O   UNL     1     111.989 128.304 136.989  0.00  0.00    +0.000 OA
ATOM      3  O   UNL     1     112.450 129.620 137.363  0.00  0.00    +0.000 OA
ATOM      4  C   UNL     1     112.476 126.862 138.554  0.00  0.00    +0.000 A 
ATOM      5  C   UNL     1     112.853 127.350 139.103  0.00  0.00    +0.000 A 
ATOM      6  C   UNL     1     112.189 127.181 137.850  0.00  0.00    +0.000 A 
ATOM      7  C   UNL     1     112.942 128.155 138.948  0.00  0.00    +0.000 A 
ATOM      8  C   UNL     1     112.654 128.473 138.243  0.00  0.00    +0.000 A 
ATOM      9  C   UNL     1     112.278 127.986 137.694  0.00  0.00    +0.000 A 
ATOM     10  C   UNL     1     112.740 129.310 138.070  0.00  0.00    +0.000 A 
ATOM     11  C   UNL     1     113.431 129.491 139.372  0.00  0.00    +0.000 A 
ATOM     12  C   UNL     1     113.132 129.823 138.638  0.00  0.00    +0.000 A 
ENDROOT
BRANCH  11  14
ATOM     13  O   UNL     1     114.938 131.429 141.576  0.00  0.00    +0.000 OA
ATOM     14  C   UNL     1     113.808 129.976 139.923  0.00  0.00    +0.000 A 
ATOM     15  C   UNL     1     113.391 130.262 140.574  0.00  0.00    +0.000 A 
ATOM     16  C   UNL     1     114.603 130.174 139.823  0.00  0.00    +0.000 A 
ATOM     17  C   UNL     1     113.767 130.747 141.125  0.00  0.00    +0.000 A 
ATOM     18  C   UNL     1     114.980 130.658 140.374  0.00  0.00    +0.000 A 
ATOM     19  C   UNL     1     114.561 130.945 141.025  0.00  0.00    +0.000 A 
BRANCH  17  20
ATOM     20  O   UNL     1     113.349 131.033 141.776  0.00  0.00    +0.000 OA
ATOM     21  C   UNL     1     112.726 130.595 142.092  0.00  0.00    +0.000 C 
ENDBRANCH  17  20
ENDBRANCH  11  14
BRANCH   5  22
ATOM     22  O   UNL     1     113.141 127.031 139.808  0.00  0.00    +0.000 OA
ATOM     23  C   UNL     1     112.636 126.931 140.452  0.00  0.00    +0.000 C 
ENDBRANCH   5  22
BRANCH   4  24
ATOM     24  O   UNL     1     112.387 126.057 138.709  0.00  0.00    +0.000 OA
BRANCH  24  33
ATOM     25  O   UNL     1     113.350 125.501 137.811  0.00  0.00    +0.000 OA
ATOM     26  O   UNL     1     111.683 123.834 137.057  0.00  0.00    +0.000 OA
ATOM     27  O   UNL     1     113.201 123.834 136.411  0.00  0.00    +0.000 OA
ATOM     28  O   UNL     1     111.276 124.945 138.207  0.00  0.00    +0.000 OA
ATOM     29  C   UNL     1     112.239 124.389 137.308  0.00  0.00    +0.000 C 
ATOM     30  C   UNL     1     112.998 124.390 136.985  0.00  0.00    +0.000 C 
ATOM     31  C   UNL     1     112.035 124.946 137.884  0.00  0.00    +0.000 C 
ATOM     32  C   UNL     1     113.553 124.946 137.236  0.00  0.00    +0.000 C 
ATOM     33  C   UNL     1     112.591 125.501 138.135  0.00  0.00    +0.000 C 
BRANCH  32  35
ATOM     34  O   UNL     1     114.971 124.990 137.407  0.00  0.00    +0.000 OA
ATOM     35  C   UNL     1     114.312 124.946 136.913  0.00  0.00    +0.000 C 
ENDBRANCH  32  35
ENDBRANCH  24  33
ENDBRANCH   4  24
TORSDOF 6
ENDMDL
MODEL 3
REMARK VINA RESULT:      -8.8      2.066      3.309
REMARK  Name = 14825845
REMARK  6 active torsions:
REMARK  status: ('A' for Active; 'I' for Inactive)
REMARK    1  A    between atoms: O_2  and  C_17
REMARK    2  A    between atoms: O_2  and  C_19
REMARK    3  A    between atoms: O_8  and  C_20
REMARK    4  A    between atoms: O_11  and  C_32
REMARK    5  A    between atoms: C_16  and  C_18
REMARK    6  A    between atoms: C_26  and  C_28
REMARK                            x       y       z     vdW  Elec       q    Type
REMARK                         _______ _______ _______ _____ _____    ______ ____
ROOT
ATOM      1  O   UNL     1     112.849 127.385 137.145  0.00  0.00    +0.000 OA
ATOM      2  O   UNL     1     113.854 129.785 135.876  0.00  0.00    +0.000 OA
ATOM      3  O   UNL     1     114.412 128.509 135.499  0.00  0.00    +0.000 OA
ATOM      4  C   UNL     1     112.312 129.516 137.397  0.00  0.00    +0.000 A 
ATOM      5  C   UNL     1     112.324 128.695 137.487  0.00  0.00    +0.000 A 
ATOM      6  C   UNL     1     112.822 129.878 136.860  0.00  0.00    +0.000 A 
ATOM      7  C   UNL     1     112.846 128.238 137.041  0.00  0.00    +0.000 A 
ATOM      8  C   UNL     1     113.357 128.602 136.504  0.00  0.00    +0.000 A 
ATOM      9  C   UNL     1     113.344 129.422 136.413  0.00  0.00    +0.000 A 
ATOM     10  C   UNL     1     113.905 128.138 136.034  0.00  0.00    +0.000 A 
ATOM     11  C   UNL     1     113.391 126.905 136.683  0.00  0.00    +0.000 A 
ATOM     12  C   UNL     1     113.923 127.283 136.124  0.00  0.00    +0.000 A 
ENDROOT
BRANCH  11  14
ATOM     13  O   UNL     1     113.431 123.626 137.054  0.00  0.00    +0.000 OA
ATOM     14  C   UNL     1     113.401 126.085 136.776  0.00  0.00    +0.000 A 
ATOM     15  C   UNL     1     112.789 125.627 136.466  0.00  0.00    +0.000 A 
ATOM     16  C   UNL     1     114.024 125.723 137.178  0.00  0.00    +0.000 A 
ATOM     17  C   UNL     1     112.798 124.808 136.559  0.00  0.00    +0.000 A 
ATOM     18  C   UNL     1     114.034 124.903 137.271  0.00  0.00    +0.000 A 
ATOM     19  C   UNL     1     113.421 124.446 136.961  0.00  0.00    +0.000 A 
BRANCH  17  20
ATOM     20  O   UNL     1     112.186 124.350 136.249  0.00  0.00    +0.000 OA
ATOM     21  C   UNL     1     111.427 124.667 136.182  0.00  0.00    +0.000 C 
ENDBRANCH  17  20
ENDBRANCH  11  14
BRANCH   5  22
ATOM     22  O   UNL     1     111.814 128.333 138.025  0.00  0.00    +0.000 OA
ATOM     23  C   UNL     1     112.027 128.268 138.819  0.00  0.00    +0.000 C 
ENDBRANCH   5  22
BRANCH   4  24
ATOM     24  O   UNL     1     111.789 129.972 137.843  0.00  0.00    +0.000 OA
BRANCH  24  33
ATOM     25  O   UNL     1     110.867 130.350 136.818  0.00  0.00    +0.000 OA
ATOM     26  O   UNL     1     110.856 132.669 137.683  0.00  0.00    +0.000 OA
ATOM     27  O   UNL     1     109.939 132.274 136.371  0.00  0.00    +0.000 OA
ATOM     28  O   UNL     1     111.782 131.518 138.419  0.00  0.00    +0.000 OA
ATOM     29  C   UNL     1     110.860 131.896 137.395  0.00  0.00    +0.000 C 
ATOM     30  C   UNL     1     110.401 131.698 136.739  0.00  0.00    +0.000 C 
ATOM     31  C   UNL     1     111.323 131.320 137.763  0.00  0.00    +0.000 C 
ATOM     32  C   UNL     1     110.405 130.925 136.450  0.00  0.00    +0.000 C 
ATOM     33  C   UNL     1     111.327 130.547 137.475  0.00  0.00    +0.000 C 
BRANCH  32  35
ATOM     34  O   UNL     1     109.507 130.029 135.793  0.00  0.00    +0.000 OA
ATOM     35  C   UNL     1     109.946 130.728 135.795  0.00  0.00    +0.000 C 
ENDBRANCH  32  35
ENDBRANCH  24  33
ENDBRANCH   4  24
TORSDOF 6
ENDMDL
MODEL 4
REMARK VINA RESULT:      -8.8      7.386      9.520
REMARK  Name = 14825845
REMARK  6 active torsions:
REMARK  status: ('A' for Active; 'I' for Inactive)
REMARK    1  A    between atoms: O_2  and  C_17
REMARK    2  A    between atoms: O_2  and  C_19
REMARK    3  A    between atoms: O_8  and  C_20
REMARK    4  A    between atoms: O_11  and  C_32
REMARK    5  A    between atoms: C_16  and  C_18
REMARK    6  A    between atoms: C_26  and  C_28
REMARK                            x       y       z     vdW  Elec       q    Type
REMARK                         _______ _______ _______ _____ _____    ______ ____
ROOT
ATOM      1  O   UNL     1     103.320 130.347 142.124  0.00  0.00    +0.000 OA
ATOM      2  O   UNL     1     103.961 127.941 140.647  0.00  0.00    +0.000 OA
ATOM      3  O   UNL     1     102.972 128.846 140.114  0.00  0.00    +0.000 OA
ATOM      4  C   UNL     1     104.739 128.702 142.540  0.00  0.00    +0.000 A 
ATOM      5  C   UNL     1     104.308 129.402 142.615  0.00  0.00    +0.000 A 
ATOM      6  C   UNL     1     104.623 128.215 141.884  0.00  0.00    +0.000 A 
ATOM      7  C   UNL     1     103.762 129.615 142.034  0.00  0.00    +0.000 A 
ATOM      8  C   UNL     1     103.647 129.128 141.378  0.00  0.00    +0.000 A 
ATOM      9  C   UNL     1     104.077 128.428 141.303  0.00  0.00    +0.000 A 
ATOM     10  C   UNL     1     103.081 129.339 140.767  0.00  0.00    +0.000 A 
ATOM     11  C   UNL     1     102.751 130.574 141.523  0.00  0.00    +0.000 A 
ATOM     12  C   UNL     1     102.630 130.067 140.839  0.00  0.00    +0.000 A 
ENDROOT
BRANCH  11  14
ATOM     13  O   UNL     1     101.036 133.376 141.833  0.00  0.00    +0.000 OA
ATOM     14  C   UNL     1     102.322 131.274 141.600  0.00  0.00    +0.000 A 
ATOM     15  C   UNL     1     102.655 131.991 141.364  0.00  0.00    +0.000 A 
ATOM     16  C   UNL     1     101.559 131.258 141.915  0.00  0.00    +0.000 A 
ATOM     17  C   UNL     1     102.228 132.691 141.441  0.00  0.00    +0.000 A 
ATOM     18  C   UNL     1     101.130 131.959 141.993  0.00  0.00    +0.000 A 
ATOM     19  C   UNL     1     101.465 132.675 141.755  0.00  0.00    +0.000 A 
BRANCH  17  20
ATOM     20  O   UNL     1     102.561 133.408 141.204  0.00  0.00    +0.000 OA
ATOM     21  C   UNL     1     103.368 133.543 141.313  0.00  0.00    +0.000 C 
ENDBRANCH  17  20
ENDBRANCH  11  14
BRANCH   5  22
ATOM     22  O   UNL     1     104.424 129.888 143.271  0.00  0.00    +0.000 OA
ATOM     23  C   UNL     1     104.019 129.738 143.973  0.00  0.00    +0.000 C 
ENDBRANCH   5  22
BRANCH   4  24
ATOM     24  O   UNL     1     105.285 128.488 143.120  0.00  0.00    +0.000 OA
BRANCH  24  33
ATOM     25  O   UNL     1     106.512 128.717 142.426  0.00  0.00    +0.000 OA
ATOM     26  O   UNL     1     107.364 126.529 143.211  0.00  0.00    +0.000 OA
ATOM     27  O   UNL     1     108.307 127.487 142.255  0.00  0.00    +0.000 OA
ATOM     28  O   UNL     1     105.852 127.030 143.644  0.00  0.00    +0.000 OA
ATOM     29  C   UNL     1     107.080 127.259 142.949  0.00  0.00    +0.000 C 
ATOM     30  C   UNL     1     107.551 127.738 142.471  0.00  0.00    +0.000 C 
ATOM     31  C   UNL     1     106.324 127.509 143.166  0.00  0.00    +0.000 C 
ATOM     32  C   UNL     1     107.268 128.467 142.209  0.00  0.00    +0.000 C 
ATOM     33  C   UNL     1     106.040 128.238 142.904  0.00  0.00    +0.000 C 
BRANCH  32  35
ATOM     34  O   UNL     1     107.445 129.233 141.016  0.00  0.00    +0.000 OA
ATOM     35  C   UNL     1     107.739 128.945 141.732  0.00  0.00    +0.000 C 
ENDBRANCH  32  35
ENDBRANCH  24  33
ENDBRANCH   4  24
TORSDOF 6
ENDMDL
MODEL 5
REMARK VINA RESULT:      -8.8      1.919      3.032
REMARK  Name = 14825845
REMARK  6 active torsions:
REMARK  status: ('A' for Active; 'I' for Inactive)
REMARK    1  A    between atoms: O_2  and  C_17
REMARK    2  A    between atoms: O_2  and  C_19
REMARK    3  A    between atoms: O_8  and  C_20
REMARK    4  A    between atoms: O_11  and  C_32
REMARK    5  A    between atoms: C_16  and  C_18
REMARK    6  A    between atoms: C_26  and  C_28
REMARK                            x       y       z     vdW  Elec       q    Type
REMARK                         _______ _______ _______ _____ _____    ______ ____
ROOT
ATOM      1  O   UNL     1     112.465 127.641 137.409  0.00  0.00    +0.000 OA
ATOM      2  O   UNL     1     112.841 130.302 136.335  0.00  0.00    +0.000 OA
ATOM      3  O   UNL     1     113.424 129.179 135.641  0.00  0.00    +0.000 OA
ATOM      4  C   UNL     1     111.773 129.620 138.112  0.00  0.00    +0.000 A 
ATOM      5  C   UNL     1     111.900 128.805 138.067  0.00  0.00    +0.000 A 
ATOM      6  C   UNL     1     112.087 130.118 137.535  0.00  0.00    +0.000 A 
ATOM      7  C   UNL     1     112.340 128.490 137.444  0.00  0.00    +0.000 A 
ATOM      8  C   UNL     1     112.654 128.990 136.867  0.00  0.00    +0.000 A 
ATOM      9  C   UNL     1     112.528 129.803 136.912  0.00  0.00    +0.000 A 
ATOM     10  C   UNL     1     113.114 128.673 136.214  0.00  0.00    +0.000 A 
ATOM     11  C   UNL     1     112.922 127.307 136.763  0.00  0.00    +0.000 A 
ATOM     12  C   UNL     1     113.249 127.826 136.161  0.00  0.00    +0.000 A 
ENDROOT
BRANCH  11  14
ATOM     13  O   UNL     1     113.421 124.049 136.592  0.00  0.00    +0.000 OA
ATOM     14  C   UNL     1     113.047 126.492 136.720  0.00  0.00    +0.000 A 
ATOM     15  C   UNL     1     112.446 125.997 136.448  0.00  0.00    +0.000 A 
ATOM     16  C   UNL     1     113.772 126.174 136.950  0.00  0.00    +0.000 A 
ATOM     17  C   UNL     1     112.570 125.182 136.405  0.00  0.00    +0.000 A 
ATOM     18  C   UNL     1     113.897 125.359 136.908  0.00  0.00    +0.000 A 
ATOM     19  C   UNL     1     113.296 124.864 136.635  0.00  0.00    +0.000 A 
BRANCH  17  20
ATOM     20  O   UNL     1     111.970 124.687 136.133  0.00  0.00    +0.000 OA
ATOM     21  C   UNL     1     111.200 124.973 136.060  0.00  0.00    +0.000 C 
ENDBRANCH  17  20
ENDBRANCH  11  14
BRANCH   5  22
ATOM     22  O   UNL     1     111.586 128.307 138.645  0.00  0.00    +0.000 OA
ATOM     23  C   UNL     1     112.001 128.175 139.345  0.00  0.00    +0.000 C 
ENDBRANCH   5  22
BRANCH   4  24
ATOM     24  O   UNL     1     111.333 129.935 138.735  0.00  0.00    +0.000 OA
BRANCH  24  33
ATOM     25  O   UNL     1     110.137 130.302 138.044  0.00  0.00    +0.000 OA
ATOM     26  O   UNL     1     110.143 132.492 139.197  0.00  0.00    +0.000 OA
ATOM     27  O   UNL     1     108.946 132.129 138.122  0.00  0.00    +0.000 OA
ATOM     28  O   UNL     1     111.337 131.395 139.503  0.00  0.00    +0.000 OA
ATOM     29  C   UNL     1     110.141 131.762 138.812  0.00  0.00    +0.000 C 
ATOM     30  C   UNL     1     109.543 131.580 138.275  0.00  0.00    +0.000 C 
ATOM     31  C   UNL     1     110.739 131.213 138.966  0.00  0.00    +0.000 C 
ATOM     32  C   UNL     1     109.541 130.850 137.890  0.00  0.00    +0.000 C 
ATOM     33  C   UNL     1     110.737 130.483 138.581  0.00  0.00    +0.000 C 
BRANCH  32  35
ATOM     34  O   UNL     1     108.583 129.926 137.369  0.00  0.00    +0.000 OA
ATOM     35  C   UNL     1     108.942 130.669 137.353  0.00  0.00    +0.000 C 
ENDBRANCH  32  35
ENDBRANCH  24  33
ENDBRANCH   4  24
TORSDOF 6
ENDMDL
MODEL 6
REMARK VINA RESULT:      -8.7      2.099      3.370
REMARK  Name = 14825845
REMARK  6 active torsions:
REMARK  status: ('A' for Active; 'I' for Inactive)
REMARK    1  A    between atoms: O_2  and  C_17
REMARK    2  A    between atoms: O_2  and  C_19
REMARK    3  A    between atoms: O_8  and  C_20
REMARK    4  A    between atoms: O_11  and  C_32
REMARK    5  A    between atoms: C_16  and  C_18
REMARK    6  A    between atoms: C_26  and  C_28
REMARK                            x       y       z     vdW  Elec       q    Type
REMARK                         _______ _______ _______ _____ _____    ______ ____
ROOT
ATOM      1  O   UNL     1     112.389 127.211 136.393  0.00  0.00    +0.000 OA
ATOM      2  O   UNL     1     112.437 129.880 135.272  0.00  0.00    +0.000 OA
ATOM      3  O   UNL     1     113.686 129.237 135.602  0.00  0.00    +0.000 OA
ATOM      4  C   UNL     1     110.762 128.563 135.747  0.00  0.00    +0.000 A 
ATOM      5  C   UNL     1     111.161 127.904 136.043  0.00  0.00    +0.000 A 
ATOM      6  C   UNL     1     111.188 129.221 135.490  0.00  0.00    +0.000 A 
ATOM      7  C   UNL     1     111.985 127.904 136.082  0.00  0.00    +0.000 A 
ATOM      8  C   UNL     1     112.410 128.563 135.825  0.00  0.00    +0.000 A 
ATOM      9  C   UNL     1     112.012 129.221 135.529  0.00  0.00    +0.000 A 
ATOM     10  C   UNL     1     113.268 128.575 135.861  0.00  0.00    +0.000 A 
ATOM     11  C   UNL     1     113.247 127.206 136.436  0.00  0.00    +0.000 A 
ATOM     12  C   UNL     1     113.690 127.891 136.169  0.00  0.00    +0.000 A 
ENDROOT
BRANCH  11  14
ATOM     13  O   UNL     1     114.831 124.565 137.623  0.00  0.00    +0.000 OA
ATOM     14  C   UNL     1     113.643 126.545 136.733  0.00  0.00    +0.000 A 
ATOM     15  C   UNL     1     113.747 126.458 137.546  0.00  0.00    +0.000 A 
ATOM     16  C   UNL     1     113.935 125.973 136.215  0.00  0.00    +0.000 A 
ATOM     17  C   UNL     1     114.143 125.798 137.843  0.00  0.00    +0.000 A 
ATOM     18  C   UNL     1     114.331 125.312 136.512  0.00  0.00    +0.000 A 
ATOM     19  C   UNL     1     114.435 125.226 137.326  0.00  0.00    +0.000 A 
BRANCH  17  20
ATOM     20  O   UNL     1     114.248 125.711 138.657  0.00  0.00    +0.000 OA
ATOM     21  C   UNL     1     113.875 126.231 139.179  0.00  0.00    +0.000 C 
ENDBRANCH  17  20
ENDBRANCH  11  14
BRANCH   5  22
ATOM     22  O   UNL     1     110.735 127.246 136.300  0.00  0.00    +0.000 OA
ATOM     23  C   UNL     1     110.501 126.669 135.759  0.00  0.00    +0.000 C 
ENDBRANCH   5  22
BRANCH   4  24
ATOM     24  O   UNL     1     109.938 128.563 135.708  0.00  0.00    +0.000 OA
BRANCH  24  33
ATOM     25  O   UNL     1     109.603 129.339 136.861  0.00  0.00    +0.000 OA
ATOM     26  O   UNL     1     108.031 130.682 135.501  0.00  0.00    +0.000 OA
ATOM     27  O   UNL     1     108.220 131.009 137.106  0.00  0.00    +0.000 OA
ATOM     28  O   UNL     1     108.890 129.459 134.801  0.00  0.00    +0.000 OA
ATOM     29  C   UNL     1     108.555 130.234 135.954  0.00  0.00    +0.000 C 
ATOM     30  C   UNL     1     108.650 130.397 136.757  0.00  0.00    +0.000 C 
ATOM     31  C   UNL     1     108.985 129.622 135.604  0.00  0.00    +0.000 C 
ATOM     32  C   UNL     1     109.174 129.950 137.210  0.00  0.00    +0.000 C 
ATOM     33  C   UNL     1     109.509 129.174 136.057  0.00  0.00    +0.000 C 
BRANCH  32  35
ATOM     34  O   UNL     1     109.219 129.504 138.567  0.00  0.00    +0.000 OA
ATOM     35  C   UNL     1     109.268 130.113 138.013  0.00  0.00    +0.000 C 
ENDBRANCH  32  35
ENDBRANCH  24  33
ENDBRANCH   4  24
TORSDOF 6
ENDMDL
MODEL 7
REMARK VINA RESULT:      -8.7      0.827      5.349
REMARK  Name = 14825845
REMARK  6 active torsions:
REMARK  status: ('A' for Active; 'I' for Inactive)
REMARK    1  A    between atoms: O_2  and  C_17
REMARK    2  A    between atoms: O_2  and  C_19
REMARK    3  A    between atoms: O_8  and  C_20
REMARK    4  A    between atoms: O_11  and  C_32
REMARK    5  A    between atoms: C_16  and  C_18
REMARK    6  A    between atoms: C_26  and  C_28
REMARK                            x       y       z     vdW  Elec       q    Type
REMARK                         _______ _______ _______ _____ _____    ______ ____
ROOT
ATOM      1  O   UNL     1     110.175 130.288 136.079  0.00  0.00    +0.000 OA
ATOM      2  O   UNL     1     108.100 128.297 135.748  0.00  0.00    +0.000 OA
ATOM      3  O   UNL     1     107.725 129.649 136.086  0.00  0.00    +0.000 OA
ATOM      4  C   UNL     1     110.270 128.137 135.574  0.00  0.00    +0.000 A 
ATOM      5  C   UNL     1     110.497 128.913 135.740  0.00  0.00    +0.000 A 
ATOM      6  C   UNL     1     109.471 127.932 135.577  0.00  0.00    +0.000 A 
ATOM      7  C   UNL     1     109.925 129.483 135.908  0.00  0.00    +0.000 A 
ATOM      8  C   UNL     1     109.126 129.277 135.911  0.00  0.00    +0.000 A 
ATOM      9  C   UNL     1     108.899 128.502 135.746  0.00  0.00    +0.000 A 
ATOM     10  C   UNL     1     108.522 129.862 136.085  0.00  0.00    +0.000 A 
ATOM     11  C   UNL     1     109.584 130.886 136.255  0.00  0.00    +0.000 A 
ATOM     12  C   UNL     1     108.752 130.672 136.259  0.00  0.00    +0.000 A 
ENDROOT
BRANCH  11  14
ATOM     13  O   UNL     1     110.505 133.984 136.918  0.00  0.00    +0.000 OA
ATOM     14  C   UNL     1     109.815 131.661 136.421  0.00  0.00    +0.000 A 
ATOM     15  C   UNL     1     110.034 131.871 137.188  0.00  0.00    +0.000 A 
ATOM     16  C   UNL     1     109.825 132.225 135.819  0.00  0.00    +0.000 A 
ATOM     17  C   UNL     1     110.264 132.645 137.354  0.00  0.00    +0.000 A 
ATOM     18  C   UNL     1     110.056 133.000 135.985  0.00  0.00    +0.000 A 
ATOM     19  C   UNL     1     110.275 133.210 136.752  0.00  0.00    +0.000 A 
BRANCH  17  20
ATOM     20  O   UNL     1     110.484 132.855 138.121  0.00  0.00    +0.000 OA
ATOM     21  C   UNL     1     110.365 132.327 138.743  0.00  0.00    +0.000 C 
ENDBRANCH  17  20
ENDBRANCH  11  14
BRANCH   5  22
ATOM     22  O   UNL     1     111.296 129.117 135.736  0.00  0.00    +0.000 OA
ATOM     23  C   UNL     1     111.668 129.320 135.028  0.00  0.00    +0.000 C 
ENDBRANCH   5  22
BRANCH   4  24
ATOM     24  O   UNL     1     110.841 127.566 135.405  0.00  0.00    +0.000 OA
BRANCH  24  33
ATOM     25  O   UNL     1     110.917 126.916 136.675  0.00  0.00    +0.000 OA
ATOM     26  O   UNL     1     110.908 124.713 135.548  0.00  0.00    +0.000 OA
ATOM     27  O   UNL     1     110.986 124.797 137.193  0.00  0.00    +0.000 OA
ATOM     28  O   UNL     1     110.835 126.097 134.653  0.00  0.00    +0.000 OA
ATOM     29  C   UNL     1     110.911 125.447 135.923  0.00  0.00    +0.000 C 
ATOM     30  C   UNL     1     110.950 125.490 136.746  0.00  0.00    +0.000 C 
ATOM     31  C   UNL     1     110.875 126.140 135.476  0.00  0.00    +0.000 C 
ATOM     32  C   UNL     1     110.953 126.224 137.122  0.00  0.00    +0.000 C 
ATOM     33  C   UNL     1     110.878 126.874 135.852  0.00  0.00    +0.000 C 
BRANCH  32  35
ATOM     34  O   UNL     1     111.495 126.810 138.307  0.00  0.00    +0.000 OA
ATOM     35  C   UNL     1     110.992 126.266 137.944  0.00  0.00    +0.000 C 
ENDBRANCH  32  35
ENDBRANCH  24  33
ENDBRANCH   4  24
TORSDOF 6
ENDMDL
MODEL 8
REMARK VINA RESULT:      -8.7      3.275      4.504
REMARK  Name = 14825845
REMARK  6 active torsions:
REMARK  status: ('A' for Active; 'I' for Inactive)
REMARK    1  A    between atoms: O_2  and  C_17
REMARK    2  A    between atoms: O_2  and  C_19
REMARK    3  A    between atoms: O_8  and  C_20
REMARK    4  A    between atoms: O_11  and  C_32
REMARK    5  A    between atoms: C_16  and  C_18
REMARK    6  A    between atoms: C_26  and  C_28
REMARK                            x       y       z     vdW  Elec       q    Type
REMARK                         _______ _______ _______ _____ _____    ______ ____
ROOT
ATOM      1  O   UNL     1     113.137 127.045 138.278  0.00  0.00    +0.000 OA
ATOM      2  O   UNL     1     112.289 129.786 137.895  0.00  0.00    +0.000 OA
ATOM      3  O   UNL     1     112.415 128.925 136.744  0.00  0.00    +0.000 OA
ATOM      4  C   UNL     1     112.811 128.696 139.713  0.00  0.00    +0.000 A 
ATOM      5  C   UNL     1     112.995 127.954 139.402  0.00  0.00    +0.000 A 
ATOM      6  C   UNL     1     112.576 129.306 139.210  0.00  0.00    +0.000 A 
ATOM      7  C   UNL     1     112.943 127.822 138.589  0.00  0.00    +0.000 A 
ATOM      8  C   UNL     1     112.708 128.434 138.087  0.00  0.00    +0.000 A 
ATOM      9  C   UNL     1     112.524 129.175 138.397  0.00  0.00    +0.000 A 
ATOM     10  C   UNL     1     112.651 128.309 137.239  0.00  0.00    +0.000 A 
ATOM     11  C   UNL     1     113.086 126.903 137.433  0.00  0.00    +0.000 A 
ATOM     12  C   UNL     1     112.841 127.538 136.909  0.00  0.00    +0.000 A 
ENDROOT
BRANCH  11  14
ATOM     13  O   UNL     1     113.822 123.931 136.202  0.00  0.00    +0.000 OA
ATOM     14  C   UNL     1     113.270 126.160 137.125  0.00  0.00    +0.000 A 
ATOM     15  C   UNL     1     112.672 125.604 137.002  0.00  0.00    +0.000 A 
ATOM     16  C   UNL     1     114.052 125.972 136.941  0.00  0.00    +0.000 A 
ATOM     17  C   UNL     1     112.856 124.862 136.694  0.00  0.00    +0.000 A 
ATOM     18  C   UNL     1     114.236 125.229 136.633  0.00  0.00    +0.000 A 
ATOM     19  C   UNL     1     113.638 124.674 136.510  0.00  0.00    +0.000 A 
BRANCH  17  20
ATOM     20  O   UNL     1     112.258 124.306 136.571  0.00  0.00    +0.000 OA
ATOM     21  C   UNL     1     111.591 124.304 137.055  0.00  0.00    +0.000 C 
ENDBRANCH  17  20
ENDBRANCH  11  14
BRANCH   5  22
ATOM     22  O   UNL     1     113.230 127.344 139.905  0.00  0.00    +0.000 OA
ATOM     23  C   UNL     1     112.663 126.881 140.287  0.00  0.00    +0.000 C 
ENDBRANCH   5  22
BRANCH   4  24
ATOM     24  O   UNL     1     112.862 128.828 140.526  0.00  0.00    +0.000 OA
BRANCH  24  33
ATOM     25  O   UNL     1     113.985 129.711 140.556  0.00  0.00    +0.000 OA
ATOM     26  O   UNL     1     112.802 131.159 142.178  0.00  0.00    +0.000 OA
ATOM     27  O   UNL     1     114.319 131.559 141.667  0.00  0.00    +0.000 OA
ATOM     28  O   UNL     1     112.074 129.793 141.607  0.00  0.00    +0.000 OA
ATOM     29  C   UNL     1     113.197 130.676 141.637  0.00  0.00    +0.000 C 
ATOM     30  C   UNL     1     113.955 130.876 141.381  0.00  0.00    +0.000 C 
ATOM     31  C   UNL     1     112.832 129.993 141.351  0.00  0.00    +0.000 C 
ATOM     32  C   UNL     1     114.349 130.393 140.841  0.00  0.00    +0.000 C 
ATOM     33  C   UNL     1     113.226 129.510 140.811  0.00  0.00    +0.000 C 
BRANCH  32  35
ATOM     34  O   UNL     1     115.710 130.030 140.598  0.00  0.00    +0.000 OA
ATOM     35  C   UNL     1     115.107 130.594 140.586  0.00  0.00    +0.000 C 
ENDBRANCH  32  35
ENDBRANCH  24  33
ENDBRANCH   4  24
TORSDOF 6
ENDMDL
MODEL 9
REMARK VINA RESULT:      -8.6      9.133     10.596
REMARK  Name = 14825845
REMARK  6 active torsions:
REMARK  status: ('A' for Active; 'I' for Inactive)
REMARK    1  A    between atoms: O_2  and  C_17
REMARK    2  A    between atoms: O_2  and  C_19
REMARK    3  A    between atoms: O_8  and  C_20
REMARK    4  A    between atoms: O_11  and  C_32
REMARK    5  A    between atoms: C_16  and  C_18
REMARK    6  A    between atoms: C_26  and  C_28
REMARK                            x       y       z     vdW  Elec       q    Type
REMARK                         _______ _______ _______ _____ _____    ______ ____
ROOT
ATOM      1  O   UNL     1     106.604 125.981 146.349  0.00  0.00    +0.000 OA
ATOM      2  O   UNL     1     105.670 128.656 145.754  0.00  0.00    +0.000 OA
ATOM      3  O   UNL     1     106.024 128.325 147.114  0.00  0.00    +0.000 OA
ATOM      4  C   UNL     1     105.961 126.926 144.456  0.00  0.00    +0.000 A 
ATOM      5  C   UNL     1     106.234 126.368 144.999  0.00  0.00    +0.000 A 
ATOM      6  C   UNL     1     105.773 127.689 144.708  0.00  0.00    +0.000 A 
ATOM      7  C   UNL     1     106.319 126.572 145.794  0.00  0.00    +0.000 A 
ATOM      8  C   UNL     1     106.130 127.335 146.045  0.00  0.00    +0.000 A 
ATOM      9  C   UNL     1     105.858 127.893 145.503  0.00  0.00    +0.000 A 
ATOM     10  C   UNL     1     106.214 127.560 146.870  0.00  0.00    +0.000 A 
ATOM     11  C   UNL     1     106.694 126.189 147.178  0.00  0.00    +0.000 A 
ATOM     12  C   UNL     1     106.498 126.983 147.441  0.00  0.00    +0.000 A 
ENDROOT
BRANCH  11  14
ATOM     13  O   UNL     1     107.784 123.948 149.341  0.00  0.00    +0.000 OA
ATOM     14  C   UNL     1     106.967 125.628 147.719  0.00  0.00    +0.000 A 
ATOM     15  C   UNL     1     106.432 125.230 148.204  0.00  0.00    +0.000 A 
ATOM     16  C   UNL     1     107.774 125.467 147.773  0.00  0.00    +0.000 A 
ATOM     17  C   UNL     1     106.704 124.669 148.745  0.00  0.00    +0.000 A 
ATOM     18  C   UNL     1     108.047 124.907 148.314  0.00  0.00    +0.000 A 
ATOM     19  C   UNL     1     107.512 124.508 148.800  0.00  0.00    +0.000 A 
BRANCH  17  20
ATOM     20  O   UNL     1     106.170 124.271 149.231  0.00  0.00    +0.000 OA
ATOM     21  C   UNL     1     105.488 124.653 149.496  0.00  0.00    +0.000 C 
ENDBRANCH  17  20
ENDBRANCH  11  14
BRANCH   5  22
ATOM     22  O   UNL     1     106.422 125.605 144.746  0.00  0.00    +0.000 OA
ATOM     23  C   UNL     1     105.831 125.032 144.687  0.00  0.00    +0.000 C 
ENDBRANCH   5  22
BRANCH   4  24
ATOM     24  O   UNL     1     105.877 126.722 143.661  0.00  0.00    +0.000 OA
BRANCH  24  33
ATOM     25  O   UNL     1     106.987 127.409 143.081  0.00  0.00    +0.000 OA
ATOM     26  O   UNL     1     105.512 128.288 141.298  0.00  0.00    +0.000 OA
ATOM     27  O   UNL     1     107.113 128.682 141.313  0.00  0.00    +0.000 OA
ATOM     28  O   UNL     1     104.893 127.308 142.473  0.00  0.00    +0.000 OA
ATOM     29  C   UNL     1     106.004 127.995 141.892  0.00  0.00    +0.000 C 
ATOM     30  C   UNL     1     106.805 128.192 141.900  0.00  0.00    +0.000 C 
ATOM     31  C   UNL     1     105.694 127.505 142.480  0.00  0.00    +0.000 C 
ATOM     32  C   UNL     1     107.296 127.899 142.494  0.00  0.00    +0.000 C 
ATOM     33  C   UNL     1     106.186 127.211 143.074  0.00  0.00    +0.000 C 
BRANCH  32  35
ATOM     34  O   UNL     1     108.664 127.516 142.655  0.00  0.00    +0.000 OA
ATOM     35  C   UNL     1     108.097 128.095 142.501  0.00  0.00    +0.000 C 
ENDBRANCH  32  35
ENDBRANCH  24  33
ENDBRANCH   4  24
TORSDOF 6
ENDMDL
MODEL 10
REMARK VINA RESULT:      -8.5      1.206      5.787
REMARK  Name = 14825845
REMARK  6 active torsions:
REMARK  status: ('A' for Active; 'I' for Inactive)
REMARK    1  A    between atoms: O_2  and  C_17
REMARK    2  A    between atoms: O_2  and  C_19
REMARK    3  A    between atoms: O_8  and  C_20
REMARK    4  A    between atoms: O_11  and  C_32
REMARK    5  A    between atoms: C_16  and  C_18
REMARK    6  A    between atoms: C_26  and  C_28
REMARK                            x       y       z     vdW  Elec       q    Type
REMARK                         _______ _______ _______ _____ _____    ______ ____
ROOT
ATOM      1  O   UNL     1     110.925 129.756 137.018  0.00  0.00    +0.000 OA
ATOM      2  O   UNL     1     113.241 128.303 136.065  0.00  0.00    +0.000 OA
ATOM      3  O   UNL     1     113.398 129.678 136.477  0.00  0.00    +0.000 OA
ATOM      4  C   UNL     1     111.162 127.679 136.296  0.00  0.00    +0.000 A 
ATOM      5  C   UNL     1     110.823 128.371 136.591  0.00  0.00    +0.000 A 
ATOM      6  C   UNL     1     111.968 127.657 136.121  0.00  0.00    +0.000 A 
ATOM      7  C   UNL     1     111.290 129.041 136.710  0.00  0.00    +0.000 A 
ATOM      8  C   UNL     1     112.096 129.018 136.535  0.00  0.00    +0.000 A 
ATOM      9  C   UNL     1     112.435 128.326 136.240  0.00  0.00    +0.000 A 
ATOM     10  C   UNL     1     112.593 129.708 136.655  0.00  0.00    +0.000 A 
ATOM     11  C   UNL     1     111.406 130.456 137.144  0.00  0.00    +0.000 A 
ATOM     12  C   UNL     1     112.246 130.433 136.962  0.00  0.00    +0.000 A 
ENDROOT
BRANCH  11  14
ATOM     13  O   UNL     1     110.040 133.218 138.324  0.00  0.00    +0.000 OA
ATOM     14  C   UNL     1     111.065 131.147 137.439  0.00  0.00    +0.000 A 
ATOM     15  C   UNL     1     110.896 131.213 138.244  0.00  0.00    +0.000 A 
ATOM     16  C   UNL     1     110.892 131.771 136.929  0.00  0.00    +0.000 A 
ATOM     17  C   UNL     1     110.555 131.903 138.540  0.00  0.00    +0.000 A 
ATOM     18  C   UNL     1     110.550 132.462 137.224  0.00  0.00    +0.000 A 
ATOM     19  C   UNL     1     110.382 132.527 138.029  0.00  0.00    +0.000 A 
BRANCH  17  20
ATOM     20  O   UNL     1     110.387 131.968 139.344  0.00  0.00    +0.000 OA
ATOM     21  C   UNL     1     110.077 131.323 139.755  0.00  0.00    +0.000 C 
ENDBRANCH  17  20
ENDBRANCH  11  14
BRANCH   5  22
ATOM     22  O   UNL     1     110.017 128.393 136.766  0.00  0.00    +0.000 OA
ATOM     23  C   UNL     1     109.470 128.561 136.172  0.00  0.00    +0.000 C 
ENDBRANCH   5  22
BRANCH   4  24
ATOM     24  O   UNL     1     110.695 127.009 136.177  0.00  0.00    +0.000 OA
BRANCH  24  33
ATOM     25  O   UNL     1     111.116 126.202 137.278  0.00  0.00    +0.000 OA
ATOM     26  O   UNL     1     111.298 124.245 135.775  0.00  0.00    +0.000 OA
ATOM     27  O   UNL     1     111.658 124.091 137.377  0.00  0.00    +0.000 OA
ATOM     28  O   UNL     1     110.817 125.704 135.174  0.00  0.00    +0.000 OA
ATOM     29  C   UNL     1     111.238 124.897 136.276  0.00  0.00    +0.000 C 
ATOM     30  C   UNL     1     111.417 124.821 137.077  0.00  0.00    +0.000 C 
ATOM     31  C   UNL     1     110.997 125.627 135.976  0.00  0.00    +0.000 C 
ATOM     32  C   UNL     1     111.356 125.473 137.579  0.00  0.00    +0.000 C 
ATOM     33  C   UNL     1     110.936 126.280 136.477  0.00  0.00    +0.000 C 
BRANCH  32  35
ATOM     34  O   UNL     1     111.006 125.668 138.950  0.00  0.00    +0.000 OA
ATOM     35  C   UNL     1     111.536 125.396 138.379  0.00  0.00    +0.000 C 
ENDBRANCH  32  35
ENDBRANCH  24  33
ENDBRANCH   4  24
TORSDOF 6
ENDMDL
