MODEL 1
REMARK VINA RESULT:      -9.5      0.000      0.000
REMARK  Name = 131836009
REMARK  11 active torsions:
REMARK  status: ('A' for Active; 'I' for Inactive)
REMARK    1  A    between atoms: O_2  and  C_17
REMARK    2  A    between atoms: O_2  and  C_20
REMARK    3  A    between atoms: C_18  and  C_19
REMARK    4  A    between atoms: C_21  and  C_26
REMARK    5  A    between atoms: C_26  and  C_31
REMARK    6  A    between atoms: C_27  and  C_30
REMARK    7  A    between atoms: C_29  and  C_32
REMARK    8  A    between atoms: C_30  and  C_33
REMARK    9  A    between atoms: C_35  and  C_36
REMARK   10  A    between atoms: C_36  and  C_39
REMARK   11  A    between atoms: C_39  and  C_46
REMARK                            x       y       z     vdW  Elec       q    Type
REMARK                         _______ _______ _______ _____ _____    ______ ____
ROOT
ATOM      1  O   UNL     1     110.684 128.536 138.394  0.00  0.00    +0.000 OA
ATOM      2  O   UNL     1     112.045 130.801 137.228  0.00  0.00    +0.000 OA
ATOM      3  O   UNL     1     112.530 129.458 137.027  0.00  0.00    +0.000 OA
ATOM      4  C   UNL     1     110.207 130.716 138.505  0.00  0.00    +0.000 A 
ATOM      5  C   UNL     1     110.847 131.036 138.031  0.00  0.00    +0.000 A 
ATOM      6  C   UNL     1     110.153 129.867 138.627  0.00  0.00    +0.000 A 
ATOM      7  C   UNL     1     111.356 129.657 137.818  0.00  0.00    +0.000 A 
ATOM      8  C   UNL     1     110.741 129.349 138.273  0.00  0.00    +0.000 A 
ATOM      9  C   UNL     1     111.426 130.503 137.685  0.00  0.00    +0.000 A 
ATOM     10  C   UNL     1     111.858 128.336 137.604  0.00  0.00    +0.000 A 
ATOM     11  C   UNL     1     111.915 129.150 137.483  0.00  0.00    +0.000 A 
ATOM     12  C   UNL     1     111.242 128.029 138.059  0.00  0.00    +0.000 A 
ENDROOT
BRANCH  12  16
ATOM     13  O   UNL     1     111.808 127.361 139.458  0.00  0.00    +0.000 OA
ATOM     14  O   UNL     1     110.450 125.439 137.144  0.00  0.00    +0.000 OA
ATOM     15  O   UNL     1     111.015 124.772 138.542  0.00  0.00    +0.000 OA
ATOM     16  C   UNL     1     111.185 127.215 138.180  0.00  0.00    +0.000 A 
ATOM     17  C   UNL     1     111.468 126.881 138.880  0.00  0.00    +0.000 A 
ATOM     18  C   UNL     1     110.846 126.735 137.602  0.00  0.00    +0.000 A 
ATOM     19  C   UNL     1     110.789 125.920 137.722  0.00  0.00    +0.000 A 
ATOM     20  C   UNL     1     111.411 126.067 139.000  0.00  0.00    +0.000 A 
ATOM     21  C   UNL     1     111.072 125.586 138.422  0.00  0.00    +0.000 A 
ENDBRANCH  12  16
BRANCH   4  22
ATOM     22  O   UNL     1     109.647 131.220 138.841  0.00  0.00    +0.000 OA
BRANCH  22  30
ATOM     23  O   UNL     1     110.002 131.103 140.220  0.00  0.00    +0.000 OA
ATOM     24  O   UNL     1     107.610 130.875 140.815  0.00  0.00    +0.000 OA
ATOM     25  O   UNL     1     108.053 131.068 139.238  0.00  0.00    +0.000 OA
ATOM     26  O   UNL     1     108.762 130.834 141.995  0.00  0.00    +0.000 OA
ATOM     27  C   UNL     1     108.407 130.951 140.617  0.00  0.00    +0.000 C 
ATOM     28  C   UNL     1     108.628 131.047 139.828  0.00  0.00    +0.000 C 
ATOM     29  C   UNL     1     108.983 130.930 141.207  0.00  0.00    +0.000 C 
ATOM     30  C   UNL     1     109.426 131.124 139.629  0.00  0.00    +0.000 C 
ATOM     31  C   UNL     1     109.781 131.006 141.009  0.00  0.00    +0.000 C 
BRANCH  31  34
ATOM     32  O   UNL     1     110.709 131.686 141.857  0.00  0.00    +0.000 OA
ATOM     33  O   UNL     1     110.579 130.265 141.932  0.00  0.00    +0.000 OA
ATOM     34  C   UNL     1     110.356 130.986 141.599  0.00  0.00    +0.000 C 
ENDBRANCH  31  34
ENDBRANCH  22  30
ENDBRANCH   4  22
BRANCH   5  35
ATOM     35  C   UNL     1     110.908 131.849 137.908  0.00  0.00    +0.000 C 
BRANCH  35  36
ATOM     36  C   UNL     1     110.553 132.195 137.248  0.00  0.00    +0.000 C 
ATOM     37  C   UNL     1     110.332 132.768 136.697  0.00  0.00    +0.000 C 
ATOM     38  C   UNL     1     109.848 132.565 136.062  0.00  0.00    +0.000 C 
ATOM     39  C   UNL     1     110.596 133.545 136.784  0.00  0.00    +0.000 C 
ENDBRANCH  35  36
ENDBRANCH   5  35
BRANCH  10  40
ATOM     40  C   UNL     1     112.416 127.830 137.269  0.00  0.00    +0.000 C 
BRANCH  40  41
ATOM     41  C   UNL     1     112.766 128.020 136.547  0.00  0.00    +0.000 C 
ATOM     42  C   UNL     1     113.454 127.633 136.307  0.00  0.00    +0.000 C 
ATOM     43  C   UNL     1     113.804 127.825 135.585  0.00  0.00    +0.000 C 
BRANCH  42  44
ATOM     44  C   UNL     1     113.792 127.055 136.789  0.00  0.00    +0.000 C 
BRANCH  44  45
ATOM     45  C   UNL     1     114.092 126.363 136.454  0.00  0.00    +0.000 C 
BRANCH  45  46
ATOM     46  C   UNL     1     114.523 125.834 136.917  0.00  0.00    +0.000 C 
ATOM     47  C   UNL     1     114.458 125.022 136.785  0.00  0.00    +0.000 C 
ATOM     48  C   UNL     1     114.889 124.494 137.249  0.00  0.00    +0.000 C 
ATOM     49  C   UNL     1     113.962 124.740 136.189  0.00  0.00    +0.000 C 
ENDBRANCH  45  46
ENDBRANCH  44  45
ENDBRANCH  42  44
ENDBRANCH  40  41
ENDBRANCH  10  40
TORSDOF 11
ENDMDL
MODEL 2
REMARK VINA RESULT:      -9.2      7.743     10.867
REMARK  Name = 131836009
REMARK  11 active torsions:
REMARK  status: ('A' for Active; 'I' for Inactive)
REMARK    1  A    between atoms: O_2  and  C_17
REMARK    2  A    between atoms: O_2  and  C_20
REMARK    3  A    between atoms: C_18  and  C_19
REMARK    4  A    between atoms: C_21  and  C_26
REMARK    5  A    between atoms: C_26  and  C_31
REMARK    6  A    between atoms: C_27  and  C_30
REMARK    7  A    between atoms: C_29  and  C_32
REMARK    8  A    between atoms: C_30  and  C_33
REMARK    9  A    between atoms: C_35  and  C_36
REMARK   10  A    between atoms: C_36  and  C_39
REMARK   11  A    between atoms: C_39  and  C_46
REMARK                            x       y       z     vdW  Elec       q    Type
REMARK                         _______ _______ _______ _____ _____    ______ ____
ROOT
ATOM      1  O   UNL     1     105.669 126.291 144.992  0.00  0.00    +0.000 OA
ATOM      2  O   UNL     1     106.570 126.599 147.720  0.00  0.00    +0.000 OA
ATOM      3  O   UNL     1     106.833 127.615 146.730  0.00  0.00    +0.000 OA
ATOM      4  C   UNL     1     105.435 124.930 146.749  0.00  0.00    +0.000 A 
ATOM      5  C   UNL     1     105.838 125.389 147.352  0.00  0.00    +0.000 A 
ATOM      6  C   UNL     1     105.378 125.238 145.949  0.00  0.00    +0.000 A 
ATOM      7  C   UNL     1     106.114 126.442 146.342  0.00  0.00    +0.000 A 
ATOM      8  C   UNL     1     105.726 126.001 145.762  0.00  0.00    +0.000 A 
ATOM      9  C   UNL     1     106.181 126.151 147.147  0.00  0.00    +0.000 A 
ATOM     10  C   UNL     1     106.387 127.464 145.381  0.00  0.00    +0.000 A 
ATOM     11  C   UNL     1     106.445 127.174 146.151  0.00  0.00    +0.000 A 
ATOM     12  C   UNL     1     105.999 127.022 144.802  0.00  0.00    +0.000 A 
ENDROOT
BRANCH  12  16
ATOM     13  O   UNL     1     107.093 126.553 143.659  0.00  0.00    +0.000 OA
ATOM     14  O   UNL     1     104.676 128.654 142.863  0.00  0.00    +0.000 OA
ATOM     15  O   UNL     1     105.770 128.184 141.721  0.00  0.00    +0.000 OA
ATOM     16  C   UNL     1     105.942 127.313 144.031  0.00  0.00    +0.000 A 
ATOM     17  C   UNL     1     106.489 127.078 143.460  0.00  0.00    +0.000 A 
ATOM     18  C   UNL     1     105.337 127.838 143.833  0.00  0.00    +0.000 A 
ATOM     19  C   UNL     1     105.280 128.128 143.062  0.00  0.00    +0.000 A 
ATOM     20  C   UNL     1     106.431 127.368 142.690  0.00  0.00    +0.000 A 
ATOM     21  C   UNL     1     105.827 127.894 142.491  0.00  0.00    +0.000 A 
ENDBRANCH  12  16
BRANCH   4  22
ATOM     22  O   UNL     1     105.103 124.199 146.937  0.00  0.00    +0.000 OA
BRANCH  22  30
ATOM     23  O   UNL     1     103.738 124.501 147.231  0.00  0.00    +0.000 OA
ATOM     24  O   UNL     1     103.008 122.795 145.593  0.00  0.00    +0.000 OA
ATOM     25  O   UNL     1     104.617 123.061 145.846  0.00  0.00    +0.000 OA
ATOM     26  O   UNL     1     101.887 123.666 146.432  0.00  0.00    +0.000 OA
ATOM     27  C   UNL     1     103.251 123.364 146.139  0.00  0.00    +0.000 C 
ATOM     28  C   UNL     1     104.056 123.496 146.265  0.00  0.00    +0.000 C 
ATOM     29  C   UNL     1     102.690 123.799 146.558  0.00  0.00    +0.000 C 
ATOM     30  C   UNL     1     104.299 124.066 146.811  0.00  0.00    +0.000 C 
ATOM     31  C   UNL     1     102.934 124.368 147.104  0.00  0.00    +0.000 C 
BRANCH  31  34
ATOM     32  O   UNL     1     102.101 124.533 148.254  0.00  0.00    +0.000 OA
ATOM     33  O   UNL     1     102.083 125.511 147.212  0.00  0.00    +0.000 OA
ATOM     34  C   UNL     1     102.373 124.804 147.523  0.00  0.00    +0.000 C 
ENDBRANCH  31  34
ENDBRANCH  22  30
ENDBRANCH   4  22
BRANCH   5  35
ATOM     35  C   UNL     1     105.898 125.103 148.123  0.00  0.00    +0.000 C 
BRANCH  35  36
ATOM     36  C   UNL     1     106.625 124.843 148.412  0.00  0.00    +0.000 C 
ATOM     37  C   UNL     1     107.181 124.488 148.910  0.00  0.00    +0.000 C 
ATOM     38  C   UNL     1     107.980 124.495 148.707  0.00  0.00    +0.000 C 
ATOM     39  C   UNL     1     106.935 124.127 149.610  0.00  0.00    +0.000 C 
ENDBRANCH  35  36
ENDBRANCH   5  35
BRANCH  10  40
ATOM     40  C   UNL     1     106.718 128.196 145.190  0.00  0.00    +0.000 C 
BRANCH  40  41
ATOM     41  C   UNL     1     106.628 128.835 145.702  0.00  0.00    +0.000 C 
ATOM     42  C   UNL     1     107.109 129.500 145.621  0.00  0.00    +0.000 C 
ATOM     43  C   UNL     1     107.019 130.140 146.133  0.00  0.00    +0.000 C 
BRANCH  42  44
ATOM     44  C   UNL     1     107.681 129.526 145.026  0.00  0.00    +0.000 C 
BRANCH  44  45
ATOM     45  C   UNL     1     108.270 130.102 145.045  0.00  0.00    +0.000 C 
BRANCH  45  46
ATOM     46  C   UNL     1     108.673 130.304 144.353  0.00  0.00    +0.000 C 
ATOM     47  C   UNL     1     109.437 130.612 144.395  0.00  0.00    +0.000 C 
ATOM     48  C   UNL     1     109.838 130.814 143.704  0.00  0.00    +0.000 C 
ATOM     49  C   UNL     1     109.799 130.719 145.129  0.00  0.00    +0.000 C 
ENDBRANCH  45  46
ENDBRANCH  44  45
ENDBRANCH  42  44
ENDBRANCH  40  41
ENDBRANCH  10  40
TORSDOF 11
ENDMDL
MODEL 3
REMARK VINA RESULT:      -9.2      2.292      3.601
REMARK  Name = 131836009
REMARK  11 active torsions:
REMARK  status: ('A' for Active; 'I' for Inactive)
REMARK    1  A    between atoms: O_2  and  C_17
REMARK    2  A    between atoms: O_2  and  C_20
REMARK    3  A    between atoms: C_18  and  C_19
REMARK    4  A    between atoms: C_21  and  C_26
REMARK    5  A    between atoms: C_26  and  C_31
REMARK    6  A    between atoms: C_27  and  C_30
REMARK    7  A    between atoms: C_29  and  C_32
REMARK    8  A    between atoms: C_30  and  C_33
REMARK    9  A    between atoms: C_35  and  C_36
REMARK   10  A    between atoms: C_36  and  C_39
REMARK   11  A    between atoms: C_39  and  C_46
REMARK                            x       y       z     vdW  Elec       q    Type
REMARK                         _______ _______ _______ _____ _____    ______ ____
ROOT
ATOM      1  O   UNL     1     112.219 128.475 138.198  0.00  0.00    +0.000 OA
ATOM      2  O   UNL     1     113.892 128.505 135.843  0.00  0.00    +0.000 OA
ATOM      3  O   UNL     1     113.746 127.310 136.636  0.00  0.00    +0.000 OA
ATOM      4  C   UNL     1     112.660 130.132 136.764  0.00  0.00    +0.000 A 
ATOM      5  C   UNL     1     113.189 129.727 136.223  0.00  0.00    +0.000 A 
ATOM      6  C   UNL     1     112.331 129.705 137.434  0.00  0.00    +0.000 A 
ATOM      7  C   UNL     1     113.046 128.491 137.033  0.00  0.00    +0.000 A 
ATOM      8  C   UNL     1     112.538 128.879 137.553  0.00  0.00    +0.000 A 
ATOM      9  C   UNL     1     113.384 128.901 136.358  0.00  0.00    +0.000 A 
ATOM     10  C   UNL     1     112.919 127.293 137.802  0.00  0.00    +0.000 A 
ATOM     11  C   UNL     1     113.237 127.698 137.157  0.00  0.00    +0.000 A 
ATOM     12  C   UNL     1     112.410 127.682 138.322  0.00  0.00    +0.000 A 
ENDROOT
BRANCH  12  16
ATOM     13  O   UNL     1     110.879 127.072 138.239  0.00  0.00    +0.000 OA
ATOM     14  O   UNL     1     112.667 126.673 140.984  0.00  0.00    +0.000 OA
ATOM     15  O   UNL     1     111.138 126.063 140.901  0.00  0.00    +0.000 OA
ATOM     16  C   UNL     1     112.092 127.277 138.967  0.00  0.00    +0.000 A 
ATOM     17  C   UNL     1     111.327 126.972 138.925  0.00  0.00    +0.000 A 
ATOM     18  C   UNL     1     112.539 127.178 139.653  0.00  0.00    +0.000 A 
ATOM     19  C   UNL     1     112.221 126.773 140.298  0.00  0.00    +0.000 A 
ATOM     20  C   UNL     1     111.008 126.567 139.570  0.00  0.00    +0.000 A 
ATOM     21  C   UNL     1     111.456 126.468 140.256  0.00  0.00    +0.000 A 
ENDBRANCH  12  16
BRANCH   4  22
ATOM     22  O   UNL     1     112.467 130.924 136.642  0.00  0.00    +0.000 OA
BRANCH  22  30
ATOM     23  O   UNL     1     111.099 130.782 136.255  0.00  0.00    +0.000 OA
ATOM     24  O   UNL     1     110.487 132.685 137.715  0.00  0.00    +0.000 OA
ATOM     25  O   UNL     1     112.059 132.193 137.616  0.00  0.00    +0.000 OA
ATOM     26  O   UNL     1     109.324 131.908 136.841  0.00  0.00    +0.000 OA
ATOM     27  C   UNL     1     110.691 132.050 137.228  0.00  0.00    +0.000 C 
ATOM     28  C   UNL     1     111.478 131.805 137.179  0.00  0.00    +0.000 C 
ATOM     29  C   UNL     1     110.110 131.663 136.791  0.00  0.00    +0.000 C 
ATOM     30  C   UNL     1     111.682 131.170 136.692  0.00  0.00    +0.000 C 
ATOM     31  C   UNL     1     110.314 131.028 136.304  0.00  0.00    +0.000 C 
BRANCH  31  34
ATOM     32  O   UNL     1     109.281 130.044 136.217  0.00  0.00    +0.000 OA
ATOM     33  O   UNL     1     109.601 130.847 135.080  0.00  0.00    +0.000 OA
ATOM     34  C   UNL     1     109.732 130.640 135.867  0.00  0.00    +0.000 C 
ENDBRANCH  31  34
ENDBRANCH  22  30
ENDBRANCH   4  22
BRANCH   5  35
ATOM     35  C   UNL     1     113.510 130.128 135.577  0.00  0.00    +0.000 C 
BRANCH  35  36
ATOM     36  C   UNL     1     114.297 130.373 135.591  0.00  0.00    +0.000 C 
ATOM     37  C   UNL     1     115.006 130.721 135.351  0.00  0.00    +0.000 C 
ATOM     38  C   UNL     1     115.669 130.685 135.840  0.00  0.00    +0.000 C 
ATOM     39  C   UNL     1     115.050 131.105 134.622  0.00  0.00    +0.000 C 
ENDBRANCH  35  36
ENDBRANCH   5  35
BRANCH  10  40
ATOM     40  C   UNL     1     113.110 126.500 137.926  0.00  0.00    +0.000 C 
BRANCH  40  41
ATOM     41  C   UNL     1     113.856 126.218 137.719  0.00  0.00    +0.000 C 
ATOM     42  C   UNL     1     113.974 125.410 137.602  0.00  0.00    +0.000 C 
ATOM     43  C   UNL     1     114.721 125.128 137.394  0.00  0.00    +0.000 C 
BRANCH  42  44
ATOM     44  C   UNL     1     113.345 124.884 137.692  0.00  0.00    +0.000 C 
BRANCH  44  45
ATOM     45  C   UNL     1     113.213 124.297 137.127  0.00  0.00    +0.000 C 
BRANCH  45  46
ATOM     46  C   UNL     1     112.754 123.638 137.316  0.00  0.00    +0.000 C 
ATOM     47  C   UNL     1     112.149 123.398 136.809  0.00  0.00    +0.000 C 
ATOM     48  C   UNL     1     111.690 122.739 136.998  0.00  0.00    +0.000 C 
ATOM     49  C   UNL     1     112.003 123.817 136.113  0.00  0.00    +0.000 C 
ENDBRANCH  45  46
ENDBRANCH  44  45
ENDBRANCH  42  44
ENDBRANCH  40  41
ENDBRANCH  10  40
TORSDOF 11
ENDMDL
MODEL 4
REMARK VINA RESULT:      -9.0      1.660      2.405
REMARK  Name = 131836009
REMARK  11 active torsions:
REMARK  status: ('A' for Active; 'I' for Inactive)
REMARK    1  A    between atoms: O_2  and  C_17
REMARK    2  A    between atoms: O_2  and  C_20
REMARK    3  A    between atoms: C_18  and  C_19
REMARK    4  A    between atoms: C_21  and  C_26
REMARK    5  A    between atoms: C_26  and  C_31
REMARK    6  A    between atoms: C_27  and  C_30
REMARK    7  A    between atoms: C_29  and  C_32
REMARK    8  A    between atoms: C_30  and  C_33
REMARK    9  A    between atoms: C_35  and  C_36
REMARK   10  A    between atoms: C_36  and  C_39
REMARK   11  A    between atoms: C_39  and  C_46
REMARK                            x       y       z     vdW  Elec       q    Type
REMARK                         _______ _______ _______ _____ _____    ______ ____
ROOT
ATOM      1  O   UNL     1     111.413 128.860 140.026  0.00  0.00    +0.000 OA
ATOM      2  O   UNL     1     110.124 129.462 137.512  0.00  0.00    +0.000 OA
ATOM      3  O   UNL     1     111.300 128.629 137.564  0.00  0.00    +0.000 OA
ATOM      4  C   UNL     1     109.603 130.097 139.595  0.00  0.00    +0.000 A 
ATOM      5  C   UNL     1     109.564 130.017 138.741  0.00  0.00    +0.000 A 
ATOM      6  C   UNL     1     110.231 129.704 140.030  0.00  0.00    +0.000 A 
ATOM      7  C   UNL     1     110.775 129.158 138.783  0.00  0.00    +0.000 A 
ATOM      8  C   UNL     1     110.813 129.235 139.604  0.00  0.00    +0.000 A 
ATOM      9  C   UNL     1     110.154 129.544 138.332  0.00  0.00    +0.000 A 
ATOM     10  C   UNL     1     111.939 128.330 138.807  0.00  0.00    +0.000 A 
ATOM     11  C   UNL     1     111.338 128.706 138.385  0.00  0.00    +0.000 A 
ATOM     12  C   UNL     1     111.977 128.408 139.628  0.00  0.00    +0.000 A 
ENDROOT
BRANCH  12  16
ATOM     13  O   UNL     1     111.704 126.934 140.318  0.00  0.00    +0.000 OA
ATOM     14  O   UNL     1     114.655 128.379 140.627  0.00  0.00    +0.000 OA
ATOM     15  O   UNL     1     114.382 126.906 141.317  0.00  0.00    +0.000 OA
ATOM     16  C   UNL     1     112.578 128.032 140.050  0.00  0.00    +0.000 A 
ATOM     17  C   UNL     1     112.442 127.295 140.395  0.00  0.00    +0.000 A 
ATOM     18  C   UNL     1     113.315 128.394 140.127  0.00  0.00    +0.000 A 
ATOM     19  C   UNL     1     113.917 128.018 140.550  0.00  0.00    +0.000 A 
ATOM     20  C   UNL     1     113.043 126.920 140.817  0.00  0.00    +0.000 A 
ATOM     21  C   UNL     1     113.780 127.281 140.895  0.00  0.00    +0.000 A 
ENDBRANCH  12  16
BRANCH   4  22
ATOM     22  O   UNL     1     109.041 130.549 139.996  0.00  0.00    +0.000 OA
BRANCH  22  30
ATOM     23  O   UNL     1     108.355 129.542 140.743  0.00  0.00    +0.000 OA
ATOM     24  O   UNL     1     108.526 130.938 142.780  0.00  0.00    +0.000 OA
ATOM     25  O   UNL     1     109.155 131.479 141.354  0.00  0.00    +0.000 OA
ATOM     26  O   UNL     1     107.784 129.467 142.848  0.00  0.00    +0.000 OA
ATOM     27  C   UNL     1     108.469 130.473 142.101  0.00  0.00    +0.000 C 
ATOM     28  C   UNL     1     108.784 130.744 141.388  0.00  0.00    +0.000 C 
ATOM     29  C   UNL     1     108.098 129.737 142.135  0.00  0.00    +0.000 C 
ATOM     30  C   UNL     1     108.727 130.278 140.708  0.00  0.00    +0.000 C 
ATOM     31  C   UNL     1     108.041 129.272 141.455  0.00  0.00    +0.000 C 
BRANCH  31  34
ATOM     32  O   UNL     1     106.874 128.465 141.282  0.00  0.00    +0.000 OA
ATOM     33  O   UNL     1     108.094 127.871 141.731  0.00  0.00    +0.000 OA
ATOM     34  C   UNL     1     107.670 128.537 141.490  0.00  0.00    +0.000 C 
ENDBRANCH  31  34
ENDBRANCH  22  30
ENDBRANCH   4  22
BRANCH   5  35
ATOM     35  C   UNL     1     108.964 130.391 138.315  0.00  0.00    +0.000 C 
BRANCH  35  36
ATOM     36  C   UNL     1     109.100 131.128 137.971  0.00  0.00    +0.000 C 
ATOM     37  C   UNL     1     108.971 131.814 137.530  0.00  0.00    +0.000 C 
ATOM     38  C   UNL     1     109.557 132.392 137.487  0.00  0.00    +0.000 C 
ATOM     39  C   UNL     1     108.255 131.920 137.134  0.00  0.00    +0.000 C 
ENDBRANCH  35  36
ENDBRANCH   5  35
BRANCH  10  40
ATOM     40  C   UNL     1     112.503 127.878 138.409  0.00  0.00    +0.000 C 
BRANCH  40  41
ATOM     41  C   UNL     1     112.799 128.133 137.683  0.00  0.00    +0.000 C 
ATOM     42  C   UNL     1     113.187 127.602 137.186  0.00  0.00    +0.000 C 
ATOM     43  C   UNL     1     113.483 127.858 136.460  0.00  0.00    +0.000 C 
BRANCH  42  44
ATOM     44  C   UNL     1     113.278 126.814 137.414  0.00  0.00    +0.000 C 
BRANCH  44  45
ATOM     45  C   UNL     1     113.849 126.343 137.050  0.00  0.00    +0.000 C 
BRANCH  45  46
ATOM     46  C   UNL     1     114.055 125.615 137.379  0.00  0.00    +0.000 C 
ATOM     47  C   UNL     1     114.574 125.114 136.981  0.00  0.00    +0.000 C 
ATOM     48  C   UNL     1     114.779 124.386 137.311  0.00  0.00    +0.000 C 
ATOM     49  C   UNL     1     114.889 125.340 136.252  0.00  0.00    +0.000 C 
ENDBRANCH  45  46
ENDBRANCH  44  45
ENDBRANCH  42  44
ENDBRANCH  40  41
ENDBRANCH  10  40
TORSDOF 11
ENDMDL
MODEL 5
REMARK VINA RESULT:      -9.0      2.503      5.836
REMARK  Name = 131836009
REMARK  11 active torsions:
REMARK  status: ('A' for Active; 'I' for Inactive)
REMARK    1  A    between atoms: O_2  and  C_17
REMARK    2  A    between atoms: O_2  and  C_20
REMARK    3  A    between atoms: C_18  and  C_19
REMARK    4  A    between atoms: C_21  and  C_26
REMARK    5  A    between atoms: C_26  and  C_31
REMARK    6  A    between atoms: C_27  and  C_30
REMARK    7  A    between atoms: C_29  and  C_32
REMARK    8  A    between atoms: C_30  and  C_33
REMARK    9  A    between atoms: C_35  and  C_36
REMARK   10  A    between atoms: C_36  and  C_39
REMARK   11  A    between atoms: C_39  and  C_46
REMARK                            x       y       z     vdW  Elec       q    Type
REMARK                         _______ _______ _______ _____ _____    ______ ____
ROOT
ATOM      1  O   UNL     1     111.068 127.425 139.076  0.00  0.00    +0.000 OA
ATOM      2  O   UNL     1     113.539 128.749 138.377  0.00  0.00    +0.000 OA
ATOM      3  O   UNL     1     112.965 128.892 139.692  0.00  0.00    +0.000 OA
ATOM      4  C   UNL     1     112.214 127.417 137.158  0.00  0.00    +0.000 A 
ATOM      5  C   UNL     1     112.872 127.925 137.371  0.00  0.00    +0.000 A 
ATOM      6  C   UNL     1     111.602 127.248 137.737  0.00  0.00    +0.000 A 
ATOM      7  C   UNL     1     112.290 128.080 138.729  0.00  0.00    +0.000 A 
ATOM      8  C   UNL     1     111.658 127.591 138.524  0.00  0.00    +0.000 A 
ATOM      9  C   UNL     1     112.911 128.259 138.163  0.00  0.00    +0.000 A 
ATOM     10  C   UNL     1     111.743 128.238 140.040  0.00  0.00    +0.000 A 
ATOM     11  C   UNL     1     112.332 128.403 139.487  0.00  0.00    +0.000 A 
ATOM     12  C   UNL     1     111.110 127.749 139.834  0.00  0.00    +0.000 A 
ENDROOT
BRANCH  12  16
ATOM     13  O   UNL     1     111.165 126.349 140.706  0.00  0.00    +0.000 OA
ATOM     14  O   UNL     1     108.695 128.487 141.173  0.00  0.00    +0.000 OA
ATOM     15  O   UNL     1     108.750 127.088 142.044  0.00  0.00    +0.000 OA
ATOM     16  C   UNL     1     110.520 127.584 140.386  0.00  0.00    +0.000 A 
ATOM     17  C   UNL     1     110.548 126.884 140.822  0.00  0.00    +0.000 A 
ATOM     18  C   UNL     1     109.903 128.118 140.503  0.00  0.00    +0.000 A 
ATOM     19  C   UNL     1     109.313 127.953 141.056  0.00  0.00    +0.000 A 
ATOM     20  C   UNL     1     109.958 126.719 141.375  0.00  0.00    +0.000 A 
ATOM     21  C   UNL     1     109.340 127.253 141.492  0.00  0.00    +0.000 A 
ENDBRANCH  12  16
BRANCH   4  22
ATOM     22  O   UNL     1     112.169 127.092 136.401  0.00  0.00    +0.000 OA
BRANCH  22  30
ATOM     23  O   UNL     1     112.428 125.712 136.668  0.00  0.00    +0.000 OA
ATOM     24  O   UNL     1     110.474 125.078 135.288  0.00  0.00    +0.000 OA
ATOM     25  O   UNL     1     110.866 126.669 135.481  0.00  0.00    +0.000 OA
ATOM     26  O   UNL     1     111.384 123.911 136.015  0.00  0.00    +0.000 OA
ATOM     27  C   UNL     1     111.125 125.289 135.748  0.00  0.00    +0.000 C 
ATOM     28  C   UNL     1     111.321 126.085 135.844  0.00  0.00    +0.000 C 
ATOM     29  C   UNL     1     111.580 124.706 136.111  0.00  0.00    +0.000 C 
ATOM     30  C   UNL     1     111.973 126.297 136.305  0.00  0.00    +0.000 C 
ATOM     31  C   UNL     1     112.232 124.917 136.572  0.00  0.00    +0.000 C 
BRANCH  31  34
ATOM     32  O   UNL     1     113.402 124.097 136.598  0.00  0.00    +0.000 OA
ATOM     33  O   UNL     1     112.427 123.984 137.636  0.00  0.00    +0.000 OA
ATOM     34  C   UNL     1     112.687 124.333 136.935  0.00  0.00    +0.000 C 
ENDBRANCH  31  34
ENDBRANCH  22  30
ENDBRANCH   4  22
BRANCH   5  35
ATOM     35  C   UNL     1     113.464 128.093 136.822  0.00  0.00    +0.000 C 
BRANCH  35  36
ATOM     36  C   UNL     1     113.442 128.797 136.393  0.00  0.00    +0.000 C 
ATOM     37  C   UNL     1     113.650 129.379 135.846  0.00  0.00    +0.000 C 
ATOM     38  C   UNL     1     113.202 130.068 135.786  0.00  0.00    +0.000 C 
ATOM     39  C   UNL     1     114.308 129.269 135.359  0.00  0.00    +0.000 C 
ENDBRANCH  35  36
ENDBRANCH   5  35
BRANCH  10  40
ATOM     40  C   UNL     1     111.785 128.561 140.797  0.00  0.00    +0.000 C 
BRANCH  40  41
ATOM     41  C   UNL     1     112.143 129.294 140.913  0.00  0.00    +0.000 C 
ATOM     42  C   UNL     1     112.292 129.564 141.679  0.00  0.00    +0.000 C 
ATOM     43  C   UNL     1     112.651 130.298 141.794  0.00  0.00    +0.000 C 
BRANCH  42  44
ATOM     44  C   UNL     1     112.082 129.101 142.328  0.00  0.00    +0.000 C 
BRANCH  44  45
ATOM     45  C   UNL     1     111.964 129.453 143.065  0.00  0.00    +0.000 C 
BRANCH  45  46
ATOM     46  C   UNL     1     111.875 128.982 143.737  0.00  0.00    +0.000 C 
ATOM     47  C   UNL     1     111.627 129.321 144.447  0.00  0.00    +0.000 C 
ATOM     48  C   UNL     1     111.539 128.850 145.119  0.00  0.00    +0.000 C 
ATOM     49  C   UNL     1     111.467 130.129 144.486  0.00  0.00    +0.000 C 
ENDBRANCH  45  46
ENDBRANCH  44  45
ENDBRANCH  42  44
ENDBRANCH  40  41
ENDBRANCH  10  40
TORSDOF 11
ENDMDL
MODEL 6
REMARK VINA RESULT:      -9.0      8.393     11.445
REMARK  Name = 131836009
REMARK  11 active torsions:
REMARK  status: ('A' for Active; 'I' for Inactive)
REMARK    1  A    between atoms: O_2  and  C_17
REMARK    2  A    between atoms: O_2  and  C_20
REMARK    3  A    between atoms: C_18  and  C_19
REMARK    4  A    between atoms: C_21  and  C_26
REMARK    5  A    between atoms: C_26  and  C_31
REMARK    6  A    between atoms: C_27  and  C_30
REMARK    7  A    between atoms: C_29  and  C_32
REMARK    8  A    between atoms: C_30  and  C_33
REMARK    9  A    between atoms: C_35  and  C_36
REMARK   10  A    between atoms: C_36  and  C_39
REMARK   11  A    between atoms: C_39  and  C_46
REMARK                            x       y       z     vdW  Elec       q    Type
REMARK                         _______ _______ _______ _____ _____    ______ ____
ROOT
ATOM      1  O   UNL     1     105.179 127.447 146.571  0.00  0.00    +0.000 OA
ATOM      2  O   UNL     1     107.679 126.119 147.145  0.00  0.00    +0.000 OA
ATOM      3  O   UNL     1     107.653 127.467 146.632  0.00  0.00    +0.000 OA
ATOM      4  C   UNL     1     105.571 125.395 147.361  0.00  0.00    +0.000 A 
ATOM      5  C   UNL     1     106.429 125.401 147.383  0.00  0.00    +0.000 A 
ATOM      6  C   UNL     1     105.148 126.090 147.086  0.00  0.00    +0.000 A 
ATOM      7  C   UNL     1     106.415 126.789 146.855  0.00  0.00    +0.000 A 
ATOM      8  C   UNL     1     105.590 126.783 146.835  0.00  0.00    +0.000 A 
ATOM      9  C   UNL     1     106.855 126.104 147.128  0.00  0.00    +0.000 A 
ATOM     10  C   UNL     1     106.418 128.125 146.348  0.00  0.00    +0.000 A 
ATOM     11  C   UNL     1     106.829 127.461 146.612  0.00  0.00    +0.000 A 
ATOM     12  C   UNL     1     105.592 128.118 146.328  0.00  0.00    +0.000 A 
ENDROOT
BRANCH  12  16
ATOM     13  O   UNL     1     104.961 129.185 147.417  0.00  0.00    +0.000 OA
ATOM     14  O   UNL     1     104.578 129.713 144.183  0.00  0.00    +0.000 OA
ATOM     15  O   UNL     1     103.948 130.778 145.272  0.00  0.00    +0.000 OA
ATOM     16  C   UNL     1     105.181 128.783 146.064  0.00  0.00    +0.000 A 
ATOM     17  C   UNL     1     104.866 129.317 146.609  0.00  0.00    +0.000 A 
ATOM     18  C   UNL     1     105.086 128.915 145.255  0.00  0.00    +0.000 A 
ATOM     19  C   UNL     1     104.674 129.580 144.991  0.00  0.00    +0.000 A 
ATOM     20  C   UNL     1     104.455 129.981 146.345  0.00  0.00    +0.000 A 
ATOM     21  C   UNL     1     104.359 130.113 145.536  0.00  0.00    +0.000 A 
ENDBRANCH  12  16
BRANCH   4  22
ATOM     22  O   UNL     1     105.155 124.725 147.604  0.00  0.00    +0.000 OA
BRANCH  22  30
ATOM     23  O   UNL     1     104.791 124.169 146.339  0.00  0.00    +0.000 OA
ATOM     24  O   UNL     1     102.480 123.825 147.156  0.00  0.00    +0.000 OA
ATOM     25  O   UNL     1     103.614 124.496 148.149  0.00  0.00    +0.000 OA
ATOM     26  O   UNL     1     102.886 123.384 145.620  0.00  0.00    +0.000 OA
ATOM     27  C   UNL     1     103.250 123.939 146.884  0.00  0.00    +0.000 C 
ATOM     28  C   UNL     1     103.817 124.275 147.381  0.00  0.00    +0.000 C 
ATOM     29  C   UNL     1     103.453 123.719 146.116  0.00  0.00    +0.000 C 
ATOM     30  C   UNL     1     104.588 124.390 147.108  0.00  0.00    +0.000 C 
ATOM     31  C   UNL     1     104.224 123.834 145.843  0.00  0.00    +0.000 C 
BRANCH  31  34
ATOM     32  O   UNL     1     104.545 124.190 144.497  0.00  0.00    +0.000 OA
ATOM     33  O   UNL     1     104.511 122.815 144.884  0.00  0.00    +0.000 OA
ATOM     34  C   UNL     1     104.427 123.613 145.075  0.00  0.00    +0.000 C 
ENDBRANCH  31  34
ENDBRANCH  22  30
ENDBRANCH   4  22
BRANCH   5  35
ATOM     35  C   UNL     1     106.844 124.738 147.646  0.00  0.00    +0.000 C 
BRANCH  35  36
ATOM     36  C   UNL     1     107.209 124.746 148.385  0.00  0.00    +0.000 C 
ATOM     37  C   UNL     1     107.472 124.487 149.124  0.00  0.00    +0.000 C 
ATOM     38  C   UNL     1     107.903 124.995 149.609  0.00  0.00    +0.000 C 
ATOM     39  C   UNL     1     107.301 123.720 149.375  0.00  0.00    +0.000 C 
ENDBRANCH  35  36
ENDBRANCH   5  35
BRANCH  10  40
ATOM     40  C   UNL     1     106.831 128.797 146.105  0.00  0.00    +0.000 C 
BRANCH  40  41
ATOM     41  C   UNL     1     107.602 128.726 145.823  0.00  0.00    +0.000 C 
ATOM     42  C   UNL     1     108.061 129.401 145.701  0.00  0.00    +0.000 C 
ATOM     43  C   UNL     1     108.833 129.330 145.418  0.00  0.00    +0.000 C 
BRANCH  42  44
ATOM     44  C   UNL     1     107.747 130.147 145.861  0.00  0.00    +0.000 C 
BRANCH  44  45
ATOM     45  C   UNL     1     108.195 130.824 145.711  0.00  0.00    +0.000 C 
BRANCH  45  46
ATOM     46  C   UNL     1     107.820 131.551 145.603  0.00  0.00    +0.000 C 
ATOM     47  C   UNL     1     108.216 132.250 145.790  0.00  0.00    +0.000 C 
ATOM     48  C   UNL     1     107.840 132.977 145.682  0.00  0.00    +0.000 C 
ATOM     49  C   UNL     1     108.985 132.223 146.085  0.00  0.00    +0.000 C 
ENDBRANCH  45  46
ENDBRANCH  44  45
ENDBRANCH  42  44
ENDBRANCH  40  41
ENDBRANCH  10  40
TORSDOF 11
ENDMDL
MODEL 7
REMARK VINA RESULT:      -9.0      1.353      2.971
REMARK  Name = 131836009
REMARK  11 active torsions:
REMARK  status: ('A' for Active; 'I' for Inactive)
REMARK    1  A    between atoms: O_2  and  C_17
REMARK    2  A    between atoms: O_2  and  C_20
REMARK    3  A    between atoms: C_18  and  C_19
REMARK    4  A    between atoms: C_21  and  C_26
REMARK    5  A    between atoms: C_26  and  C_31
REMARK    6  A    between atoms: C_27  and  C_30
REMARK    7  A    between atoms: C_29  and  C_32
REMARK    8  A    between atoms: C_30  and  C_33
REMARK    9  A    between atoms: C_35  and  C_36
REMARK   10  A    between atoms: C_36  and  C_39
REMARK   11  A    between atoms: C_39  and  C_46
REMARK                            x       y       z     vdW  Elec       q    Type
REMARK                         _______ _______ _______ _____ _____    ______ ____
ROOT
ATOM      1  O   UNL     1     110.769 128.612 138.036  0.00  0.00    +0.000 OA
ATOM      2  O   UNL     1     112.215 129.489 140.379  0.00  0.00    +0.000 OA
ATOM      3  O   UNL     1     112.657 128.348 139.615  0.00  0.00    +0.000 OA
ATOM      4  C   UNL     1     110.364 130.314 139.426  0.00  0.00    +0.000 A 
ATOM      5  C   UNL     1     111.018 130.222 139.974  0.00  0.00    +0.000 A 
ATOM      6  C   UNL     1     110.280 129.766 138.769  0.00  0.00    +0.000 A 
ATOM      7  C   UNL     1     111.484 129.046 139.195  0.00  0.00    +0.000 A 
ATOM      8  C   UNL     1     110.855 129.134 138.669  0.00  0.00    +0.000 A 
ATOM      9  C   UNL     1     111.583 129.584 139.858  0.00  0.00    +0.000 A 
ATOM     10  C   UNL     1     111.944 127.913 138.456  0.00  0.00    +0.000 A 
ATOM     11  C   UNL     1     112.028 128.436 139.089  0.00  0.00    +0.000 A 
ATOM     12  C   UNL     1     111.314 128.001 137.930  0.00  0.00    +0.000 A 
ENDROOT
BRANCH  12  16
ATOM     13  O   UNL     1     111.858 128.425 136.431  0.00  0.00    +0.000 OA
ATOM     14  O   UNL     1     110.433 125.486 136.897  0.00  0.00    +0.000 OA
ATOM     15  O   UNL     1     110.976 125.910 135.399  0.00  0.00    +0.000 OA
ATOM     16  C   UNL     1     111.230 127.479 137.297  0.00  0.00    +0.000 A 
ATOM     17  C   UNL     1     111.501 127.691 136.548  0.00  0.00    +0.000 A 
ATOM     18  C   UNL     1     110.873 126.744 137.414  0.00  0.00    +0.000 A 
ATOM     19  C   UNL     1     110.789 126.221 136.781  0.00  0.00    +0.000 A 
ATOM     20  C   UNL     1     111.417 127.168 135.915  0.00  0.00    +0.000 A 
ATOM     21  C   UNL     1     111.061 126.433 136.032  0.00  0.00    +0.000 A 
ENDBRANCH  12  16
BRANCH   4  22
ATOM     22  O   UNL     1     109.818 130.923 139.530  0.00  0.00    +0.000 OA
BRANCH  22  30
ATOM     23  O   UNL     1     110.135 131.740 138.401  0.00  0.00    +0.000 OA
ATOM     24  O   UNL     1     107.724 131.994 137.906  0.00  0.00    +0.000 OA
ATOM     25  O   UNL     1     108.210 131.092 139.200  0.00  0.00    +0.000 OA
ATOM     26  O   UNL     1     108.845 132.725 136.943  0.00  0.00    +0.000 OA
ATOM     27  C   UNL     1     108.528 131.909 138.071  0.00  0.00    +0.000 C 
ATOM     28  C   UNL     1     108.770 131.458 138.718  0.00  0.00    +0.000 C 
ATOM     29  C   UNL     1     109.088 132.275 137.589  0.00  0.00    +0.000 C 
ATOM     30  C   UNL     1     109.575 131.374 138.884  0.00  0.00    +0.000 C 
ATOM     31  C   UNL     1     109.893 132.190 137.755  0.00  0.00    +0.000 C 
BRANCH  31  34
ATOM     32  O   UNL     1     110.749 133.300 137.475  0.00  0.00    +0.000 OA
ATOM     33  O   UNL     1     110.718 132.179 136.589  0.00  0.00    +0.000 OA
ATOM     34  C   UNL     1     110.453 132.556 137.273  0.00  0.00    +0.000 C 
ENDBRANCH  31  34
ENDBRANCH  22  30
ENDBRANCH   4  22
BRANCH   5  35
ATOM     35  C   UNL     1     111.107 130.743 140.608  0.00  0.00    +0.000 C 
BRANCH  35  36
ATOM     36  C   UNL     1     110.826 130.535 141.355  0.00  0.00    +0.000 C 
ATOM     37  C   UNL     1     110.666 130.579 142.164  0.00  0.00    +0.000 C 
ATOM     38  C   UNL     1     110.256 129.969 142.537  0.00  0.00    +0.000 C 
ATOM     39  C   UNL     1     110.917 131.235 142.597  0.00  0.00    +0.000 C 
ENDBRANCH  35  36
ENDBRANCH   5  35
BRANCH  10  40
ATOM     40  C   UNL     1     112.488 127.302 138.350  0.00  0.00    +0.000 C 
BRANCH  40  41
ATOM     41  C   UNL     1     112.882 126.983 139.000  0.00  0.00    +0.000 C 
ATOM     42  C   UNL     1     113.543 126.502 138.887  0.00  0.00    +0.000 C 
ATOM     43  C   UNL     1     113.936 126.182 139.538  0.00  0.00    +0.000 C 
BRANCH  42  44
ATOM     44  C   UNL     1     113.809 126.340 138.123  0.00  0.00    +0.000 C 
BRANCH  44  45
ATOM     45  C   UNL     1     114.144 125.606 137.950  0.00  0.00    +0.000 C 
BRANCH  45  46
ATOM     46  C   UNL     1     114.597 125.510 137.267  0.00  0.00    +0.000 C 
ATOM     47  C   UNL     1     114.506 124.834 136.803  0.00  0.00    +0.000 C 
ATOM     48  C   UNL     1     114.959 124.738 136.121  0.00  0.00    +0.000 C 
ATOM     49  C   UNL     1     113.961 124.254 137.021  0.00  0.00    +0.000 C 
ENDBRANCH  45  46
ENDBRANCH  44  45
ENDBRANCH  42  44
ENDBRANCH  40  41
ENDBRANCH  10  40
TORSDOF 11
ENDMDL
MODEL 8
REMARK VINA RESULT:      -8.9      2.184      4.113
REMARK  Name = 131836009
REMARK  11 active torsions:
REMARK  status: ('A' for Active; 'I' for Inactive)
REMARK    1  A    between atoms: O_2  and  C_17
REMARK    2  A    between atoms: O_2  and  C_20
REMARK    3  A    between atoms: C_18  and  C_19
REMARK    4  A    between atoms: C_21  and  C_26
REMARK    5  A    between atoms: C_26  and  C_31
REMARK    6  A    between atoms: C_27  and  C_30
REMARK    7  A    between atoms: C_29  and  C_32
REMARK    8  A    between atoms: C_30  and  C_33
REMARK    9  A    between atoms: C_35  and  C_36
REMARK   10  A    between atoms: C_36  and  C_39
REMARK   11  A    between atoms: C_39  and  C_46
REMARK                            x       y       z     vdW  Elec       q    Type
REMARK                         _______ _______ _______ _____ _____    ______ ____
ROOT
ATOM      1  O   UNL     1     110.298 127.723 139.083  0.00  0.00    +0.000 OA
ATOM      2  O   UNL     1     109.545 125.226 140.326  0.00  0.00    +0.000 OA
ATOM      3  O   UNL     1     110.545 125.268 139.288  0.00  0.00    +0.000 OA
ATOM      4  C   UNL     1     108.809 127.308 140.696  0.00  0.00    +0.000 A 
ATOM      5  C   UNL     1     108.895 126.457 140.767  0.00  0.00    +0.000 A 
ATOM      6  C   UNL     1     109.286 127.737 140.124  0.00  0.00    +0.000 A 
ATOM      7  C   UNL     1     109.925 126.488 139.698  0.00  0.00    +0.000 A 
ATOM      8  C   UNL     1     109.843 127.306 139.630  0.00  0.00    +0.000 A 
ATOM      9  C   UNL     1     109.457 126.044 140.265  0.00  0.00    +0.000 A 
ATOM     10  C   UNL     1     110.919 126.502 138.671  0.00  0.00    +0.000 A 
ATOM     11  C   UNL     1     110.463 126.086 139.219  0.00  0.00    +0.000 A 
ATOM     12  C   UNL     1     110.836 127.320 138.603  0.00  0.00    +0.000 A 
ENDROOT
BRANCH  12  16
ATOM     13  O   UNL     1     112.222 128.074 139.086  0.00  0.00    +0.000 OA
ATOM     14  O   UNL     1     111.273 128.231 135.929  0.00  0.00    +0.000 OA
ATOM     15  O   UNL     1     112.659 128.984 136.412  0.00  0.00    +0.000 OA
ATOM     16  C   UNL     1     111.292 127.736 138.055  0.00  0.00    +0.000 A 
ATOM     17  C   UNL     1     111.985 128.113 138.297  0.00  0.00    +0.000 A 
ATOM     18  C   UNL     1     111.054 127.775 137.266  0.00  0.00    +0.000 A 
ATOM     19  C   UNL     1     111.510 128.191 136.718  0.00  0.00    +0.000 A 
ATOM     20  C   UNL     1     112.440 128.529 137.749  0.00  0.00    +0.000 A 
ATOM     21  C   UNL     1     112.203 128.568 136.960  0.00  0.00    +0.000 A 
ENDBRANCH  12  16
BRANCH   4  22
ATOM     22  O   UNL     1     108.272 127.713 141.174  0.00  0.00    +0.000 OA
BRANCH  22  30
ATOM     23  O   UNL     1     109.174 128.412 142.034  0.00  0.00    +0.000 OA
ATOM     24  O   UNL     1     107.846 130.481 141.745  0.00  0.00    +0.000 OA
ATOM     25  O   UNL     1     107.387 129.092 140.981  0.00  0.00    +0.000 OA
ATOM     26  O   UNL     1     109.190 130.490 142.701  0.00  0.00    +0.000 OA
ATOM     27  C   UNL     1     108.289 129.791 141.841  0.00  0.00    +0.000 C 
ATOM     28  C   UNL     1     108.059 129.097 141.459  0.00  0.00    +0.000 C 
ATOM     29  C   UNL     1     108.961 129.796 142.319  0.00  0.00    +0.000 C 
ATOM     30  C   UNL     1     108.502 128.407 141.556  0.00  0.00    +0.000 C 
ATOM     31  C   UNL     1     109.404 129.106 142.416  0.00  0.00    +0.000 C 
BRANCH  31  34
ATOM     32  O   UNL     1     110.030 128.841 143.673  0.00  0.00    +0.000 OA
ATOM     33  O   UNL     1     110.793 129.386 142.594  0.00  0.00    +0.000 OA
ATOM     34  C   UNL     1     110.075 129.111 142.894  0.00  0.00    +0.000 C 
ENDBRANCH  31  34
ENDBRANCH  22  30
ENDBRANCH   4  22
BRANCH   5  35
ATOM     35  C   UNL     1     108.441 126.037 141.314  0.00  0.00    +0.000 C 
BRANCH  35  36
ATOM     36  C   UNL     1     107.761 125.641 141.068  0.00  0.00    +0.000 C 
ATOM     37  C   UNL     1     107.056 125.214 141.106  0.00  0.00    +0.000 C 
ATOM     38  C   UNL     1     106.658 125.012 140.413  0.00  0.00    +0.000 C 
ATOM     39  C   UNL     1     106.749 124.989 141.839  0.00  0.00    +0.000 C 
ENDBRANCH  35  36
ENDBRANCH   5  35
BRANCH  10  40
ATOM     40  C   UNL     1     111.456 126.100 138.192  0.00  0.00    +0.000 C 
BRANCH  40  41
ATOM     41  C   UNL     1     111.293 125.331 137.943  0.00  0.00    +0.000 C 
ATOM     42  C   UNL     1     111.874 124.889 137.560  0.00  0.00    +0.000 C 
ATOM     43  C   UNL     1     111.710 124.119 137.312  0.00  0.00    +0.000 C 
BRANCH  42  44
ATOM     44  C   UNL     1     112.620 125.215 137.426  0.00  0.00    +0.000 C 
BRANCH  44  45
ATOM     45  C   UNL     1     113.221 124.752 137.102  0.00  0.00    +0.000 C 
BRANCH  45  46
ATOM     46  C   UNL     1     113.751 125.082 136.562  0.00  0.00    +0.000 C 
ATOM     47  C   UNL     1     114.563 125.003 136.681  0.00  0.00    +0.000 C 
ATOM     48  C   UNL     1     115.092 125.334 136.141  0.00  0.00    +0.000 C 
ATOM     49  C   UNL     1     114.846 124.594 137.339  0.00  0.00    +0.000 C 
ENDBRANCH  45  46
ENDBRANCH  44  45
ENDBRANCH  42  44
ENDBRANCH  40  41
ENDBRANCH  10  40
TORSDOF 11
ENDMDL
MODEL 9
REMARK VINA RESULT:      -8.9      1.892      6.133
REMARK  Name = 131836009
REMARK  11 active torsions:
REMARK  status: ('A' for Active; 'I' for Inactive)
REMARK    1  A    between atoms: O_2  and  C_17
REMARK    2  A    between atoms: O_2  and  C_20
REMARK    3  A    between atoms: C_18  and  C_19
REMARK    4  A    between atoms: C_21  and  C_26
REMARK    5  A    between atoms: C_26  and  C_31
REMARK    6  A    between atoms: C_27  and  C_30
REMARK    7  A    between atoms: C_29  and  C_32
REMARK    8  A    between atoms: C_30  and  C_33
REMARK    9  A    between atoms: C_35  and  C_36
REMARK   10  A    between atoms: C_36  and  C_39
REMARK   11  A    between atoms: C_39  and  C_46
REMARK                            x       y       z     vdW  Elec       q    Type
REMARK                         _______ _______ _______ _____ _____    ______ ____
ROOT
ATOM      1  O   UNL     1     111.968 127.607 139.053  0.00  0.00    +0.000 OA
ATOM      2  O   UNL     1     111.931 129.347 136.747  0.00  0.00    +0.000 OA
ATOM      3  O   UNL     1     111.176 129.668 137.933  0.00  0.00    +0.000 OA
ATOM      4  C   UNL     1     113.006 127.412 137.084  0.00  0.00    +0.000 A 
ATOM      5  C   UNL     1     112.731 128.126 136.695  0.00  0.00    +0.000 A 
ATOM      6  C   UNL     1     112.746 127.237 137.884  0.00  0.00    +0.000 A 
ATOM      7  C   UNL     1     111.950 128.467 137.912  0.00  0.00    +0.000 A 
ATOM      8  C   UNL     1     112.214 127.780 138.285  0.00  0.00    +0.000 A 
ATOM      9  C   UNL     1     112.199 128.658 137.112  0.00  0.00    +0.000 A 
ATOM     10  C   UNL     1     111.193 128.808 139.075  0.00  0.00    +0.000 A 
ATOM     11  C   UNL     1     111.440 128.981 138.306  0.00  0.00    +0.000 A 
ATOM     12  C   UNL     1     111.458 128.121 139.448  0.00  0.00    +0.000 A 
ENDROOT
BRANCH  12  16
ATOM     13  O   UNL     1     110.188 127.097 139.696  0.00  0.00    +0.000 OA
ATOM     14  O   UNL     1     111.740 128.454 142.273  0.00  0.00    +0.000 OA
ATOM     15  O   UNL     1     110.471 127.431 142.521  0.00  0.00    +0.000 OA
ATOM     16  C   UNL     1     111.211 127.949 140.216  0.00  0.00    +0.000 A 
ATOM     17  C   UNL     1     110.576 127.437 140.340  0.00  0.00    +0.000 A 
ATOM     18  C   UNL     1     111.599 128.288 140.860  0.00  0.00    +0.000 A 
ATOM     19  C   UNL     1     111.353 128.115 141.628  0.00  0.00    +0.000 A 
ATOM     20  C   UNL     1     110.330 127.264 141.108  0.00  0.00    +0.000 A 
ATOM     21  C   UNL     1     110.718 127.604 141.752  0.00  0.00    +0.000 A 
ENDBRANCH  12  16
BRANCH   4  22
ATOM     22  O   UNL     1     113.517 126.896 136.692  0.00  0.00    +0.000 OA
BRANCH  22  30
ATOM     23  O   UNL     1     112.654 125.761 136.596  0.00  0.00    +0.000 OA
ATOM     24  O   UNL     1     114.540 124.276 137.196  0.00  0.00    +0.000 OA
ATOM     25  O   UNL     1     114.774 125.906 137.092  0.00  0.00    +0.000 OA
ATOM     26  O   UNL     1     113.049 123.637 136.900  0.00  0.00    +0.000 OA
ATOM     27  C   UNL     1     113.912 124.771 136.996  0.00  0.00    +0.000 C 
ATOM     28  C   UNL     1     114.029 125.586 136.944  0.00  0.00    +0.000 C 
ATOM     29  C   UNL     1     113.166 124.451 136.848  0.00  0.00    +0.000 C 
ATOM     30  C   UNL     1     113.400 126.082 136.744  0.00  0.00    +0.000 C 
ATOM     31  C   UNL     1     112.537 124.947 136.648  0.00  0.00    +0.000 C 
BRANCH  31  34
ATOM     32  O   UNL     1     111.283 124.455 137.127  0.00  0.00    +0.000 OA
ATOM     33  O   UNL     1     111.553 124.478 135.724  0.00  0.00    +0.000 OA
ATOM     34  C   UNL     1     111.792 124.627 136.500  0.00  0.00    +0.000 C 
ENDBRANCH  31  34
ENDBRANCH  22  30
ENDBRANCH   4  22
BRANCH   5  35
ATOM     35  C   UNL     1     112.976 128.303 135.927  0.00  0.00    +0.000 C 
BRANCH  35  36
ATOM     36  C   UNL     1     113.575 128.854 135.801  0.00  0.00    +0.000 C 
ATOM     37  C   UNL     1     114.156 129.293 135.412  0.00  0.00    +0.000 C 
ATOM     38  C   UNL     1     114.584 129.866 135.823  0.00  0.00    +0.000 C 
ATOM     39  C   UNL     1     114.308 129.158 134.612  0.00  0.00    +0.000 C 
ENDBRANCH  35  36
ENDBRANCH   5  35
BRANCH  10  40
ATOM     40  C   UNL     1     110.683 129.322 139.469  0.00  0.00    +0.000 C 
BRANCH  40  41
ATOM     41  C   UNL     1     110.758 130.137 139.369  0.00  0.00    +0.000 C 
ATOM     42  C   UNL     1     110.149 130.640 139.604  0.00  0.00    +0.000 C 
ATOM     43  C   UNL     1     110.225 131.456 139.503  0.00  0.00    +0.000 C 
BRANCH  42  44
ATOM     44  C   UNL     1     109.463 130.329 139.941  0.00  0.00    +0.000 C 
BRANCH  44  45
ATOM     45  C   UNL     1     109.074 130.740 140.541  0.00  0.00    +0.000 C 
BRANCH  45  46
ATOM     46  C   UNL     1     108.279 130.586 140.699  0.00  0.00    +0.000 C 
ATOM     47  C   UNL     1     108.009 130.568 141.478  0.00  0.00    +0.000 C 
ATOM     48  C   UNL     1     107.214 130.414 141.635  0.00  0.00    +0.000 C 
ATOM     49  C   UNL     1     108.534 130.702 142.100  0.00  0.00    +0.000 C 
ENDBRANCH  45  46
ENDBRANCH  44  45
ENDBRANCH  42  44
ENDBRANCH  40  41
ENDBRANCH  10  40
TORSDOF 11
ENDMDL
MODEL 10
REMARK VINA RESULT:      -8.9      1.656      3.841
REMARK  Name = 131836009
REMARK  11 active torsions:
REMARK  status: ('A' for Active; 'I' for Inactive)
REMARK    1  A    between atoms: O_2  and  C_17
REMARK    2  A    between atoms: O_2  and  C_20
REMARK    3  A    between atoms: C_18  and  C_19
REMARK    4  A    between atoms: C_21  and  C_26
REMARK    5  A    between atoms: C_26  and  C_31
REMARK    6  A    between atoms: C_27  and  C_30
REMARK    7  A    between atoms: C_29  and  C_32
REMARK    8  A    between atoms: C_30  and  C_33
REMARK    9  A    between atoms: C_35  and  C_36
REMARK   10  A    between atoms: C_36  and  C_39
REMARK   11  A    between atoms: C_39  and  C_46
REMARK                            x       y       z     vdW  Elec       q    Type
REMARK                         _______ _______ _______ _____ _____    ______ ____
ROOT
ATOM      1  O   UNL     1     111.750 129.813 137.070  0.00  0.00    +0.000 OA
ATOM      2  O   UNL     1     110.328 128.767 139.356  0.00  0.00    +0.000 OA
ATOM      3  O   UNL     1     111.475 128.080 138.816  0.00  0.00    +0.000 OA
ATOM      4  C   UNL     1     109.962 130.614 138.144  0.00  0.00    +0.000 A 
ATOM      5  C   UNL     1     109.866 130.012 138.749  0.00  0.00    +0.000 A 
ATOM      6  C   UNL     1     110.602 130.545 137.574  0.00  0.00    +0.000 A 
ATOM      7  C   UNL     1     111.046 129.296 138.201  0.00  0.00    +0.000 A 
ATOM      8  C   UNL     1     111.138 129.874 137.619  0.00  0.00    +0.000 A 
ATOM      9  C   UNL     1     110.412 129.349 138.778  0.00  0.00    +0.000 A 
ATOM     10  C   UNL     1     112.180 128.595 137.685  0.00  0.00    +0.000 A 
ATOM     11  C   UNL     1     111.567 128.657 138.234  0.00  0.00    +0.000 A 
ATOM     12  C   UNL     1     112.271 129.174 137.103  0.00  0.00    +0.000 A 
ENDROOT
BRANCH  12  16
ATOM     13  O   UNL     1     111.999 128.463 135.639  0.00  0.00    +0.000 OA
ATOM     14  O   UNL     1     114.995 129.637 136.370  0.00  0.00    +0.000 OA
ATOM     15  O   UNL     1     114.722 128.927 134.907  0.00  0.00    +0.000 OA
ATOM     16  C   UNL     1     112.884 129.112 136.554  0.00  0.00    +0.000 A 
ATOM     17  C   UNL     1     112.748 128.757 135.822  0.00  0.00    +0.000 A 
ATOM     18  C   UNL     1     113.633 129.406 136.737  0.00  0.00    +0.000 A 
ATOM     19  C   UNL     1     114.246 129.344 136.188  0.00  0.00    +0.000 A 
ATOM     20  C   UNL     1     113.361 128.695 135.273  0.00  0.00    +0.000 A 
ATOM     21  C   UNL     1     114.109 128.989 135.456  0.00  0.00    +0.000 A 
ENDBRANCH  12  16
BRANCH   4  22
ATOM     22  O   UNL     1     109.443 131.254 138.108  0.00  0.00    +0.000 OA
BRANCH  22  30
ATOM     23  O   UNL     1     108.637 131.042 136.948  0.00  0.00    +0.000 OA
ATOM     24  O   UNL     1     109.344 133.239 136.055  0.00  0.00    +0.000 OA
ATOM     25  O   UNL     1     109.914 132.719 137.513  0.00  0.00    +0.000 OA
ATOM     26  O   UNL     1     108.303 132.295 135.192  0.00  0.00    +0.000 OA
ATOM     27  C   UNL     1     109.109 132.507 136.353  0.00  0.00    +0.000 C 
ATOM     28  C   UNL     1     109.394 132.247 137.082  0.00  0.00    +0.000 C 
ATOM     29  C   UNL     1     108.588 132.035 135.921  0.00  0.00    +0.000 C 
ATOM     30  C   UNL     1     109.158 131.514 137.380  0.00  0.00    +0.000 C 
ATOM     31  C   UNL     1     108.352 131.302 136.219  0.00  0.00    +0.000 C 
BRANCH  31  34
ATOM     32  O   UNL     1     107.018 130.954 135.843  0.00  0.00    +0.000 OA
ATOM     33  O   UNL     1     108.125 130.233 135.299  0.00  0.00    +0.000 OA
ATOM     34  C   UNL     1     107.832 130.830 135.787  0.00  0.00    +0.000 C 
ENDBRANCH  31  34
ENDBRANCH  22  30
ENDBRANCH   4  22
BRANCH   5  35
ATOM     35  C   UNL     1     109.255 130.070 139.300  0.00  0.00    +0.000 C 
BRANCH  35  36
ATOM     36  C   UNL     1     109.404 130.372 140.053  0.00  0.00    +0.000 C 
ATOM     37  C   UNL     1     109.272 130.628 140.826  0.00  0.00    +0.000 C 
ATOM     38  C   UNL     1     109.899 130.912 141.280  0.00  0.00    +0.000 C 
ATOM     39  C   UNL     1     108.512 130.598 141.146  0.00  0.00    +0.000 C 
ENDBRANCH  35  36
ENDBRANCH   5  35
BRANCH  10  40
ATOM     40  C   UNL     1     112.700 127.956 137.718  0.00  0.00    +0.000 C 
BRANCH  40  41
ATOM     41  C   UNL     1     112.929 127.648 138.447  0.00  0.00    +0.000 C 
ATOM     42  C   UNL     1     113.290 126.907 138.487  0.00  0.00    +0.000 C 
ATOM     43  C   UNL     1     113.519 126.599 139.217  0.00  0.00    +0.000 C 
BRANCH  42  44
ATOM     44  C   UNL     1     113.423 126.475 137.796  0.00  0.00    +0.000 C 
BRANCH  44  45
ATOM     45  C   UNL     1     113.921 125.818 137.811  0.00  0.00    +0.000 C 
BRANCH  45  46
ATOM     46  C   UNL     1     114.435 125.676 137.180  0.00  0.00    +0.000 C 
ATOM     47  C   UNL     1     114.542 124.908 136.900  0.00  0.00    +0.000 C 
ATOM     48  C   UNL     1     115.055 124.767 136.271  0.00  0.00    +0.000 C 
ATOM     49  C   UNL     1     114.135 124.281 137.250  0.00  0.00    +0.000 C 
ENDBRANCH  45  46
ENDBRANCH  44  45
ENDBRANCH  42  44
ENDBRANCH  40  41
ENDBRANCH  10  40
TORSDOF 11
ENDMDL
