MODEL 1
REMARK VINA RESULT:      -7.7      0.000      0.000
REMARK  Name = 75072279
REMARK  4 active torsions:
REMARK  status: ('A' for Active; 'I' for Inactive)
REMARK    1  A    between atoms: O_2  and  C_16
REMARK    2  A    between atoms: O_3  and  C_18
REMARK    3  A    between atoms: O_4  and  C_20
REMARK    4  A    between atoms: C_6  and  C_10
REMARK                            x       y       z     vdW  Elec       q    Type
REMARK                         _______ _______ _______ _____ _____    ______ ____
ROOT
ATOM      1  O   UNL     1     102.457 132.181 141.528  0.00  0.00    +0.000 OA
ATOM      2  C   UNL     1     102.100 131.469 141.744  0.00  0.00    +0.000 C 
ATOM      3  C   UNL     1     101.320 131.464 142.012  0.00  0.00    +0.000 C 
ATOM      4  C   UNL     1     100.897 132.171 142.064  0.00  0.00    +0.000 C 
ATOM      5  C   UNL     1     101.255 132.882 141.849  0.00  0.00    +0.000 A 
ATOM      6  C   UNL     1     102.035 132.887 141.581  0.00  0.00    +0.000 A 
ATOM      7  C   UNL     1     100.805 133.612 141.908  0.00  0.00    +0.000 A 
ATOM      8  C   UNL     1     102.419 133.622 141.353  0.00  0.00    +0.000 A 
ATOM      9  C   UNL     1     101.984 134.361 141.406  0.00  0.00    +0.000 A 
ATOM     10  C   UNL     1     101.171 134.356 141.685  0.00  0.00    +0.000 A 
ENDROOT
BRANCH   2  12
ATOM     11  O   UNL     1     103.768 129.487 142.951  0.00  0.00    +0.000 OA
ATOM     12  C   UNL     1     102.522 130.763 141.691  0.00  0.00    +0.000 A 
ATOM     13  C   UNL     1     102.533 130.339 140.983  0.00  0.00    +0.000 A 
ATOM     14  C   UNL     1     102.934 130.479 142.347  0.00  0.00    +0.000 A 
ATOM     15  C   UNL     1     102.955 129.633 140.930  0.00  0.00    +0.000 A 
ATOM     16  C   UNL     1     103.356 129.771 142.295  0.00  0.00    +0.000 A 
ATOM     17  C   UNL     1     103.367 129.349 141.586  0.00  0.00    +0.000 A 
BRANCH  15  18
ATOM     18  O   UNL     1     102.966 129.210 140.222  0.00  0.00    +0.000 OA
ATOM     19  C   UNL     1     102.319 129.245 139.711  0.00  0.00    +0.000 C 
ENDBRANCH  15  18
BRANCH  17  20
ATOM     20  O   UNL     1     103.789 128.642 141.534  0.00  0.00    +0.000 OA
ATOM     21  C   UNL     1     104.607 128.642 141.640  0.00  0.00    +0.000 C 
ENDBRANCH  17  20
ENDBRANCH   2  12
BRANCH   9  22
ATOM     22  O   UNL     1     102.345 135.071 141.190  0.00  0.00    +0.000 OA
ATOM     23  C   UNL     1     102.221 135.384 140.437  0.00  0.00    +0.000 C 
ENDBRANCH   9  22
TORSDOF 4
ENDMDL
MODEL 2
REMARK VINA RESULT:      -7.7      7.807      9.205
REMARK  Name = 75072279
REMARK  4 active torsions:
REMARK  status: ('A' for Active; 'I' for Inactive)
REMARK    1  A    between atoms: O_2  and  C_16
REMARK    2  A    between atoms: O_3  and  C_18
REMARK    3  A    between atoms: O_4  and  C_20
REMARK    4  A    between atoms: C_6  and  C_10
REMARK                            x       y       z     vdW  Elec       q    Type
REMARK                         _______ _______ _______ _____ _____    ______ ____
ROOT
ATOM      1  O   UNL     1     104.327 123.572 137.956  0.00  0.00    +0.000 OA
ATOM      2  C   UNL     1     103.986 123.755 138.685  0.00  0.00    +0.000 C 
ATOM      3  C   UNL     1     103.165 123.762 138.766  0.00  0.00    +0.000 C 
ATOM      4  C   UNL     1     102.685 123.586 138.118  0.00  0.00    +0.000 C 
ATOM      5  C   UNL     1     103.027 123.404 137.389  0.00  0.00    +0.000 A 
ATOM      6  C   UNL     1     103.848 123.397 137.309  0.00  0.00    +0.000 A 
ATOM      7  C   UNL     1     102.516 123.222 136.722  0.00  0.00    +0.000 A 
ATOM      8  C   UNL     1     104.215 123.208 136.555  0.00  0.00    +0.000 A 
ATOM      9  C   UNL     1     103.721 123.025 135.877  0.00  0.00    +0.000 A 
ATOM     10  C   UNL     1     102.865 123.032 135.961  0.00  0.00    +0.000 A 
ENDROOT
BRANCH   2  12
ATOM     11  O   UNL     1     105.858 125.481 139.983  0.00  0.00    +0.000 OA
ATOM     12  C   UNL     1     104.465 123.930 139.333  0.00  0.00    +0.000 A 
ATOM     13  C   UNL     1     104.488 123.419 139.980  0.00  0.00    +0.000 A 
ATOM     14  C   UNL     1     104.921 124.617 139.334  0.00  0.00    +0.000 A 
ATOM     15  C   UNL     1     104.967 123.595 140.628  0.00  0.00    +0.000 A 
ATOM     16  C   UNL     1     105.401 124.794 139.982  0.00  0.00    +0.000 A 
ATOM     17  C   UNL     1     105.424 124.282 140.629  0.00  0.00    +0.000 A 
BRANCH  15  18
ATOM     18  O   UNL     1     104.990 123.084 141.275  0.00  0.00    +0.000 OA
ATOM     19  C   UNL     1     104.294 122.743 141.556  0.00  0.00    +0.000 C 
ENDBRANCH  15  18
BRANCH  17  20
ATOM     20  O   UNL     1     105.904 124.458 141.277  0.00  0.00    +0.000 OA
ATOM     21  C   UNL     1     106.724 124.414 141.206  0.00  0.00    +0.000 C 
ENDBRANCH  17  20
ENDBRANCH   2  12
BRANCH   9  22
ATOM     22  O   UNL     1     104.065 122.843 135.149  0.00  0.00    +0.000 OA
ATOM     23  C   UNL     1     104.250 123.446 134.618  0.00  0.00    +0.000 C 
ENDBRANCH   9  22
TORSDOF 4
ENDMDL
MODEL 3
REMARK VINA RESULT:      -7.5      8.976     10.046
REMARK  Name = 75072279
REMARK  4 active torsions:
REMARK  status: ('A' for Active; 'I' for Inactive)
REMARK    1  A    between atoms: O_2  and  C_16
REMARK    2  A    between atoms: O_3  and  C_18
REMARK    3  A    between atoms: O_4  and  C_20
REMARK    4  A    between atoms: C_6  and  C_10
REMARK                            x       y       z     vdW  Elec       q    Type
REMARK                         _______ _______ _______ _____ _____    ______ ____
ROOT
ATOM      1  O   UNL     1     104.954 124.455 147.598  0.00  0.00    +0.000 OA
ATOM      2  C   UNL     1     104.589 124.532 146.861  0.00  0.00    +0.000 C 
ATOM      3  C   UNL     1     105.004 124.860 146.228  0.00  0.00    +0.000 C 
ATOM      4  C   UNL     1     105.783 125.112 146.331  0.00  0.00    +0.000 C 
ATOM      5  C   UNL     1     106.147 125.035 147.068  0.00  0.00    +0.000 A 
ATOM      6  C   UNL     1     105.732 124.707 147.701  0.00  0.00    +0.000 A 
ATOM      7  C   UNL     1     106.959 125.301 147.163  0.00  0.00    +0.000 A 
ATOM      8  C   UNL     1     106.100 124.621 148.473  0.00  0.00    +0.000 A 
ATOM      9  C   UNL     1     106.911 124.882 148.587  0.00  0.00    +0.000 A 
ATOM     10  C   UNL     1     107.344 125.224 147.927  0.00  0.00    +0.000 A 
ENDROOT
BRANCH   2  12
ATOM     11  O   UNL     1     102.704 122.740 145.677  0.00  0.00    +0.000 OA
ATOM     12  C   UNL     1     103.811 124.280 146.758  0.00  0.00    +0.000 A 
ATOM     13  C   UNL     1     103.195 124.673 147.143  0.00  0.00    +0.000 A 
ATOM     14  C   UNL     1     103.647 123.636 146.269  0.00  0.00    +0.000 A 
ATOM     15  C   UNL     1     102.417 124.421 147.039  0.00  0.00    +0.000 A 
ATOM     16  C   UNL     1     102.867 123.384 146.165  0.00  0.00    +0.000 A 
ATOM     17  C   UNL     1     102.253 123.777 146.551  0.00  0.00    +0.000 A 
BRANCH  15  18
ATOM     18  O   UNL     1     101.801 124.814 147.424  0.00  0.00    +0.000 OA
ATOM     19  C   UNL     1     101.970 125.382 147.997  0.00  0.00    +0.000 C 
ENDBRANCH  15  18
BRANCH  17  20
ATOM     20  O   UNL     1     101.473 123.525 146.447  0.00  0.00    +0.000 OA
ATOM     21  C   UNL     1     101.140 123.518 145.692  0.00  0.00    +0.000 C 
ENDBRANCH  17  20
ENDBRANCH   2  12
BRANCH   9  22
ATOM     22  O   UNL     1     107.273 124.804 149.324  0.00  0.00    +0.000 OA
ATOM     23  C   UNL     1     107.852 124.228 149.441  0.00  0.00    +0.000 C 
ENDBRANCH   9  22
TORSDOF 4
ENDMDL
MODEL 4
REMARK VINA RESULT:      -7.4     12.172     13.069
REMARK  Name = 75072279
REMARK  4 active torsions:
REMARK  status: ('A' for Active; 'I' for Inactive)
REMARK    1  A    between atoms: O_2  and  C_16
REMARK    2  A    between atoms: O_3  and  C_18
REMARK    3  A    between atoms: O_4  and  C_20
REMARK    4  A    between atoms: C_6  and  C_10
REMARK                            x       y       z     vdW  Elec       q    Type
REMARK                         _______ _______ _______ _____ _____    ______ ____
ROOT
ATOM      1  O   UNL     1     113.649 127.580 136.040  0.00  0.00    +0.000 OA
ATOM      2  C   UNL     1     113.199 127.223 136.633  0.00  0.00    +0.000 C 
ATOM      3  C   UNL     1     112.899 127.677 137.253  0.00  0.00    +0.000 C 
ATOM      4  C   UNL     1     113.050 128.489 137.281  0.00  0.00    +0.000 C 
ATOM      5  C   UNL     1     113.499 128.845 136.688  0.00  0.00    +0.000 A 
ATOM      6  C   UNL     1     113.799 128.390 136.067  0.00  0.00    +0.000 A 
ATOM      7  C   UNL     1     113.649 129.690 136.727  0.00  0.00    +0.000 A 
ATOM      8  C   UNL     1     114.269 128.751 135.444  0.00  0.00    +0.000 A 
ATOM      9  C   UNL     1     114.428 129.594 135.467  0.00  0.00    +0.000 A 
ATOM     10  C   UNL     1     114.116 130.068 136.114  0.00  0.00    +0.000 A 
ENDROOT
BRANCH   2  12
ATOM     11  O   UNL     1     111.497 125.045 135.907  0.00  0.00    +0.000 OA
ATOM     12  C   UNL     1     113.049 126.413 136.605  0.00  0.00    +0.000 A 
ATOM     13  C   UNL     1     113.598 125.880 136.913  0.00  0.00    +0.000 A 
ATOM     14  C   UNL     1     112.348 126.134 136.270  0.00  0.00    +0.000 A 
ATOM     15  C   UNL     1     113.448 125.070 136.886  0.00  0.00    +0.000 A 
ATOM     16  C   UNL     1     112.198 125.323 136.242  0.00  0.00    +0.000 A 
ATOM     17  C   UNL     1     112.748 124.791 136.550  0.00  0.00    +0.000 A 
BRANCH  15  18
ATOM     18  O   UNL     1     113.998 124.537 137.194  0.00  0.00    +0.000 OA
ATOM     19  C   UNL     1     114.775 124.779 137.329  0.00  0.00    +0.000 C 
ENDBRANCH  15  18
BRANCH  17  20
ATOM     20  O   UNL     1     112.597 123.980 136.523  0.00  0.00    +0.000 OA
ATOM     21  C   UNL     1     112.005 123.655 136.996  0.00  0.00    +0.000 C 
ENDBRANCH  17  20
ENDBRANCH   2  12
BRANCH   9  22
ATOM     22  O   UNL     1     114.878 129.948 134.873  0.00  0.00    +0.000 OA
ATOM     23  C   UNL     1     115.373 130.584 135.054  0.00  0.00    +0.000 C 
ENDBRANCH   9  22
TORSDOF 4
ENDMDL
MODEL 5
REMARK VINA RESULT:      -7.4      9.421     12.534
REMARK  Name = 75072279
REMARK  4 active torsions:
REMARK  status: ('A' for Active; 'I' for Inactive)
REMARK    1  A    between atoms: O_2  and  C_16
REMARK    2  A    between atoms: O_3  and  C_18
REMARK    3  A    between atoms: O_4  and  C_20
REMARK    4  A    between atoms: C_6  and  C_10
REMARK                            x       y       z     vdW  Elec       q    Type
REMARK                         _______ _______ _______ _____ _____    ______ ____
ROOT
ATOM      1  O   UNL     1     112.080 125.719 136.493  0.00  0.00    +0.000 OA
ATOM      2  C   UNL     1     111.344 125.354 136.577  0.00  0.00    +0.000 C 
ATOM      3  C   UNL     1     111.302 124.549 136.753  0.00  0.00    +0.000 C 
ATOM      4  C   UNL     1     111.994 124.109 136.845  0.00  0.00    +0.000 C 
ATOM      5  C   UNL     1     112.729 124.475 136.760  0.00  0.00    +0.000 A 
ATOM      6  C   UNL     1     112.772 125.280 136.584  0.00  0.00    +0.000 A 
ATOM      7  C   UNL     1     113.443 124.006 136.857  0.00  0.00    +0.000 A 
ATOM      8  C   UNL     1     113.531 125.671 136.493  0.00  0.00    +0.000 A 
ATOM      9  C   UNL     1     114.255 125.219 136.587  0.00  0.00    +0.000 A 
ATOM     10  C   UNL     1     114.211 124.380 136.771  0.00  0.00    +0.000 A 
ENDROOT
BRANCH   2  12
ATOM     11  O   UNL     1     109.290 126.415 134.898  0.00  0.00    +0.000 OA
ATOM     12  C   UNL     1     110.653 125.793 136.486  0.00  0.00    +0.000 A 
ATOM     13  C   UNL     1     110.295 126.143 137.143  0.00  0.00    +0.000 A 
ATOM     14  C   UNL     1     110.318 125.884 135.738  0.00  0.00    +0.000 A 
ATOM     15  C   UNL     1     109.604 126.582 137.051  0.00  0.00    +0.000 A 
ATOM     16  C   UNL     1     109.625 126.324 135.646  0.00  0.00    +0.000 A 
ATOM     17  C   UNL     1     109.269 126.673 136.303  0.00  0.00    +0.000 A 
BRANCH  15  18
ATOM     18  O   UNL     1     109.246 126.931 137.708  0.00  0.00    +0.000 OA
ATOM     19  C   UNL     1     109.535 126.777 138.465  0.00  0.00    +0.000 C 
ENDBRANCH  15  18
BRANCH  17  20
ATOM     20  O   UNL     1     108.576 127.113 136.211  0.00  0.00    +0.000 OA
ATOM     21  C   UNL     1     108.599 127.841 135.824  0.00  0.00    +0.000 C 
ENDBRANCH  17  20
ENDBRANCH   2  12
BRANCH   9  22
ATOM     22  O   UNL     1     114.989 125.586 136.502  0.00  0.00    +0.000 OA
ATOM     23  C   UNL     1     115.421 125.488 135.806  0.00  0.00    +0.000 C 
ENDBRANCH   9  22
TORSDOF 4
ENDMDL
MODEL 6
REMARK VINA RESULT:      -7.3      8.132      9.466
REMARK  Name = 75072279
REMARK  4 active torsions:
REMARK  status: ('A' for Active; 'I' for Inactive)
REMARK    1  A    between atoms: O_2  and  C_16
REMARK    2  A    between atoms: O_3  and  C_18
REMARK    3  A    between atoms: O_4  and  C_20
REMARK    4  A    between atoms: C_6  and  C_10
REMARK                            x       y       z     vdW  Elec       q    Type
REMARK                         _______ _______ _______ _____ _____    ______ ____
ROOT
ATOM      1  O   UNL     1     103.778 124.139 146.609  0.00  0.00    +0.000 OA
ATOM      2  C   UNL     1     104.160 124.741 147.024  0.00  0.00    +0.000 C 
ATOM      3  C   UNL     1     103.722 125.266 147.485  0.00  0.00    +0.000 C 
ATOM      4  C   UNL     1     102.901 125.189 147.532  0.00  0.00    +0.000 C 
ATOM      5  C   UNL     1     102.520 124.586 147.117  0.00  0.00    +0.000 A 
ATOM      6  C   UNL     1     102.959 124.061 146.656  0.00  0.00    +0.000 A 
ATOM      7  C   UNL     1     101.665 124.515 147.174  0.00  0.00    +0.000 A 
ATOM      8  C   UNL     1     102.572 123.429 146.219  0.00  0.00    +0.000 A 
ATOM      9  C   UNL     1     101.719 123.343 146.264  0.00  0.00    +0.000 A 
ATOM     10  C   UNL     1     101.262 123.890 146.745  0.00  0.00    +0.000 A 
ENDROOT
BRANCH   2  12
ATOM     11  O   UNL     1     106.753 124.337 148.156  0.00  0.00    +0.000 OA
ATOM     12  C   UNL     1     104.979 124.819 146.977  0.00  0.00    +0.000 A 
ATOM     13  C   UNL     1     105.324 125.177 146.318  0.00  0.00    +0.000 A 
ATOM     14  C   UNL     1     105.456 124.539 147.590  0.00  0.00    +0.000 A 
ATOM     15  C   UNL     1     106.143 125.255 146.272  0.00  0.00    +0.000 A 
ATOM     16  C   UNL     1     106.277 124.617 147.543  0.00  0.00    +0.000 A 
ATOM     17  C   UNL     1     106.620 124.975 146.884  0.00  0.00    +0.000 A 
BRANCH  15  18
ATOM     18  O   UNL     1     106.488 125.613 145.613  0.00  0.00    +0.000 OA
ATOM     19  C   UNL     1     106.044 125.726 144.926  0.00  0.00    +0.000 C 
ENDBRANCH  15  18
BRANCH  17  20
ATOM     20  O   UNL     1     107.440 125.053 146.838  0.00  0.00    +0.000 OA
ATOM     21  C   UNL     1     107.848 125.467 147.423  0.00  0.00    +0.000 C 
ENDBRANCH  17  20
ENDBRANCH   2  12
BRANCH   9  22
ATOM     22  O   UNL     1     101.340 122.739 145.849  0.00  0.00    +0.000 OA
ATOM     23  C   UNL     1     100.884 122.919 145.185  0.00  0.00    +0.000 C 
ENDBRANCH   9  22
TORSDOF 4
ENDMDL
MODEL 7
REMARK VINA RESULT:      -7.3     11.726     13.258
REMARK  Name = 75072279
REMARK  4 active torsions:
REMARK  status: ('A' for Active; 'I' for Inactive)
REMARK    1  A    between atoms: O_2  and  C_16
REMARK    2  A    between atoms: O_3  and  C_18
REMARK    3  A    between atoms: O_4  and  C_20
REMARK    4  A    between atoms: C_6  and  C_10
REMARK                            x       y       z     vdW  Elec       q    Type
REMARK                         _______ _______ _______ _____ _____    ______ ____
ROOT
ATOM      1  O   UNL     1     112.746 126.519 136.642  0.00  0.00    +0.000 OA
ATOM      2  C   UNL     1     113.353 127.077 136.606  0.00  0.00    +0.000 C 
ATOM      3  C   UNL     1     114.138 126.828 136.553  0.00  0.00    +0.000 C 
ATOM      4  C   UNL     1     114.316 126.022 136.535  0.00  0.00    +0.000 C 
ATOM      5  C   UNL     1     113.708 125.465 136.571  0.00  0.00    +0.000 A 
ATOM      6  C   UNL     1     112.923 125.714 136.625  0.00  0.00    +0.000 A 
ATOM      7  C   UNL     1     113.906 124.629 136.552  0.00  0.00    +0.000 A 
ATOM      8  C   UNL     1     112.282 125.143 136.663  0.00  0.00    +0.000 A 
ATOM      9  C   UNL     1     112.460 124.303 136.645  0.00  0.00    +0.000 A 
ATOM     10  C   UNL     1     113.278 124.044 136.589  0.00  0.00    +0.000 A 
ENDROOT
BRANCH   2  12
ATOM     11  O   UNL     1     113.001 129.501 138.078  0.00  0.00    +0.000 OA
ATOM     12  C   UNL     1     113.176 127.881 136.624  0.00  0.00    +0.000 A 
ATOM     13  C   UNL     1     112.998 128.281 135.924  0.00  0.00    +0.000 A 
ATOM     14  C   UNL     1     113.177 128.288 137.342  0.00  0.00    +0.000 A 
ATOM     15  C   UNL     1     112.820 129.086 135.942  0.00  0.00    +0.000 A 
ATOM     16  C   UNL     1     113.000 129.094 137.360  0.00  0.00    +0.000 A 
ATOM     17  C   UNL     1     112.822 129.493 136.660  0.00  0.00    +0.000 A 
BRANCH  15  18
ATOM     18  O   UNL     1     112.642 129.485 135.242  0.00  0.00    +0.000 OA
ATOM     19  C   UNL     1     112.294 129.079 134.614  0.00  0.00    +0.000 C 
ENDBRANCH  15  18
BRANCH  17  20
ATOM     20  O   UNL     1     112.644 130.299 136.678  0.00  0.00    +0.000 OA
ATOM     21  C   UNL     1     113.231 130.845 136.871  0.00  0.00    +0.000 C 
ENDBRANCH  17  20
ENDBRANCH   2  12
BRANCH   9  22
ATOM     22  O   UNL     1     111.851 123.748 136.681  0.00  0.00    +0.000 OA
ATOM     23  C   UNL     1     111.874 123.146 137.245  0.00  0.00    +0.000 C 
ENDBRANCH   9  22
TORSDOF 4
ENDMDL
MODEL 8
REMARK VINA RESULT:      -7.3     11.007     12.829
REMARK  Name = 75072279
REMARK  4 active torsions:
REMARK  status: ('A' for Active; 'I' for Inactive)
REMARK    1  A    between atoms: O_2  and  C_16
REMARK    2  A    between atoms: O_3  and  C_18
REMARK    3  A    between atoms: O_4  and  C_20
REMARK    4  A    between atoms: C_6  and  C_10
REMARK                            x       y       z     vdW  Elec       q    Type
REMARK                         _______ _______ _______ _____ _____    ______ ____
ROOT
ATOM      1  O   UNL     1     112.808 126.007 138.291  0.00  0.00    +0.000 OA
ATOM      2  C   UNL     1     113.495 126.278 138.661  0.00  0.00    +0.000 C 
ATOM      3  C   UNL     1     114.229 125.972 138.442  0.00  0.00    +0.000 C 
ATOM      4  C   UNL     1     114.277 125.396 137.852  0.00  0.00    +0.000 C 
ATOM      5  C   UNL     1     113.591 125.126 137.483  0.00  0.00    +0.000 A 
ATOM      6  C   UNL     1     112.856 125.432 137.702  0.00  0.00    +0.000 A 
ATOM      7  C   UNL     1     113.653 124.526 136.871  0.00  0.00    +0.000 A 
ATOM      8  C   UNL     1     112.134 125.158 137.325  0.00  0.00    +0.000 A 
ATOM      9  C   UNL     1     112.178 124.559 136.711  0.00  0.00    +0.000 A 
ATOM     10  C   UNL     1     112.943 124.240 136.482  0.00  0.00    +0.000 A 
ENDROOT
BRANCH   2  12
ATOM     11  O   UNL     1     113.531 126.998 141.426  0.00  0.00    +0.000 OA
ATOM     12  C   UNL     1     113.447 126.853 139.249  0.00  0.00    +0.000 A 
ATOM     13  C   UNL     1     113.333 127.644 139.045  0.00  0.00    +0.000 A 
ATOM     14  C   UNL     1     113.513 126.637 140.043  0.00  0.00    +0.000 A 
ATOM     15  C   UNL     1     113.285 128.220 139.634  0.00  0.00    +0.000 A 
ATOM     16  C   UNL     1     113.465 127.213 140.633  0.00  0.00    +0.000 A 
ATOM     17  C   UNL     1     113.351 128.004 140.428  0.00  0.00    +0.000 A 
BRANCH  15  18
ATOM     18  O   UNL     1     113.171 129.011 139.430  0.00  0.00    +0.000 OA
ATOM     19  C   UNL     1     113.301 129.259 138.654  0.00  0.00    +0.000 C 
ENDBRANCH  15  18
BRANCH  17  20
ATOM     20  O   UNL     1     113.303 128.580 141.017  0.00  0.00    +0.000 OA
ATOM     21  C   UNL     1     112.653 128.597 141.525  0.00  0.00    +0.000 C 
ENDBRANCH  17  20
ENDBRANCH   2  12
BRANCH   9  22
ATOM     22  O   UNL     1     111.490 124.290 136.343  0.00  0.00    +0.000 OA
ATOM     23  C   UNL     1     111.090 124.777 135.810  0.00  0.00    +0.000 C 
ENDBRANCH   9  22
TORSDOF 4
ENDMDL
MODEL 9
REMARK VINA RESULT:      -7.2      9.483     11.922
REMARK  Name = 75072279
REMARK  4 active torsions:
REMARK  status: ('A' for Active; 'I' for Inactive)
REMARK    1  A    between atoms: O_2  and  C_16
REMARK    2  A    between atoms: O_3  and  C_18
REMARK    3  A    between atoms: O_4  and  C_20
REMARK    4  A    between atoms: C_6  and  C_10
REMARK                            x       y       z     vdW  Elec       q    Type
REMARK                         _______ _______ _______ _____ _____    ______ ____
ROOT
ATOM      1  O   UNL     1     110.937 126.308 136.430  0.00  0.00    +0.000 OA
ATOM      2  C   UNL     1     111.231 125.648 136.030  0.00  0.00    +0.000 C 
ATOM      3  C   UNL     1     110.816 125.337 135.388  0.00  0.00    +0.000 C 
ATOM      4  C   UNL     1     110.107 125.685 135.147  0.00  0.00    +0.000 C 
ATOM      5  C   UNL     1     109.814 126.344 135.548  0.00  0.00    +0.000 A 
ATOM      6  C   UNL     1     110.230 126.655 136.189  0.00  0.00    +0.000 A 
ATOM      7  C   UNL     1     109.075 126.698 135.287  0.00  0.00    +0.000 A 
ATOM      8  C   UNL     1     109.934 127.342 136.614  0.00  0.00    +0.000 A 
ATOM      9  C   UNL     1     109.198 127.708 136.368  0.00  0.00    +0.000 A 
ATOM     10  C   UNL     1     108.765 127.384 135.699  0.00  0.00    +0.000 A 
ENDROOT
BRANCH   2  12
ATOM     11  O   UNL     1     114.072 125.763 136.318  0.00  0.00    +0.000 OA
ATOM     12  C   UNL     1     111.939 125.301 136.270  0.00  0.00    +0.000 A 
ATOM     13  C   UNL     1     111.935 124.548 136.608  0.00  0.00    +0.000 A 
ATOM     14  C   UNL     1     112.651 125.706 136.174  0.00  0.00    +0.000 A 
ATOM     15  C   UNL     1     112.643 124.200 136.849  0.00  0.00    +0.000 A 
ATOM     16  C   UNL     1     113.360 125.358 136.415  0.00  0.00    +0.000 A 
ATOM     17  C   UNL     1     113.355 124.605 136.752  0.00  0.00    +0.000 A 
BRANCH  15  18
ATOM     18  O   UNL     1     112.640 123.447 137.186  0.00  0.00    +0.000 OA
ATOM     19  C   UNL     1     111.938 123.015 137.222  0.00  0.00    +0.000 C 
ENDBRANCH  15  18
BRANCH  17  20
ATOM     20  O   UNL     1     114.064 124.257 136.993  0.00  0.00    +0.000 OA
ATOM     21  C   UNL     1     114.574 124.667 137.495  0.00  0.00    +0.000 C 
ENDBRANCH  17  20
ENDBRANCH   2  12
BRANCH   9  22
ATOM     22  O   UNL     1     108.907 128.367 136.770  0.00  0.00    +0.000 OA
ATOM     23  C   UNL     1     108.937 129.112 136.417  0.00  0.00    +0.000 C 
ENDBRANCH   9  22
TORSDOF 4
ENDMDL
MODEL 10
REMARK VINA RESULT:      -7.2     10.693     12.187
REMARK  Name = 75072279
REMARK  4 active torsions:
REMARK  status: ('A' for Active; 'I' for Inactive)
REMARK    1  A    between atoms: O_2  and  C_16
REMARK    2  A    between atoms: O_3  and  C_18
REMARK    3  A    between atoms: O_4  and  C_20
REMARK    4  A    between atoms: C_6  and  C_10
REMARK                            x       y       z     vdW  Elec       q    Type
REMARK                         _______ _______ _______ _____ _____    ______ ____
ROOT
ATOM      1  O   UNL     1     112.333 126.338 138.906  0.00  0.00    +0.000 OA
ATOM      2  C   UNL     1     112.763 126.112 138.240  0.00  0.00    +0.000 C 
ATOM      3  C   UNL     1     113.588 126.136 138.254  0.00  0.00    +0.000 C 
ATOM      4  C   UNL     1     113.982 126.387 138.935  0.00  0.00    +0.000 C 
ATOM      5  C   UNL     1     113.550 126.613 139.600  0.00  0.00    +0.000 A 
ATOM      6  C   UNL     1     112.726 126.589 139.586  0.00  0.00    +0.000 A 
ATOM      7  C   UNL     1     113.972 126.873 140.303  0.00  0.00    +0.000 A 
ATOM      8  C   UNL     1     112.266 126.823 140.274  0.00  0.00    +0.000 A 
ATOM      9  C   UNL     1     112.670 127.085 140.985  0.00  0.00    +0.000 A 
ATOM     10  C   UNL     1     113.530 127.110 141.000  0.00  0.00    +0.000 A 
ENDROOT
BRANCH   2  12
ATOM     11  O   UNL     1     111.587 126.700 135.702  0.00  0.00    +0.000 OA
ATOM     12  C   UNL     1     112.370 125.861 137.560  0.00  0.00    +0.000 A 
ATOM     13  C   UNL     1     112.171 125.066 137.467  0.00  0.00    +0.000 A 
ATOM     14  C   UNL     1     112.175 126.406 136.972  0.00  0.00    +0.000 A 
ATOM     15  C   UNL     1     111.778 124.815 136.787  0.00  0.00    +0.000 A 
ATOM     16  C   UNL     1     111.782 126.155 136.291  0.00  0.00    +0.000 A 
ATOM     17  C   UNL     1     111.583 125.360 136.199  0.00  0.00    +0.000 A 
BRANCH  15  18
ATOM     18  O   UNL     1     111.579 124.019 136.694  0.00  0.00    +0.000 OA
ATOM     19  C   UNL     1     111.992 123.440 137.112  0.00  0.00    +0.000 C 
ENDBRANCH  15  18
BRANCH  17  20
ATOM     20  O   UNL     1     111.190 125.109 135.518  0.00  0.00    +0.000 OA
ATOM     21  C   UNL     1     110.439 125.403 135.345  0.00  0.00    +0.000 C 
ENDBRANCH  17  20
ENDBRANCH   2  12
BRANCH   9  22
ATOM     22  O   UNL     1     112.237 127.311 141.649  0.00  0.00    +0.000 OA
ATOM     23  C   UNL     1     112.223 128.102 141.883  0.00  0.00    +0.000 C 
ENDBRANCH   9  22
TORSDOF 4
ENDMDL
