MODEL 1
REMARK VINA RESULT:     -10.7      0.000      0.000
REMARK  Name = 44259419
REMARK  6 active torsions:
REMARK  status: ('A' for Active; 'I' for Inactive)
REMARK    1  A    between atoms: O_2  and  C_23
REMARK    2  A    between atoms: O_2  and  C_27
REMARK    3  A    between atoms: O_6  and  C_26
REMARK    4  A    between atoms: O_6  and  C_30
REMARK    5  A    between atoms: C_18  and  C_27
REMARK    6  A    between atoms: C_31  and  C_34
REMARK                            x       y       z     vdW  Elec       q    Type
REMARK                         _______ _______ _______ _____ _____    ______ ____
ROOT
ATOM      1  O   UNL     1     111.679 127.201 135.895  0.00  0.00    +0.000 OA
ENDROOT
BRANCH   1   6
ATOM      2  O   UNL     1     113.624 126.798 136.800  0.00  0.00    +0.000 OA
ATOM      3  O   UNL     1     111.638 125.555 136.003  0.00  0.00    +0.000 OA
ATOM      4  O   UNL     1     112.242 124.298 136.371  0.00  0.00    +0.000 OA
ATOM      5  O   UNL     1     114.906 124.298 137.568  0.00  0.00    +0.000 OA
ATOM      6  C   UNL     1     112.321 126.793 136.215  0.00  0.00    +0.000 A 
ATOM      7  C   UNL     1     112.983 127.207 136.481  0.00  0.00    +0.000 A 
ATOM      8  C   UNL     1     112.300 125.969 136.269  0.00  0.00    +0.000 A 
ATOM      9  C   UNL     1     112.942 125.561 136.589  0.00  0.00    +0.000 A 
ATOM     10  C   UNL     1     113.604 125.976 136.854  0.00  0.00    +0.000 A 
ATOM     11  C   UNL     1     112.909 124.704 136.640  0.00  0.00    +0.000 A 
ATOM     12  C   UNL     1     114.278 125.561 137.189  0.00  0.00    +0.000 A 
ATOM     13  C   UNL     1     113.573 124.273 136.972  0.00  0.00    +0.000 A 
ATOM     14  C   UNL     1     114.263 124.704 137.248  0.00  0.00    +0.000 A 
BRANCH   7  18
ATOM     15  O   UNL     1     113.275 129.578 134.911  0.00  0.00    +0.000 OA
ATOM     16  O   UNL     1     112.813 129.775 137.724  0.00  0.00    +0.000 OA
ATOM     17  O   UNL     1     113.065 130.499 136.264  0.00  0.00    +0.000 OA
ATOM     18  C   UNL     1     113.003 128.029 136.427  0.00  0.00    +0.000 A 
ATOM     19  C   UNL     1     112.898 128.491 137.103  0.00  0.00    +0.000 A 
ATOM     20  C   UNL     1     113.129 128.392 135.696  0.00  0.00    +0.000 A 
ATOM     21  C   UNL     1     113.150 129.215 135.642  0.00  0.00    +0.000 A 
ATOM     22  C   UNL     1     112.918 129.313 137.048  0.00  0.00    +0.000 A 
ATOM     23  C   UNL     1     113.044 129.675 136.318  0.00  0.00    +0.000 A 
ENDBRANCH   7  18
ENDBRANCH   1   6
BRANCH   1  32
ATOM     24  O   UNL     1     110.829 127.121 137.040  0.00  0.00    +0.000 OA
ATOM     25  O   UNL     1     108.671 126.834 137.202  0.00  0.00    +0.000 OA
ATOM     26  O   UNL     1     108.868 126.812 135.563  0.00  0.00    +0.000 OA
ATOM     27  O   UNL     1     110.372 126.995 134.910  0.00  0.00    +0.000 OA
ATOM     28  C   UNL     1     110.077 127.029 137.367  0.00  0.00    +0.000 C 
ATOM     29  C   UNL     1     109.423 126.926 136.875  0.00  0.00    +0.000 C 
ATOM     30  C   UNL     1     109.522 126.915 136.055  0.00  0.00    +0.000 C 
ATOM     31  C   UNL     1     110.274 127.006 135.729  0.00  0.00    +0.000 C 
ATOM     32  C   UNL     1     110.927 127.109 136.222  0.00  0.00    +0.000 C 
BRANCH  28  33
ATOM     33  C   UNL     1     109.979 127.040 138.186  0.00  0.00    +0.000 C 
BRANCH  33  34
ATOM     34  O   UNL     1     110.595 126.798 138.679  0.00  0.00    +0.000 OA
BRANCH  34  40
ATOM     35  O   UNL     1     110.028 127.476 139.802  0.00  0.00    +0.000 OA
ATOM     36  O   UNL     1     111.489 125.858 139.699  0.00  0.00    +0.000 OA
ATOM     37  O   UNL     1     111.369 126.066 141.331  0.00  0.00    +0.000 OA
ATOM     38  O   UNL     1     110.355 127.215 141.944  0.00  0.00    +0.000 OA
ATOM     39  C   UNL     1     110.982 126.432 140.005  0.00  0.00    +0.000 C 
ATOM     40  C   UNL     1     110.535 126.902 139.495  0.00  0.00    +0.000 C 
ATOM     41  C   UNL     1     110.922 126.536 140.822  0.00  0.00    +0.000 C 
ATOM     42  C   UNL     1     110.415 127.110 141.127  0.00  0.00    +0.000 C 
ATOM     43  C   UNL     1     109.968 127.581 140.618  0.00  0.00    +0.000 C 
ATOM     44  C   UNL     1     109.461 128.155 140.925  0.00  0.00    +0.000 C 
ENDBRANCH  34  40
ENDBRANCH  33  34
ENDBRANCH  28  33
ENDBRANCH   1  32
TORSDOF 6
ENDMDL
MODEL 2
REMARK VINA RESULT:     -10.6      1.404      4.106
REMARK  Name = 44259419
REMARK  6 active torsions:
REMARK  status: ('A' for Active; 'I' for Inactive)
REMARK    1  A    between atoms: O_2  and  C_23
REMARK    2  A    between atoms: O_2  and  C_27
REMARK    3  A    between atoms: O_6  and  C_26
REMARK    4  A    between atoms: O_6  and  C_30
REMARK    5  A    between atoms: C_18  and  C_27
REMARK    6  A    between atoms: C_31  and  C_34
REMARK                            x       y       z     vdW  Elec       q    Type
REMARK                         _______ _______ _______ _____ _____    ______ ____
ROOT
ATOM      1  O   UNL     1     111.348 126.659 138.541  0.00  0.00    +0.000 OA
ENDROOT
BRANCH   1   6
ATOM      2  O   UNL     1     113.444 126.084 138.744  0.00  0.00    +0.000 OA
ATOM      3  O   UNL     1     111.611 125.921 137.089  0.00  0.00    +0.000 OA
ATOM      4  O   UNL     1     112.472 125.230 136.161  0.00  0.00    +0.000 OA
ATOM      5  O   UNL     1     115.240 124.693 136.922  0.00  0.00    +0.000 OA
ATOM      6  C   UNL     1     112.090 126.345 138.368  0.00  0.00    +0.000 A 
ATOM      7  C   UNL     1     112.702 126.399 138.919  0.00  0.00    +0.000 A 
ATOM      8  C   UNL     1     112.222 125.975 137.641  0.00  0.00    +0.000 A 
ATOM      9  C   UNL     1     112.964 125.661 137.467  0.00  0.00    +0.000 A 
ATOM     10  C   UNL     1     113.575 125.715 138.018  0.00  0.00    +0.000 A 
ATOM     11  C   UNL     1     113.089 125.279 136.707  0.00  0.00    +0.000 A 
ATOM     12  C   UNL     1     114.353 125.392 137.848  0.00  0.00    +0.000 A 
ATOM     13  C   UNL     1     113.860 124.950 136.519  0.00  0.00    +0.000 A 
ATOM     14  C   UNL     1     114.496 125.007 137.094  0.00  0.00    +0.000 A 
BRANCH   7  18
ATOM     15  O   UNL     1     113.056 128.640 140.657  0.00  0.00    +0.000 OA
ATOM     16  O   UNL     1     111.558 126.371 141.538  0.00  0.00    +0.000 OA
ATOM     17  O   UNL     1     112.176 127.875 141.824  0.00  0.00    +0.000 OA
ATOM     18  C   UNL     1     112.570 126.767 139.645  0.00  0.00    +0.000 A 
ATOM     19  C   UNL     1     112.130 126.385 140.229  0.00  0.00    +0.000 A 
ATOM     20  C   UNL     1     112.879 127.519 139.787  0.00  0.00    +0.000 A 
ATOM     21  C   UNL     1     112.747 127.888 140.514  0.00  0.00    +0.000 A 
ATOM     22  C   UNL     1     111.998 126.754 140.954  0.00  0.00    +0.000 A 
ATOM     23  C   UNL     1     112.307 127.505 141.097  0.00  0.00    +0.000 A 
ENDBRANCH   7  18
ENDBRANCH   1   6
BRANCH   1  32
ATOM     24  O   UNL     1     111.513 127.774 137.665  0.00  0.00    +0.000 OA
ATOM     25  O   UNL     1     110.042 128.986 136.599  0.00  0.00    +0.000 OA
ATOM     26  O   UNL     1     109.059 127.917 137.382  0.00  0.00    +0.000 OA
ATOM     27  O   UNL     1     109.711 126.754 138.353  0.00  0.00    +0.000 OA
ATOM     28  C   UNL     1     111.187 128.356 137.179  0.00  0.00    +0.000 C 
ATOM     29  C   UNL     1     110.369 128.404 137.085  0.00  0.00    +0.000 C 
ATOM     30  C   UNL     1     109.877 127.869 137.477  0.00  0.00    +0.000 C 
ATOM     31  C   UNL     1     110.203 127.287 137.962  0.00  0.00    +0.000 C 
ATOM     32  C   UNL     1     111.022 127.240 138.056  0.00  0.00    +0.000 C 
BRANCH  28  33
ATOM     33  C   UNL     1     111.679 128.891 136.787  0.00  0.00    +0.000 C 
BRANCH  33  34
ATOM     34  O   UNL     1     112.256 129.304 137.207  0.00  0.00    +0.000 OA
BRANCH  34  40
ATOM     35  O   UNL     1     113.341 129.087 136.303  0.00  0.00    +0.000 OA
ATOM     36  O   UNL     1     112.779 130.848 137.464  0.00  0.00    +0.000 OA
ATOM     37  O   UNL     1     114.126 131.402 136.687  0.00  0.00    +0.000 OA
ATOM     38  O   UNL     1     114.949 130.413 135.655  0.00  0.00    +0.000 OA
ATOM     39  C   UNL     1     113.191 130.353 136.948  0.00  0.00    +0.000 C 
ATOM     40  C   UNL     1     112.929 129.581 136.820  0.00  0.00    +0.000 C 
ATOM     41  C   UNL     1     113.864 130.630 136.559  0.00  0.00    +0.000 C 
ATOM     42  C   UNL     1     114.275 130.135 136.043  0.00  0.00    +0.000 C 
ATOM     43  C   UNL     1     114.014 129.363 135.915  0.00  0.00    +0.000 C 
ATOM     44  C   UNL     1     114.426 128.869 135.399  0.00  0.00    +0.000 C 
ENDBRANCH  34  40
ENDBRANCH  33  34
ENDBRANCH  28  33
ENDBRANCH   1  32
TORSDOF 6
ENDMDL
MODEL 3
REMARK VINA RESULT:     -10.6      1.344      4.292
REMARK  Name = 44259419
REMARK  6 active torsions:
REMARK  status: ('A' for Active; 'I' for Inactive)
REMARK    1  A    between atoms: O_2  and  C_23
REMARK    2  A    between atoms: O_2  and  C_27
REMARK    3  A    between atoms: O_6  and  C_26
REMARK    4  A    between atoms: O_6  and  C_30
REMARK    5  A    between atoms: C_18  and  C_27
REMARK    6  A    between atoms: C_31  and  C_34
REMARK                            x       y       z     vdW  Elec       q    Type
REMARK                         _______ _______ _______ _____ _____    ______ ____
ROOT
ATOM      1  O   UNL     1     112.667 126.619 138.233  0.00  0.00    +0.000 OA
ENDROOT
BRANCH   1   6
ATOM      2  O   UNL     1     113.278 127.173 136.212  0.00  0.00    +0.000 OA
ATOM      3  O   UNL     1     113.053 128.209 138.448  0.00  0.00    +0.000 OA
ATOM      4  O   UNL     1     113.516 129.476 137.939  0.00  0.00    +0.000 OA
ATOM      5  O   UNL     1     114.219 129.701 135.114  0.00  0.00    +0.000 OA
ATOM      6  C   UNL     1     112.935 127.068 137.595  0.00  0.00    +0.000 A 
ATOM      7  C   UNL     1     113.010 126.723 136.849  0.00  0.00    +0.000 A 
ATOM      8  C   UNL     1     113.128 127.864 137.703  0.00  0.00    +0.000 A 
ATOM      9  C   UNL     1     113.396 128.312 137.065  0.00  0.00    +0.000 A 
ATOM     10  C   UNL     1     113.471 127.967 136.319  0.00  0.00    +0.000 A 
ATOM     11  C   UNL     1     113.594 129.140 137.190  0.00  0.00    +0.000 A 
ATOM     12  C   UNL     1     113.749 128.425 135.647  0.00  0.00    +0.000 A 
ATOM     13  C   UNL     1     113.874 129.613 136.529  0.00  0.00    +0.000 A 
ATOM     14  C   UNL     1     113.952 129.253 135.753  0.00  0.00    +0.000 A 
BRANCH   7  18
ATOM     15  O   UNL     1     113.671 123.956 137.127  0.00  0.00    +0.000 OA
ATOM     16  O   UNL     1     111.192 124.720 135.926  0.00  0.00    +0.000 OA
ATOM     17  O   UNL     1     112.238 123.543 136.419  0.00  0.00    +0.000 OA
ATOM     18  C   UNL     1     112.817 125.929 136.742  0.00  0.00    +0.000 A 
ATOM     19  C   UNL     1     112.101 125.721 136.388  0.00  0.00    +0.000 A 
ATOM     20  C   UNL     1     113.340 125.340 136.988  0.00  0.00    +0.000 A 
ATOM     21  C   UNL     1     113.147 124.545 136.880  0.00  0.00    +0.000 A 
ATOM     22  C   UNL     1     111.908 124.927 136.280  0.00  0.00    +0.000 A 
ATOM     23  C   UNL     1     112.431 124.339 136.527  0.00  0.00    +0.000 A 
ENDBRANCH   7  18
ENDBRANCH   1   6
BRANCH   1  32
ATOM     24  O   UNL     1     111.396 127.269 138.250  0.00  0.00    +0.000 OA
ATOM     25  O   UNL     1     109.939 127.519 139.857  0.00  0.00    +0.000 OA
ATOM     26  O   UNL     1     111.120 126.668 140.635  0.00  0.00    +0.000 OA
ATOM     27  O   UNL     1     112.484 126.218 139.823  0.00  0.00    +0.000 OA
ATOM     28  C   UNL     1     110.714 127.494 138.656  0.00  0.00    +0.000 C 
ATOM     29  C   UNL     1     110.621 127.294 139.451  0.00  0.00    +0.000 C 
ATOM     30  C   UNL     1     111.212 126.868 139.840  0.00  0.00    +0.000 C 
ATOM     31  C   UNL     1     111.894 126.643 139.434  0.00  0.00    +0.000 C 
ATOM     32  C   UNL     1     111.985 126.844 138.639  0.00  0.00    +0.000 C 
BRANCH  28  33
ATOM     33  C   UNL     1     110.123 127.920 138.267  0.00  0.00    +0.000 C 
BRANCH  33  34
ATOM     34  O   UNL     1     109.885 127.697 137.509  0.00  0.00    +0.000 OA
BRANCH  34  40
ATOM     35  O   UNL     1     109.909 129.011 136.949  0.00  0.00    +0.000 OA
ATOM     36  O   UNL     1     108.585 127.318 136.566  0.00  0.00    +0.000 OA
ATOM     37  O   UNL     1     107.959 128.443 135.533  0.00  0.00    +0.000 OA
ATOM     38  O   UNL     1     108.633 129.947 135.445  0.00  0.00    +0.000 OA
ATOM     39  C   UNL     1     108.922 128.070 136.522  0.00  0.00    +0.000 C 
ATOM     40  C   UNL     1     109.572 128.259 136.993  0.00  0.00    +0.000 C 
ATOM     41  C   UNL     1     108.609 128.633 136.005  0.00  0.00    +0.000 C 
ATOM     42  C   UNL     1     108.946 129.384 135.961  0.00  0.00    +0.000 C 
ATOM     43  C   UNL     1     109.596 129.574 136.433  0.00  0.00    +0.000 C 
ATOM     44  C   UNL     1     109.933 130.326 136.388  0.00  0.00    +0.000 C 
ENDBRANCH  34  40
ENDBRANCH  33  34
ENDBRANCH  28  33
ENDBRANCH   1  32
TORSDOF 6
ENDMDL
MODEL 4
REMARK VINA RESULT:     -10.5      2.258      4.613
REMARK  Name = 44259419
REMARK  6 active torsions:
REMARK  status: ('A' for Active; 'I' for Inactive)
REMARK    1  A    between atoms: O_2  and  C_23
REMARK    2  A    between atoms: O_2  and  C_27
REMARK    3  A    between atoms: O_6  and  C_26
REMARK    4  A    between atoms: O_6  and  C_30
REMARK    5  A    between atoms: C_18  and  C_27
REMARK    6  A    between atoms: C_31  and  C_34
REMARK                            x       y       z     vdW  Elec       q    Type
REMARK                         _______ _______ _______ _____ _____    ______ ____
ROOT
ATOM      1  O   UNL     1     111.424 127.426 137.440  0.00  0.00    +0.000 OA
ENDROOT
BRANCH   1   6
ATOM      2  O   UNL     1     112.446 128.035 135.610  0.00  0.00    +0.000 OA
ATOM      3  O   UNL     1     112.441 128.589 138.022  0.00  0.00    +0.000 OA
ATOM      4  O   UNL     1     113.468 129.582 137.825  0.00  0.00    +0.000 OA
ATOM      5  O   UNL     1     114.521 130.023 135.137  0.00  0.00    +0.000 OA
ATOM      6  C   UNL     1     111.934 127.823 136.927  0.00  0.00    +0.000 A 
ATOM      7  C   UNL     1     111.936 127.638 136.122  0.00  0.00    +0.000 A 
ATOM      8  C   UNL     1     112.442 128.404 137.218  0.00  0.00    +0.000 A 
ATOM      9  C   UNL     1     112.952 128.800 136.704  0.00  0.00    +0.000 A 
ATOM     10  C   UNL     1     112.954 128.616 135.900  0.00  0.00    +0.000 A 
ATOM     11  C   UNL     1     113.477 129.404 137.019  0.00  0.00    +0.000 A 
ATOM     12  C   UNL     1     113.481 129.022 135.356  0.00  0.00    +0.000 A 
ATOM     13  C   UNL     1     114.010 129.820 136.490  0.00  0.00    +0.000 A 
ATOM     14  C   UNL     1     114.012 129.628 135.653  0.00  0.00    +0.000 A 
BRANCH   7  18
ATOM     15  O   UNL     1     109.578 126.907 134.682  0.00  0.00    +0.000 OA
ATOM     16  O   UNL     1     111.243 124.882 135.818  0.00  0.00    +0.000 OA
ATOM     17  O   UNL     1     109.903 125.313 134.959  0.00  0.00    +0.000 OA
ATOM     18  C   UNL     1     111.428 127.057 135.832  0.00  0.00    +0.000 A 
ATOM     19  C   UNL     1     111.590 126.260 135.970  0.00  0.00    +0.000 A 
ATOM     20  C   UNL     1     110.758 127.273 135.402  0.00  0.00    +0.000 A 
ATOM     21  C   UNL     1     110.249 126.692 135.111  0.00  0.00    +0.000 A 
ATOM     22  C   UNL     1     111.082 125.679 135.680  0.00  0.00    +0.000 A 
ATOM     23  C   UNL     1     110.411 125.895 135.250  0.00  0.00    +0.000 A 
ENDBRANCH   7  18
ENDBRANCH   1   6
BRANCH   1  32
ATOM     24  O   UNL     1     110.528 128.530 137.579  0.00  0.00    +0.000 OA
ATOM     25  O   UNL     1     109.242 129.126 139.239  0.00  0.00    +0.000 OA
ATOM     26  O   UNL     1     109.943 127.768 139.860  0.00  0.00    +0.000 OA
ATOM     27  O   UNL     1     111.034 126.918 138.960  0.00  0.00    +0.000 OA
ATOM     28  C   UNL     1     109.983 128.955 138.029  0.00  0.00    +0.000 C 
ATOM     29  C   UNL     1     109.787 128.701 138.789  0.00  0.00    +0.000 C 
ATOM     30  C   UNL     1     110.138 128.021 139.100  0.00  0.00    +0.000 C 
ATOM     31  C   UNL     1     110.684 127.597 138.650  0.00  0.00    +0.000 C 
ATOM     32  C   UNL     1     110.879 127.851 137.890  0.00  0.00    +0.000 C 
BRANCH  28  33
ATOM     33  C   UNL     1     109.632 129.635 137.719  0.00  0.00    +0.000 C 
BRANCH  33  34
ATOM     34  O   UNL     1     109.256 129.607 136.985  0.00  0.00    +0.000 OA
BRANCH  34  40
ATOM     35  O   UNL     1     109.535 130.972 136.669  0.00  0.00    +0.000 OA
ATOM     36  O   UNL     1     107.883 129.676 136.072  0.00  0.00    +0.000 OA
ATOM     37  O   UNL     1     107.475 131.076 135.300  0.00  0.00    +0.000 OA
ATOM     38  O   UNL     1     108.441 132.407 135.440  0.00  0.00    +0.000 OA
ATOM     39  C   UNL     1     108.366 130.341 136.143  0.00  0.00    +0.000 C 
ATOM     40  C   UNL     1     109.053 130.306 136.599  0.00  0.00    +0.000 C 
ATOM     41  C   UNL     1     108.162 131.042 135.756  0.00  0.00    +0.000 C 
ATOM     42  C   UNL     1     108.645 131.706 135.827  0.00  0.00    +0.000 C 
ATOM     43  C   UNL     1     109.331 131.672 136.283  0.00  0.00    +0.000 C 
ATOM     44  C   UNL     1     109.814 132.338 136.352  0.00  0.00    +0.000 C 
ENDBRANCH  34  40
ENDBRANCH  33  34
ENDBRANCH  28  33
ENDBRANCH   1  32
TORSDOF 6
ENDMDL
MODEL 5
REMARK VINA RESULT:     -10.5      1.418      4.299
REMARK  Name = 44259419
REMARK  6 active torsions:
REMARK  status: ('A' for Active; 'I' for Inactive)
REMARK    1  A    between atoms: O_2  and  C_23
REMARK    2  A    between atoms: O_2  and  C_27
REMARK    3  A    between atoms: O_6  and  C_26
REMARK    4  A    between atoms: O_6  and  C_30
REMARK    5  A    between atoms: C_18  and  C_27
REMARK    6  A    between atoms: C_31  and  C_34
REMARK                            x       y       z     vdW  Elec       q    Type
REMARK                         _______ _______ _______ _____ _____    ______ ____
ROOT
ATOM      1  O   UNL     1     112.841 126.561 137.602  0.00  0.00    +0.000 OA
ENDROOT
BRANCH   1   6
ATOM      2  O   UNL     1     112.991 128.682 138.095  0.00  0.00    +0.000 OA
ATOM      3  O   UNL     1     113.557 127.149 136.236  0.00  0.00    +0.000 OA
ATOM      4  O   UNL     1     114.094 128.241 135.462  0.00  0.00    +0.000 OA
ATOM      5  O   UNL     1     114.060 130.934 136.590  0.00  0.00    +0.000 OA
ATOM      6  C   UNL     1     113.010 127.366 137.540  0.00  0.00    +0.000 A 
ATOM      7  C   UNL     1     112.822 127.877 138.159  0.00  0.00    +0.000 A 
ATOM      8  C   UNL     1     113.368 127.660 136.856  0.00  0.00    +0.000 A 
ATOM      9  C   UNL     1     113.537 128.465 136.793  0.00  0.00    +0.000 A 
ATOM     10  C   UNL     1     113.348 128.976 137.413  0.00  0.00    +0.000 A 
ATOM     11  C   UNL     1     113.909 128.759 136.077  0.00  0.00    +0.000 A 
ATOM     12  C   UNL     1     113.519 129.817 137.359  0.00  0.00    +0.000 A 
ATOM     13  C   UNL     1     114.088 129.597 136.005  0.00  0.00    +0.000 A 
ATOM     14  C   UNL     1     113.892 130.129 136.650  0.00  0.00    +0.000 A 
BRANCH   7  18
ATOM     15  O   UNL     1     110.492 127.522 139.777  0.00  0.00    +0.000 OA
ATOM     16  O   UNL     1     113.005 126.467 140.638  0.00  0.00    +0.000 OA
ATOM     17  O   UNL     1     111.391 126.700 140.890  0.00  0.00    +0.000 OA
ATOM     18  C   UNL     1     112.464 127.583 138.842  0.00  0.00    +0.000 A 
ATOM     19  C   UNL     1     112.913 127.172 139.399  0.00  0.00    +0.000 A 
ATOM     20  C   UNL     1     111.658 127.700 138.968  0.00  0.00    +0.000 A 
ATOM     21  C   UNL     1     111.299 127.405 139.651  0.00  0.00    +0.000 A 
ATOM     22  C   UNL     1     112.556 126.878 140.081  0.00  0.00    +0.000 A 
ATOM     23  C   UNL     1     111.749 126.995 140.207  0.00  0.00    +0.000 A 
ENDBRANCH   7  18
ENDBRANCH   1   6
BRANCH   1  32
ATOM     24  O   UNL     1     111.753 126.643 136.682  0.00  0.00    +0.000 OA
ATOM     25  O   UNL     1     110.829 125.120 135.420  0.00  0.00    +0.000 OA
ATOM     26  O   UNL     1     112.002 124.234 136.170  0.00  0.00    +0.000 OA
ATOM     27  O   UNL     1     113.008 124.955 137.262  0.00  0.00    +0.000 OA
ATOM     28  C   UNL     1     111.249 126.283 136.136  0.00  0.00    +0.000 C 
ATOM     29  C   UNL     1     111.332 125.480 135.965  0.00  0.00    +0.000 C 
ATOM     30  C   UNL     1     111.919 125.037 136.341  0.00  0.00    +0.000 C 
ATOM     31  C   UNL     1     112.422 125.397 136.887  0.00  0.00    +0.000 C 
ATOM     32  C   UNL     1     112.338 126.201 137.057  0.00  0.00    +0.000 C 
BRANCH  28  33
ATOM     33  C   UNL     1     110.663 126.726 135.760  0.00  0.00    +0.000 C 
BRANCH  33  34
ATOM     34  O   UNL     1     110.123 127.161 136.208  0.00  0.00    +0.000 OA
BRANCH  34  40
ATOM     35  O   UNL     1     110.295 128.381 135.485  0.00  0.00    +0.000 OA
ATOM     36  O   UNL     1     108.536 127.534 136.462  0.00  0.00    +0.000 OA
ATOM     37  O   UNL     1     107.914 128.941 135.866  0.00  0.00    +0.000 OA
ATOM     38  O   UNL     1     108.879 129.975 135.016  0.00  0.00    +0.000 OA
ATOM     39  C   UNL     1     109.019 128.050 136.037  0.00  0.00    +0.000 C 
ATOM     40  C   UNL     1     109.813 127.864 135.910  0.00  0.00    +0.000 C 
ATOM     41  C   UNL     1     108.708 128.755 135.739  0.00  0.00    +0.000 C 
ATOM     42  C   UNL     1     109.191 129.271 135.314  0.00  0.00    +0.000 C 
ATOM     43  C   UNL     1     109.984 129.084 135.187  0.00  0.00    +0.000 C 
ATOM     44  C   UNL     1     110.466 129.602 134.762  0.00  0.00    +0.000 C 
ENDBRANCH  34  40
ENDBRANCH  33  34
ENDBRANCH  28  33
ENDBRANCH   1  32
TORSDOF 6
ENDMDL
MODEL 6
REMARK VINA RESULT:     -10.5      1.717      4.469
REMARK  Name = 44259419
REMARK  6 active torsions:
REMARK  status: ('A' for Active; 'I' for Inactive)
REMARK    1  A    between atoms: O_2  and  C_23
REMARK    2  A    between atoms: O_2  and  C_27
REMARK    3  A    between atoms: O_6  and  C_26
REMARK    4  A    between atoms: O_6  and  C_30
REMARK    5  A    between atoms: C_18  and  C_27
REMARK    6  A    between atoms: C_31  and  C_34
REMARK                            x       y       z     vdW  Elec       q    Type
REMARK                         _______ _______ _______ _____ _____    ______ ____
ROOT
ATOM      1  O   UNL     1     113.184 126.778 137.209  0.00  0.00    +0.000 OA
ENDROOT
BRANCH   1   6
ATOM      2  O   UNL     1     111.957 126.071 138.870  0.00  0.00    +0.000 OA
ATOM      3  O   UNL     1     113.487 127.943 138.337  0.00  0.00    +0.000 OA
ATOM      4  O   UNL     1     113.296 128.510 139.650  0.00  0.00    +0.000 OA
ATOM      5  O   UNL     1     111.523 127.159 141.536  0.00  0.00    +0.000 OA
ATOM      6  C   UNL     1     112.826 126.736 137.950  0.00  0.00    +0.000 A 
ATOM      7  C   UNL     1     112.316 126.112 138.128  0.00  0.00    +0.000 A 
ATOM      8  C   UNL     1     112.977 127.319 138.515  0.00  0.00    +0.000 A 
ATOM      9  C   UNL     1     112.619 127.277 139.257  0.00  0.00    +0.000 A 
ATOM     10  C   UNL     1     112.109 126.653 139.434  0.00  0.00    +0.000 A 
ATOM     11  C   UNL     1     112.784 127.890 139.836  0.00  0.00    +0.000 A 
ATOM     12  C   UNL     1     111.729 126.599 140.204  0.00  0.00    +0.000 A 
ATOM     13  C   UNL     1     112.414 127.852 140.610  0.00  0.00    +0.000 A 
ATOM     14  C   UNL     1     111.883 127.203 140.795  0.00  0.00    +0.000 A 
BRANCH   7  18
ATOM     15  O   UNL     1     113.114 123.746 136.738  0.00  0.00    +0.000 OA
ATOM     16  O   UNL     1     110.610 124.983 136.132  0.00  0.00    +0.000 OA
ATOM     17  O   UNL     1     111.711 123.782 135.870  0.00  0.00    +0.000 OA
ATOM     18  C   UNL     1     112.164 125.530 137.564  0.00  0.00    +0.000 A 
ATOM     19  C   UNL     1     111.463 125.548 137.130  0.00  0.00    +0.000 A 
ATOM     20  C   UNL     1     112.715 124.930 137.433  0.00  0.00    +0.000 A 
ATOM     21  C   UNL     1     112.564 124.347 136.869  0.00  0.00    +0.000 A 
ATOM     22  C   UNL     1     111.312 124.966 136.566  0.00  0.00    +0.000 A 
ATOM     23  C   UNL     1     111.862 124.365 136.435  0.00  0.00    +0.000 A 
ENDBRANCH   7  18
ENDBRANCH   1   6
BRANCH   1  32
ATOM     24  O   UNL     1     112.373 127.861 136.752  0.00  0.00    +0.000 OA
ATOM     25  O   UNL     1     112.799 129.468 135.336  0.00  0.00    +0.000 OA
ATOM     26  O   UNL     1     114.229 128.645 135.315  0.00  0.00    +0.000 OA
ATOM     27  O   UNL     1     114.422 127.301 136.251  0.00  0.00    +0.000 OA
ATOM     28  C   UNL     1     112.277 128.533 136.284  0.00  0.00    +0.000 C 
ATOM     29  C   UNL     1     112.895 128.795 135.805  0.00  0.00    +0.000 C 
ATOM     30  C   UNL     1     113.611 128.384 135.794  0.00  0.00    +0.000 C 
ATOM     31  C   UNL     1     113.707 127.711 136.262  0.00  0.00    +0.000 C 
ATOM     32  C   UNL     1     113.088 127.450 136.741  0.00  0.00    +0.000 C 
BRANCH  28  33
ATOM     33  C   UNL     1     111.561 128.945 136.294  0.00  0.00    +0.000 C 
BRANCH  33  34
ATOM     34  O   UNL     1     110.850 128.538 136.200  0.00  0.00    +0.000 OA
BRANCH  34  40
ATOM     35  O   UNL     1     110.097 129.616 136.760  0.00  0.00    +0.000 OA
ATOM     36  O   UNL     1     109.485 127.965 135.470  0.00  0.00    +0.000 OA
ATOM     37  O   UNL     1     108.051 128.756 135.666  0.00  0.00    +0.000 OA
ATOM     38  O   UNL     1     107.980 130.120 136.591  0.00  0.00    +0.000 OA
ATOM     39  C   UNL     1     109.451 128.647 135.933  0.00  0.00    +0.000 C 
ATOM     40  C   UNL     1     110.133 128.933 136.298  0.00  0.00    +0.000 C 
ATOM     41  C   UNL     1     108.733 129.042 136.031  0.00  0.00    +0.000 C 
ATOM     42  C   UNL     1     108.698 129.724 136.494  0.00  0.00    +0.000 C 
ATOM     43  C   UNL     1     109.380 130.011 136.858  0.00  0.00    +0.000 C 
ATOM     44  C   UNL     1     109.344 130.693 137.321  0.00  0.00    +0.000 C 
ENDBRANCH  34  40
ENDBRANCH  33  34
ENDBRANCH  28  33
ENDBRANCH   1  32
TORSDOF 6
ENDMDL
MODEL 7
REMARK VINA RESULT:     -10.5      1.809      4.810
REMARK  Name = 44259419
REMARK  6 active torsions:
REMARK  status: ('A' for Active; 'I' for Inactive)
REMARK    1  A    between atoms: O_2  and  C_23
REMARK    2  A    between atoms: O_2  and  C_27
REMARK    3  A    between atoms: O_6  and  C_26
REMARK    4  A    between atoms: O_6  and  C_30
REMARK    5  A    between atoms: C_18  and  C_27
REMARK    6  A    between atoms: C_31  and  C_34
REMARK                            x       y       z     vdW  Elec       q    Type
REMARK                         _______ _______ _______ _____ _____    ______ ____
ROOT
ATOM      1  O   UNL     1     112.364 129.922 137.007  0.00  0.00    +0.000 OA
ENDROOT
BRANCH   1   6
ATOM      2  O   UNL     1     110.333 129.296 137.504  0.00  0.00    +0.000 OA
ATOM      3  O   UNL     1     111.670 129.899 135.510  0.00  0.00    +0.000 OA
ATOM      4  O   UNL     1     110.535 129.680 134.648  0.00  0.00    +0.000 OA
ATOM      5  O   UNL     1     108.000 128.834 135.823  0.00  0.00    +0.000 OA
ATOM      6  C   UNL     1     111.572 129.710 136.924  0.00  0.00    +0.000 A 
ATOM      7  C   UNL     1     111.126 129.509 137.588  0.00  0.00    +0.000 A 
ATOM      8  C   UNL     1     111.224 129.698 136.175  0.00  0.00    +0.000 A 
ATOM      9  C   UNL     1     110.432 129.486 136.091  0.00  0.00    +0.000 A 
ATOM     10  C   UNL     1     109.986 129.285 136.756  0.00  0.00    +0.000 A 
ATOM     11  C   UNL     1     110.082 129.477 135.306  0.00  0.00    +0.000 A 
ATOM     12  C   UNL     1     109.159 129.061 136.681  0.00  0.00    +0.000 A 
ATOM     13  C   UNL     1     109.257 129.257 135.213  0.00  0.00    +0.000 A 
ATOM     14  C   UNL     1     108.793 129.047 135.904  0.00  0.00    +0.000 A 
BRANCH   7  18
ATOM     15  O   UNL     1     112.094 130.972 139.844  0.00  0.00    +0.000 OA
ATOM     16  O   UNL     1     112.240 128.118 139.822  0.00  0.00    +0.000 OA
ATOM     17  O   UNL     1     112.514 129.556 140.582  0.00  0.00    +0.000 OA
ATOM     18  C   UNL     1     111.473 129.521 138.336  0.00  0.00    +0.000 A 
ATOM     19  C   UNL     1     111.683 128.813 138.705  0.00  0.00    +0.000 A 
ATOM     20  C   UNL     1     111.610 130.240 138.716  0.00  0.00    +0.000 A 
ATOM     21  C   UNL     1     111.957 130.252 139.465  0.00  0.00    +0.000 A 
ATOM     22  C   UNL     1     112.030 128.825 139.453  0.00  0.00    +0.000 A 
ATOM     23  C   UNL     1     112.167 129.544 139.833  0.00  0.00    +0.000 A 
ENDBRANCH   7  18
ENDBRANCH   1   6
BRANCH   1  32
ATOM     24  O   UNL     1     112.862 128.687 136.491  0.00  0.00    +0.000 OA
ATOM     25  O   UNL     1     114.706 128.226 135.417  0.00  0.00    +0.000 OA
ATOM     26  O   UNL     1     114.880 129.850 135.653  0.00  0.00    +0.000 OA
ATOM     27  O   UNL     1     113.709 130.698 136.448  0.00  0.00    +0.000 OA
ATOM     28  C   UNL     1     113.448 128.263 136.094  0.00  0.00    +0.000 C 
ATOM     29  C   UNL     1     114.120 128.650 135.814  0.00  0.00    +0.000 C 
ATOM     30  C   UNL     1     114.207 129.463 135.933  0.00  0.00    +0.000 C 
ATOM     31  C   UNL     1     113.622 129.887 136.330  0.00  0.00    +0.000 C 
ATOM     32  C   UNL     1     112.950 129.498 136.609  0.00  0.00    +0.000 C 
BRANCH  28  33
ATOM     33  C   UNL     1     113.361 127.451 135.976  0.00  0.00    +0.000 C 
BRANCH  33  34
ATOM     34  O   UNL     1     113.230 126.951 136.619  0.00  0.00    +0.000 OA
BRANCH  34  40
ATOM     35  O   UNL     1     112.096 126.243 136.116  0.00  0.00    +0.000 OA
ATOM     36  O   UNL     1     113.848 125.541 137.212  0.00  0.00    +0.000 OA
ATOM     37  O   UNL     1     113.023 124.127 137.006  0.00  0.00    +0.000 OA
ATOM     38  O   UNL     1     111.580 124.124 136.206  0.00  0.00    +0.000 OA
ATOM     39  C   UNL     1     113.127 125.540 136.813  0.00  0.00    +0.000 C 
ATOM     40  C   UNL     1     112.818 126.245 136.516  0.00  0.00    +0.000 C 
ATOM     41  C   UNL     1     112.714 124.833 136.709  0.00  0.00    +0.000 C 
ATOM     42  C   UNL     1     111.993 124.831 136.310  0.00  0.00    +0.000 C 
ATOM     43  C   UNL     1     111.684 125.536 136.013  0.00  0.00    +0.000 C 
ATOM     44  C   UNL     1     110.962 125.534 135.613  0.00  0.00    +0.000 C 
ENDBRANCH  34  40
ENDBRANCH  33  34
ENDBRANCH  28  33
ENDBRANCH   1  32
TORSDOF 6
ENDMDL
MODEL 8
REMARK VINA RESULT:     -10.4      2.132      3.516
REMARK  Name = 44259419
REMARK  6 active torsions:
REMARK  status: ('A' for Active; 'I' for Inactive)
REMARK    1  A    between atoms: O_2  and  C_23
REMARK    2  A    between atoms: O_2  and  C_27
REMARK    3  A    between atoms: O_6  and  C_26
REMARK    4  A    between atoms: O_6  and  C_30
REMARK    5  A    between atoms: C_18  and  C_27
REMARK    6  A    between atoms: C_31  and  C_34
REMARK                            x       y       z     vdW  Elec       q    Type
REMARK                         _______ _______ _______ _____ _____    ______ ____
ROOT
ATOM      1  O   UNL     1     110.416 130.309 136.196  0.00  0.00    +0.000 OA
ENDROOT
BRANCH   1   6
ATOM      2  O   UNL     1     112.486 130.738 136.743  0.00  0.00    +0.000 OA
ATOM      3  O   UNL     1     111.226 129.312 135.160  0.00  0.00    +0.000 OA
ATOM      4  O   UNL     1     112.452 128.768 134.630  0.00  0.00    +0.000 OA
ATOM      5  O   UNL     1     115.001 129.685 135.720  0.00  0.00    +0.000 OA
ATOM      6  C   UNL     1     111.241 130.286 136.206  0.00  0.00    +0.000 A 
ATOM      7  C   UNL     1     111.661 130.762 136.734  0.00  0.00    +0.000 A 
ATOM      8  C   UNL     1     111.646 129.787 135.688  0.00  0.00    +0.000 A 
ATOM      9  C   UNL     1     112.470 129.764 135.698  0.00  0.00    +0.000 A 
ATOM     10  C   UNL     1     112.890 130.240 136.225  0.00  0.00    +0.000 A 
ATOM     11  C   UNL     1     112.880 129.240 135.154  0.00  0.00    +0.000 A 
ATOM     12  C   UNL     1     113.749 130.224 136.245  0.00  0.00    +0.000 A 
ATOM     13  C   UNL     1     113.739 129.212 135.159  0.00  0.00    +0.000 A 
ATOM     14  C   UNL     1     114.176 129.707 135.708  0.00  0.00    +0.000 A 
BRANCH   7  18
ATOM     15  O   UNL     1     110.211 133.177 137.217  0.00  0.00    +0.000 OA
ATOM     16  O   UNL     1     110.682 131.340 139.355  0.00  0.00    +0.000 OA
ATOM     17  O   UNL     1     110.042 132.757 138.804  0.00  0.00    +0.000 OA
ATOM     18  C   UNL     1     111.256 131.260 137.251  0.00  0.00    +0.000 A 
ATOM     19  C   UNL     1     111.171 131.051 138.045  0.00  0.00    +0.000 A 
ATOM     20  C   UNL     1     110.936 131.969 136.975  0.00  0.00    +0.000 A 
ATOM     21  C   UNL     1     110.531 132.468 137.493  0.00  0.00    +0.000 A 
ATOM     22  C   UNL     1     110.767 131.549 138.562  0.00  0.00    +0.000 A 
ATOM     23  C   UNL     1     110.447 132.258 138.286  0.00  0.00    +0.000 A 
ENDBRANCH   7  18
ENDBRANCH   1   6
BRANCH   1  32
ATOM     24  O   UNL     1     110.284 129.021 136.799  0.00  0.00    +0.000 OA
ATOM     25  O   UNL     1     108.681 127.544 136.678  0.00  0.00    +0.000 OA
ATOM     26  O   UNL     1     108.078 128.739 135.712  0.00  0.00    +0.000 OA
ATOM     27  O   UNL     1     108.946 130.121 135.471  0.00  0.00    +0.000 OA
ATOM     28  C   UNL     1     109.850 128.330 136.919  0.00  0.00    +0.000 C 
ATOM     29  C   UNL     1     109.115 128.235 136.557  0.00  0.00    +0.000 C 
ATOM     30  C   UNL     1     108.813 128.833 136.074  0.00  0.00    +0.000 C 
ATOM     31  C   UNL     1     109.247 129.525 135.954  0.00  0.00    +0.000 C 
ATOM     32  C   UNL     1     109.982 129.618 136.316  0.00  0.00    +0.000 C 
BRANCH  28  33
ATOM     33  C   UNL     1     110.151 127.732 137.403  0.00  0.00    +0.000 C 
BRANCH  33  34
ATOM     34  O   UNL     1     110.381 127.903 138.176  0.00  0.00    +0.000 OA
BRANCH  34  40
ATOM     35  O   UNL     1     111.683 127.314 138.172  0.00  0.00    +0.000 OA
ATOM     36  O   UNL     1     110.090 127.249 139.663  0.00  0.00    +0.000 OA
ATOM     37  O   UNL     1     111.246 126.333 140.402  0.00  0.00    +0.000 OA
ATOM     38  O   UNL     1     112.693 126.070 139.654  0.00  0.00    +0.000 OA
ATOM     39  C   UNL     1     110.813 127.118 139.289  0.00  0.00    +0.000 C 
ATOM     40  C   UNL     1     110.959 127.445 138.545  0.00  0.00    +0.000 C 
ATOM     41  C   UNL     1     111.391 126.660 139.658  0.00  0.00    +0.000 C 
ATOM     42  C   UNL     1     112.115 126.529 139.284  0.00  0.00    +0.000 C 
ATOM     43  C   UNL     1     112.260 126.856 138.541  0.00  0.00    +0.000 C 
ATOM     44  C   UNL     1     112.984 126.725 138.168  0.00  0.00    +0.000 C 
ENDBRANCH  34  40
ENDBRANCH  33  34
ENDBRANCH  28  33
ENDBRANCH   1  32
TORSDOF 6
ENDMDL
MODEL 9
REMARK VINA RESULT:     -10.4      1.517      4.302
REMARK  Name = 44259419
REMARK  6 active torsions:
REMARK  status: ('A' for Active; 'I' for Inactive)
REMARK    1  A    between atoms: O_2  and  C_23
REMARK    2  A    between atoms: O_2  and  C_27
REMARK    3  A    between atoms: O_6  and  C_26
REMARK    4  A    between atoms: O_6  and  C_30
REMARK    5  A    between atoms: C_18  and  C_27
REMARK    6  A    between atoms: C_31  and  C_34
REMARK                            x       y       z     vdW  Elec       q    Type
REMARK                         _______ _______ _______ _____ _____    ______ ____
ROOT
ATOM      1  O   UNL     1     110.987 129.257 137.701  0.00  0.00    +0.000 OA
ENDROOT
BRANCH   1   6
ATOM      2  O   UNL     1     111.759 129.230 135.660  0.00  0.00    +0.000 OA
ATOM      3  O   UNL     1     112.578 129.605 137.965  0.00  0.00    +0.000 OA
ATOM      4  O   UNL     1     113.917 129.835 137.481  0.00  0.00    +0.000 OA
ATOM      5  O   UNL     1     114.438 129.681 134.612  0.00  0.00    +0.000 OA
ATOM      6  C   UNL     1     111.509 129.306 137.064  0.00  0.00    +0.000 A 
ATOM      7  C   UNL     1     111.236 129.180 136.296  0.00  0.00    +0.000 A 
ATOM      8  C   UNL     1     112.305 129.480 137.196  0.00  0.00    +0.000 A 
ATOM      9  C   UNL     1     112.827 129.529 136.560  0.00  0.00    +0.000 A 
ATOM     10  C   UNL     1     112.554 129.404 135.791  0.00  0.00    +0.000 A 
ATOM     11  C   UNL     1     113.653 129.711 136.710  0.00  0.00    +0.000 A 
ATOM     12  C   UNL     1     113.088 129.452 135.120  0.00  0.00    +0.000 A 
ATOM     13  C   UNL     1     114.202 129.763 136.051  0.00  0.00    +0.000 A 
ATOM     14  C   UNL     1     113.918 129.633 135.251  0.00  0.00    +0.000 A 
BRANCH   7  18
ATOM     15  O   UNL     1     108.513 130.031 136.115  0.00  0.00    +0.000 OA
ATOM     16  O   UNL     1     109.184 127.286 135.688  0.00  0.00    +0.000 OA
ATOM     17  O   UNL     1     108.053 128.485 135.770  0.00  0.00    +0.000 OA
ATOM     18  C   UNL     1     110.441 129.006 136.164  0.00  0.00    +0.000 A 
ATOM     19  C   UNL     1     110.210 128.233 135.992  0.00  0.00    +0.000 A 
ATOM     20  C   UNL     1     109.875 129.606 136.205  0.00  0.00    +0.000 A 
ATOM     21  C   UNL     1     109.079 129.432 136.074  0.00  0.00    +0.000 A 
ATOM     22  C   UNL     1     109.415 128.059 135.860  0.00  0.00    +0.000 A 
ATOM     23  C   UNL     1     108.849 128.659 135.901  0.00  0.00    +0.000 A 
ENDBRANCH   7  18
ENDBRANCH   1   6
BRANCH   1  32
ATOM     24  O   UNL     1     111.478 127.991 138.145  0.00  0.00    +0.000 OA
ATOM     25  O   UNL     1     111.551 127.105 140.139  0.00  0.00    +0.000 OA
ATOM     26  O   UNL     1     110.849 128.561 140.470  0.00  0.00    +0.000 OA
ATOM     27  O   UNL     1     110.567 129.637 139.251  0.00  0.00    +0.000 OA
ATOM     28  C   UNL     1     111.620 127.454 138.754  0.00  0.00    +0.000 C 
ATOM     29  C   UNL     1     111.410 127.643 139.529  0.00  0.00    +0.000 C 
ATOM     30  C   UNL     1     111.059 128.372 139.695  0.00  0.00    +0.000 C 
ATOM     31  C   UNL     1     110.918 128.910 139.085  0.00  0.00    +0.000 C 
ATOM     32  C   UNL     1     111.128 128.719 138.311  0.00  0.00    +0.000 C 
BRANCH  28  33
ATOM     33  C   UNL     1     111.971 126.725 138.589  0.00  0.00    +0.000 C 
BRANCH  33  34
ATOM     34  O   UNL     1     111.677 126.254 137.978  0.00  0.00    +0.000 OA
BRANCH  34  40
ATOM     35  O   UNL     1     112.966 125.696 137.717  0.00  0.00    +0.000 OA
ATOM     36  O   UNL     1     110.967 124.971 137.222  0.00  0.00    +0.000 OA
ATOM     37  O   UNL     1     111.902 123.771 136.582  0.00  0.00    +0.000 OA
ATOM     38  O   UNL     1     113.545 123.854 136.699  0.00  0.00    +0.000 OA
ATOM     39  C   UNL     1     111.789 125.013 137.281  0.00  0.00    +0.000 C 
ATOM     40  C   UNL     1     112.144 125.655 137.659  0.00  0.00    +0.000 C 
ATOM     41  C   UNL     1     112.256 124.412 136.961  0.00  0.00    +0.000 C 
ATOM     42  C   UNL     1     113.078 124.454 137.020  0.00  0.00    +0.000 C 
ATOM     43  C   UNL     1     113.433 125.096 137.398  0.00  0.00    +0.000 C 
ATOM     44  C   UNL     1     114.255 125.137 137.456  0.00  0.00    +0.000 C 
ENDBRANCH  34  40
ENDBRANCH  33  34
ENDBRANCH  28  33
ENDBRANCH   1  32
TORSDOF 6
ENDMDL
MODEL 10
REMARK VINA RESULT:     -10.4      1.103      2.944
REMARK  Name = 44259419
REMARK  6 active torsions:
REMARK  status: ('A' for Active; 'I' for Inactive)
REMARK    1  A    between atoms: O_2  and  C_23
REMARK    2  A    between atoms: O_2  and  C_27
REMARK    3  A    between atoms: O_6  and  C_26
REMARK    4  A    between atoms: O_6  and  C_30
REMARK    5  A    between atoms: C_18  and  C_27
REMARK    6  A    between atoms: C_31  and  C_34
REMARK                            x       y       z     vdW  Elec       q    Type
REMARK                         _______ _______ _______ _____ _____    ______ ____
ROOT
ATOM      1  O   UNL     1     112.083 127.678 136.166  0.00  0.00    +0.000 OA
ENDROOT
BRANCH   1   6
ATOM      2  O   UNL     1     111.107 125.749 136.464  0.00  0.00    +0.000 OA
ATOM      3  O   UNL     1     113.392 126.696 136.381  0.00  0.00    +0.000 OA
ATOM      4  O   UNL     1     113.969 125.397 136.625  0.00  0.00    +0.000 OA
ATOM      5  O   UNL     1     112.202 123.097 136.960  0.00  0.00    +0.000 OA
ATOM      6  C   UNL     1     111.975 126.872 136.301  0.00  0.00    +0.000 A 
ATOM      7  C   UNL     1     111.213 126.556 136.329  0.00  0.00    +0.000 A 
ATOM      8  C   UNL     1     112.630 126.380 136.409  0.00  0.00    +0.000 A 
ATOM      9  C   UNL     1     112.522 125.574 136.544  0.00  0.00    +0.000 A 
ATOM     10  C   UNL     1     111.760 125.258 136.572  0.00  0.00    +0.000 A 
ATOM     11  C   UNL     1     113.211 125.073 136.654  0.00  0.00    +0.000 A 
ATOM     12  C   UNL     1     111.635 124.419 136.712  0.00  0.00    +0.000 A 
ATOM     13  C   UNL     1     113.106 124.232 136.796  0.00  0.00    +0.000 A 
ATOM     14  C   UNL     1     112.312 123.903 136.825  0.00  0.00    +0.000 A 
BRANCH   7  18
ATOM     15  O   UNL     1     108.952 127.937 137.401  0.00  0.00    +0.000 OA
ATOM     16  O   UNL     1     109.550 128.123 134.612  0.00  0.00    +0.000 OA
ATOM     17  O   UNL     1     108.597 128.521 135.899  0.00  0.00    +0.000 OA
ATOM     18  C   UNL     1     110.560 127.047 136.221  0.00  0.00    +0.000 A 
ATOM     19  C   UNL     1     110.382 127.339 135.470  0.00  0.00    +0.000 A 
ATOM     20  C   UNL     1     110.084 127.246 136.865  0.00  0.00    +0.000 A 
ATOM     21  C   UNL     1     109.429 127.738 136.757  0.00  0.00    +0.000 A 
ATOM     22  C   UNL     1     109.728 127.830 135.363  0.00  0.00    +0.000 A 
ATOM     23  C   UNL     1     109.252 128.029 136.006  0.00  0.00    +0.000 A 
ENDBRANCH   7  18
ENDBRANCH   1   6
BRANCH   1  32
ATOM     24  O   UNL     1     112.314 128.048 137.526  0.00  0.00    +0.000 OA
ATOM     25  O   UNL     1     113.660 129.531 138.396  0.00  0.00    +0.000 OA
ATOM     26  O   UNL     1     113.987 129.717 136.789  0.00  0.00    +0.000 OA
ATOM     27  O   UNL     1     113.198 128.791 135.674  0.00  0.00    +0.000 OA
ATOM     28  C   UNL     1     112.708 128.511 138.083  0.00  0.00    +0.000 C 
ATOM     29  C   UNL     1     113.266 129.068 137.838  0.00  0.00    +0.000 C 
ATOM     30  C   UNL     1     113.429 129.161 137.034  0.00  0.00    +0.000 C 
ATOM     31  C   UNL     1     113.035 128.698 136.477  0.00  0.00    +0.000 C 
ATOM     32  C   UNL     1     112.477 128.141 136.723  0.00  0.00    +0.000 C 
BRANCH  28  33
ATOM     33  C   UNL     1     112.545 128.418 138.887  0.00  0.00    +0.000 C 
BRANCH  33  34
ATOM     34  O   UNL     1     112.412 127.665 139.197  0.00  0.00    +0.000 OA
BRANCH  34  40
ATOM     35  O   UNL     1     111.722 128.240 140.308  0.00  0.00    +0.000 OA
ATOM     36  O   UNL     1     112.286 126.173 139.890  0.00  0.00    +0.000 OA
ATOM     37  O   UNL     1     111.532 126.002 141.348  0.00  0.00    +0.000 OA
ATOM     38  O   UNL     1     110.906 127.322 142.113  0.00  0.00    +0.000 OA
ATOM     39  C   UNL     1     111.972 126.834 140.272  0.00  0.00    +0.000 C 
ATOM     40  C   UNL     1     112.036 127.580 139.925  0.00  0.00    +0.000 C 
ATOM     41  C   UNL     1     111.596 126.748 141.001  0.00  0.00    +0.000 C 
ATOM     42  C   UNL     1     111.282 127.408 141.383  0.00  0.00    +0.000 C 
ATOM     43  C   UNL     1     111.346 128.154 141.037  0.00  0.00    +0.000 C 
ATOM     44  C   UNL     1     111.032 128.814 141.420  0.00  0.00    +0.000 C 
ENDBRANCH  34  40
ENDBRANCH  33  34
ENDBRANCH  28  33
ENDBRANCH   1  32
TORSDOF 6
ENDMDL
