MODEL 1
REMARK VINA RESULT:      -9.3      0.000      0.000
REMARK  Name = 101220281
REMARK  5 active torsions:
REMARK  status: ('A' for Active; 'I' for Inactive)
REMARK    1  A    between atoms: O_2  and  C_15
REMARK    2  A    between atoms: O_2  and  C_17
REMARK    3  A    between atoms: O_10  and  C_31
REMARK    4  A    between atoms: C_14  and  C_16
REMARK    5  A    between atoms: C_24  and  C_26
REMARK                            x       y       z     vdW  Elec       q    Type
REMARK                         _______ _______ _______ _____ _____    ______ ____
ROOT
ATOM      1  O   UNL     1     110.932 126.272 136.580  0.00  0.00    +0.000 OA
ATOM      2  O   UNL     1     109.734 125.349 134.620  0.00  0.00    +0.000 OA
ATOM      3  C   UNL     1     109.177 127.654 136.501  0.00  0.00    +0.000 A 
ATOM      4  C   UNL     1     109.914 127.292 136.757  0.00  0.00    +0.000 A 
ATOM      5  C   UNL     1     108.762 127.334 135.821  0.00  0.00    +0.000 A 
ATOM      6  C   UNL     1     110.224 126.615 136.330  0.00  0.00    +0.000 A 
ATOM      7  C   UNL     1     109.825 126.307 135.676  0.00  0.00    +0.000 A 
ATOM      8  C   UNL     1     109.088 126.656 135.406  0.00  0.00    +0.000 A 
ATOM      9  C   UNL     1     110.133 125.656 135.273  0.00  0.00    +0.000 A 
ATOM     10  C   UNL     1     111.239 125.621 136.177  0.00  0.00    +0.000 A 
ATOM     11  C   UNL     1     110.840 125.314 135.524  0.00  0.00    +0.000 A 
ENDROOT
BRANCH  10  12
ATOM     12  C   UNL     1     111.947 125.278 136.427  0.00  0.00    +0.000 A 
ATOM     13  C   UNL     1     111.952 124.503 136.709  0.00  0.00    +0.000 A 
ATOM     14  C   UNL     1     112.649 125.710 136.395  0.00  0.00    +0.000 A 
ATOM     15  C   UNL     1     112.659 124.159 136.959  0.00  0.00    +0.000 A 
ATOM     16  C   UNL     1     113.356 125.367 136.644  0.00  0.00    +0.000 A 
ATOM     17  C   UNL     1     113.362 124.592 136.927  0.00  0.00    +0.000 A 
BRANCH  17  18
ATOM     18  O   UNL     1     114.069 124.249 137.177  0.00  0.00    +0.000 OA
ATOM     19  C   UNL     1     114.735 124.719 137.303  0.00  0.00    +0.000 C 
ENDBRANCH  17  18
ENDBRANCH  10  12
BRANCH   3  20
ATOM     20  O   UNL     1     108.872 128.304 136.906  0.00  0.00    +0.000 OA
BRANCH  20  29
ATOM     21  O   UNL     1     109.215 129.314 135.954  0.00  0.00    +0.000 OA
ATOM     22  O   UNL     1     109.852 130.836 137.800  0.00  0.00    +0.000 OA
ATOM     23  O   UNL     1     109.983 131.337 136.234  0.00  0.00    +0.000 OA
ATOM     24  O   UNL     1     109.297 129.319 138.136  0.00  0.00    +0.000 OA
ATOM     25  C   UNL     1     109.640 130.328 137.185  0.00  0.00    +0.000 C 
ATOM     26  C   UNL     1     109.706 130.580 136.402  0.00  0.00    +0.000 C 
ATOM     27  C   UNL     1     109.362 129.570 137.353  0.00  0.00    +0.000 C 
ATOM     28  C   UNL     1     109.493 130.072 135.787  0.00  0.00    +0.000 C 
ATOM     29  C   UNL     1     109.150 129.063 136.738  0.00  0.00    +0.000 C 
BRANCH  28  32
ATOM     30  O   UNL     1     108.899 130.628 134.612  0.00  0.00    +0.000 OA
ATOM     31  O   UNL     1     110.283 130.269 134.612  0.00  0.00    +0.000 OA
ATOM     32  C   UNL     1     109.559 130.323 135.004  0.00  0.00    +0.000 C 
ENDBRANCH  28  32
ENDBRANCH  20  29
ENDBRANCH   3  20
TORSDOF 5
ENDMDL
MODEL 2
REMARK VINA RESULT:      -9.1      7.253     10.179
REMARK  Name = 101220281
REMARK  5 active torsions:
REMARK  status: ('A' for Active; 'I' for Inactive)
REMARK    1  A    between atoms: O_2  and  C_15
REMARK    2  A    between atoms: O_2  and  C_17
REMARK    3  A    between atoms: O_10  and  C_31
REMARK    4  A    between atoms: C_14  and  C_16
REMARK    5  A    between atoms: C_24  and  C_26
REMARK                            x       y       z     vdW  Elec       q    Type
REMARK                         _______ _______ _______ _____ _____    ______ ____
ROOT
ATOM      1  O   UNL     1     103.121 130.290 142.006  0.00  0.00    +0.000 OA
ATOM      2  O   UNL     1     102.712 129.094 139.878  0.00  0.00    +0.000 OA
ATOM      3  C   UNL     1     104.480 128.536 142.271  0.00  0.00    +0.000 A 
ATOM      4  C   UNL     1     104.066 129.272 142.430  0.00  0.00    +0.000 A 
ATOM      5  C   UNL     1     104.338 128.121 141.532  0.00  0.00    +0.000 A 
ATOM      6  C   UNL     1     103.516 129.583 141.848  0.00  0.00    +0.000 A 
ATOM      7  C   UNL     1     103.379 129.185 141.138  0.00  0.00    +0.000 A 
ATOM      8  C   UNL     1     103.784 128.447 140.963  0.00  0.00    +0.000 A 
ATOM      9  C   UNL     1     102.848 129.493 140.587  0.00  0.00    +0.000 A 
ATOM     10  C   UNL     1     102.590 130.599 141.454  0.00  0.00    +0.000 A 
ATOM     11  C   UNL     1     102.454 130.200 140.745  0.00  0.00    +0.000 A 
ENDROOT
BRANCH  10  12
ATOM     12  C   UNL     1     102.195 131.306 141.612  0.00  0.00    +0.000 A 
ATOM     13  C   UNL     1     101.429 131.291 141.917  0.00  0.00    +0.000 A 
ATOM     14  C   UNL     1     102.567 132.027 141.466  0.00  0.00    +0.000 A 
ATOM     15  C   UNL     1     101.034 131.998 142.075  0.00  0.00    +0.000 A 
ATOM     16  C   UNL     1     102.173 132.734 141.623  0.00  0.00    +0.000 A 
ATOM     17  C   UNL     1     101.407 132.720 141.928  0.00  0.00    +0.000 A 
BRANCH  17  18
ATOM     18  O   UNL     1     101.012 133.427 142.085  0.00  0.00    +0.000 OA
ATOM     19  C   UNL     1     101.036 134.045 141.539  0.00  0.00    +0.000 C 
ENDBRANCH  17  18
ENDBRANCH  10  12
BRANCH   3  20
ATOM     20  O   UNL     1     105.010 128.230 142.824  0.00  0.00    +0.000 OA
BRANCH  20  29
ATOM     21  O   UNL     1     106.165 128.870 142.277  0.00  0.00    +0.000 OA
ATOM     22  O   UNL     1     107.554 126.935 142.949  0.00  0.00    +0.000 OA
ATOM     23  O   UNL     1     108.245 128.219 142.178  0.00  0.00    +0.000 OA
ATOM     24  O   UNL     1     105.936 126.941 143.272  0.00  0.00    +0.000 OA
ATOM     25  C   UNL     1     107.091 127.580 142.725  0.00  0.00    +0.000 C 
ATOM     26  C   UNL     1     107.437 128.222 142.340  0.00  0.00    +0.000 C 
ATOM     27  C   UNL     1     106.282 127.582 142.887  0.00  0.00    +0.000 C 
ATOM     28  C   UNL     1     106.974 128.867 142.116  0.00  0.00    +0.000 C 
ATOM     29  C   UNL     1     105.819 128.227 142.663  0.00  0.00    +0.000 C 
BRANCH  28  32
ATOM     30  O   UNL     1     107.580 130.160 142.167  0.00  0.00    +0.000 OA
ATOM     31  O   UNL     1     107.403 129.502 140.910  0.00  0.00    +0.000 OA
ATOM     32  C   UNL     1     107.319 129.509 141.730  0.00  0.00    +0.000 C 
ENDBRANCH  28  32
ENDBRANCH  20  29
ENDBRANCH   3  20
TORSDOF 5
ENDMDL
MODEL 3
REMARK VINA RESULT:      -9.0      8.910     10.196
REMARK  Name = 101220281
REMARK  5 active torsions:
REMARK  status: ('A' for Active; 'I' for Inactive)
REMARK    1  A    between atoms: O_2  and  C_15
REMARK    2  A    between atoms: O_2  and  C_17
REMARK    3  A    between atoms: O_10  and  C_31
REMARK    4  A    between atoms: C_14  and  C_16
REMARK    5  A    between atoms: C_24  and  C_26
REMARK                            x       y       z     vdW  Elec       q    Type
REMARK                         _______ _______ _______ _____ _____    ______ ____
ROOT
ATOM      1  O   UNL     1     106.553 125.876 145.995  0.00  0.00    +0.000 OA
ATOM      2  O   UNL     1     106.566 128.337 146.269  0.00  0.00    +0.000 OA
ATOM      3  C   UNL     1     105.757 126.500 144.003  0.00  0.00    +0.000 A 
ATOM      4  C   UNL     1     106.026 126.000 144.648  0.00  0.00    +0.000 A 
ATOM      5  C   UNL     1     105.761 127.354 144.098  0.00  0.00    +0.000 A 
ATOM      6  C   UNL     1     106.296 126.361 145.379  0.00  0.00    +0.000 A 
ATOM      7  C   UNL     1     106.300 127.182 145.471  0.00  0.00    +0.000 A 
ATOM      8  C   UNL     1     106.035 127.697 144.836  0.00  0.00    +0.000 A 
ATOM      9  C   UNL     1     106.562 127.517 146.178  0.00  0.00    +0.000 A 
ATOM     10  C   UNL     1     106.814 126.212 146.702  0.00  0.00    +0.000 A 
ATOM     11  C   UNL     1     106.819 127.032 146.793  0.00  0.00    +0.000 A 
ENDROOT
BRANCH  10  12
ATOM     12  C   UNL     1     107.072 125.727 147.319  0.00  0.00    +0.000 A 
ATOM     13  C   UNL     1     107.861 125.492 147.356  0.00  0.00    +0.000 A 
ATOM     14  C   UNL     1     106.539 125.478 147.897  0.00  0.00    +0.000 A 
ATOM     15  C   UNL     1     108.119 125.007 147.973  0.00  0.00    +0.000 A 
ATOM     16  C   UNL     1     106.795 124.993 148.513  0.00  0.00    +0.000 A 
ATOM     17  C   UNL     1     107.585 124.758 148.551  0.00  0.00    +0.000 A 
BRANCH  17  18
ATOM     18  O   UNL     1     107.842 124.273 149.167  0.00  0.00    +0.000 OA
ATOM     19  C   UNL     1     107.296 123.842 149.609  0.00  0.00    +0.000 C 
ENDBRANCH  17  18
ENDBRANCH  10  12
BRANCH   3  20
ATOM     20  O   UNL     1     105.496 126.162 143.297  0.00  0.00    +0.000 OA
BRANCH  20  29
ATOM     21  O   UNL     1     106.658 126.412 142.505  0.00  0.00    +0.000 OA
ATOM     22  O   UNL     1     106.451 124.163 141.493  0.00  0.00    +0.000 OA
ATOM     23  O   UNL     1     107.682 125.162 141.038  0.00  0.00    +0.000 OA
ATOM     24  O   UNL     1     105.357 124.663 142.623  0.00  0.00    +0.000 OA
ATOM     25  C   UNL     1     106.520 124.912 141.830  0.00  0.00    +0.000 C 
ATOM     26  C   UNL     1     107.136 125.411 141.603  0.00  0.00    +0.000 C 
ATOM     27  C   UNL     1     105.973 125.162 142.395  0.00  0.00    +0.000 C 
ATOM     28  C   UNL     1     107.205 126.161 141.940  0.00  0.00    +0.000 C 
ATOM     29  C   UNL     1     106.042 125.912 142.732  0.00  0.00    +0.000 C 
BRANCH  28  32
ATOM     30  O   UNL     1     108.554 126.607 142.087  0.00  0.00    +0.000 OA
ATOM     31  O   UNL     1     107.703 127.215 141.113  0.00  0.00    +0.000 OA
ATOM     32  C   UNL     1     107.820 126.661 141.713  0.00  0.00    +0.000 C 
ENDBRANCH  28  32
ENDBRANCH  20  29
ENDBRANCH   3  20
TORSDOF 5
ENDMDL
MODEL 4
REMARK VINA RESULT:      -8.9      3.375      4.623
REMARK  Name = 101220281
REMARK  5 active torsions:
REMARK  status: ('A' for Active; 'I' for Inactive)
REMARK    1  A    between atoms: O_2  and  C_15
REMARK    2  A    between atoms: O_2  and  C_17
REMARK    3  A    between atoms: O_10  and  C_31
REMARK    4  A    between atoms: C_14  and  C_16
REMARK    5  A    between atoms: C_24  and  C_26
REMARK                            x       y       z     vdW  Elec       q    Type
REMARK                         _______ _______ _______ _____ _____    ______ ____
ROOT
ATOM      1  O   UNL     1     112.204 126.634 137.770  0.00  0.00    +0.000 OA
ATOM      2  O   UNL     1     114.259 125.275 138.006  0.00  0.00    +0.000 OA
ATOM      3  C   UNL     1     113.102 127.586 139.581  0.00  0.00    +0.000 A 
ATOM      4  C   UNL     1     112.556 127.421 138.938  0.00  0.00    +0.000 A 
ATOM      5  C   UNL     1     113.815 127.115 139.663  0.00  0.00    +0.000 A 
ATOM      6  C   UNL     1     112.731 126.787 138.385  0.00  0.00    +0.000 A 
ATOM      7  C   UNL     1     113.417 126.334 138.464  0.00  0.00    +0.000 A 
ATOM      8  C   UNL     1     113.973 126.485 139.101  0.00  0.00    +0.000 A 
ATOM      9  C   UNL     1     113.574 125.728 137.927  0.00  0.00    +0.000 A 
ATOM     10  C   UNL     1     112.362 126.027 137.233  0.00  0.00    +0.000 A 
ATOM     11  C   UNL     1     113.047 125.575 137.312  0.00  0.00    +0.000 A 
ENDROOT
BRANCH  10  12
ATOM     12  C   UNL     1     111.834 125.873 136.617  0.00  0.00    +0.000 A 
ATOM     13  C   UNL     1     111.744 126.419 136.005  0.00  0.00    +0.000 A 
ATOM     14  C   UNL     1     111.396 125.174 136.614  0.00  0.00    +0.000 A 
ATOM     15  C   UNL     1     111.217 126.265 135.389  0.00  0.00    +0.000 A 
ATOM     16  C   UNL     1     110.869 125.020 135.999  0.00  0.00    +0.000 A 
ATOM     17  C   UNL     1     110.779 125.565 135.387  0.00  0.00    +0.000 A 
BRANCH  17  18
ATOM     18  O   UNL     1     110.252 125.412 134.771  0.00  0.00    +0.000 OA
ATOM     19  C   UNL     1     109.577 125.877 134.679  0.00  0.00    +0.000 C 
ENDBRANCH  17  18
ENDBRANCH  10  12
BRANCH   3  20
ATOM     20  O   UNL     1     112.942 128.193 140.116  0.00  0.00    +0.000 OA
BRANCH  20  29
ATOM     21  O   UNL     1     113.290 129.311 139.298  0.00  0.00    +0.000 OA
ATOM     22  O   UNL     1     114.432 130.365 141.224  0.00  0.00    +0.000 OA
ATOM     23  O   UNL     1     114.399 131.132 139.764  0.00  0.00    +0.000 OA
ATOM     24  O   UNL     1     113.703 128.895 141.400  0.00  0.00    +0.000 OA
ATOM     25  C   UNL     1     114.051 130.014 140.582  0.00  0.00    +0.000 C 
ATOM     26  C   UNL     1     114.035 130.397 139.852  0.00  0.00    +0.000 C 
ATOM     27  C   UNL     1     113.687 129.279 140.671  0.00  0.00    +0.000 C 
ATOM     28  C   UNL     1     113.654 130.046 139.210  0.00  0.00    +0.000 C 
ATOM     29  C   UNL     1     113.306 128.927 140.029  0.00  0.00    +0.000 C 
BRANCH  28  32
ATOM     30  O   UNL     1     113.005 130.925 138.289  0.00  0.00    +0.000 OA
ATOM     31  O   UNL     1     114.252 130.317 137.941  0.00  0.00    +0.000 OA
ATOM     32  C   UNL     1     113.637 130.429 138.480  0.00  0.00    +0.000 C 
ENDBRANCH  28  32
ENDBRANCH  20  29
ENDBRANCH   3  20
TORSDOF 5
ENDMDL
MODEL 5
REMARK VINA RESULT:      -8.9      1.474      2.462
REMARK  Name = 101220281
REMARK  5 active torsions:
REMARK  status: ('A' for Active; 'I' for Inactive)
REMARK    1  A    between atoms: O_2  and  C_15
REMARK    2  A    between atoms: O_2  and  C_17
REMARK    3  A    between atoms: O_10  and  C_31
REMARK    4  A    between atoms: C_14  and  C_16
REMARK    5  A    between atoms: C_24  and  C_26
REMARK                            x       y       z     vdW  Elec       q    Type
REMARK                         _______ _______ _______ _____ _____    ______ ____
ROOT
ATOM      1  O   UNL     1     110.401 127.349 135.979  0.00  0.00    +0.000 OA
ATOM      2  O   UNL     1     112.234 128.517 134.793  0.00  0.00    +0.000 OA
ATOM      3  C   UNL     1     109.375 129.263 135.451  0.00  0.00    +0.000 A 
ATOM      4  C   UNL     1     109.509 128.476 135.769  0.00  0.00    +0.000 A 
ATOM      5  C   UNL     1     110.011 129.668 135.039  0.00  0.00    +0.000 A 
ATOM      6  C   UNL     1     110.278 128.105 135.671  0.00  0.00    +0.000 A 
ATOM      7  C   UNL     1     110.889 128.494 135.276  0.00  0.00    +0.000 A 
ATOM      8  C   UNL     1     110.773 129.281 134.951  0.00  0.00    +0.000 A 
ATOM      9  C   UNL     1     111.623 128.127 135.188  0.00  0.00    +0.000 A 
ATOM     10  C   UNL     1     111.135 126.983 135.891  0.00  0.00    +0.000 A 
ATOM     11  C   UNL     1     111.746 127.372 135.496  0.00  0.00    +0.000 A 
ENDROOT
BRANCH  10  12
ATOM     12  C   UNL     1     111.259 126.228 136.199  0.00  0.00    +0.000 A 
ATOM     13  C   UNL     1     111.074 125.563 135.747  0.00  0.00    +0.000 A 
ATOM     14  C   UNL     1     111.567 126.137 136.959  0.00  0.00    +0.000 A 
ATOM     15  C   UNL     1     111.198 124.807 136.055  0.00  0.00    +0.000 A 
ATOM     16  C   UNL     1     111.691 125.382 137.267  0.00  0.00    +0.000 A 
ATOM     17  C   UNL     1     111.506 124.717 136.815  0.00  0.00    +0.000 A 
BRANCH  17  18
ATOM     18  O   UNL     1     111.630 123.962 137.123  0.00  0.00    +0.000 OA
ATOM     19  C   UNL     1     112.280 123.517 136.878  0.00  0.00    +0.000 C 
ENDBRANCH  17  18
ENDBRANCH  10  12
BRANCH   3  20
ATOM     20  O   UNL     1     108.640 129.627 135.540  0.00  0.00    +0.000 OA
BRANCH  20  29
ATOM     21  O   UNL     1     108.866 130.124 136.860  0.00  0.00    +0.000 OA
ATOM     22  O   UNL     1     107.572 132.162 136.313  0.00  0.00    +0.000 OA
ATOM     23  O   UNL     1     108.229 131.980 137.815  0.00  0.00    +0.000 OA
ATOM     24  O   UNL     1     107.778 130.985 135.175  0.00  0.00    +0.000 OA
ATOM     25  C   UNL     1     108.003 131.483 136.496  0.00  0.00    +0.000 C 
ATOM     26  C   UNL     1     108.332 131.392 137.246  0.00  0.00    +0.000 C 
ATOM     27  C   UNL     1     108.106 130.895 135.926  0.00  0.00    +0.000 C 
ATOM     28  C   UNL     1     108.763 130.713 137.429  0.00  0.00    +0.000 C 
ATOM     29  C   UNL     1     108.537 130.215 136.108  0.00  0.00    +0.000 C 
BRANCH  28  32
ATOM     30  O   UNL     1     109.847 130.916 138.338  0.00  0.00    +0.000 OA
ATOM     31  O   UNL     1     108.667 130.236 138.773  0.00  0.00    +0.000 OA
ATOM     32  C   UNL     1     109.092 130.622 138.180  0.00  0.00    +0.000 C 
ENDBRANCH  28  32
ENDBRANCH  20  29
ENDBRANCH   3  20
TORSDOF 5
ENDMDL
MODEL 6
REMARK VINA RESULT:      -8.8      2.156      5.886
REMARK  Name = 101220281
REMARK  5 active torsions:
REMARK  status: ('A' for Active; 'I' for Inactive)
REMARK    1  A    between atoms: O_2  and  C_15
REMARK    2  A    between atoms: O_2  and  C_17
REMARK    3  A    between atoms: O_10  and  C_31
REMARK    4  A    between atoms: C_14  and  C_16
REMARK    5  A    between atoms: C_24  and  C_26
REMARK                            x       y       z     vdW  Elec       q    Type
REMARK                         _______ _______ _______ _____ _____    ______ ____
ROOT
ATOM      1  O   UNL     1     112.387 129.175 136.920  0.00  0.00    +0.000 OA
ATOM      2  O   UNL     1     113.968 129.359 135.024  0.00  0.00    +0.000 OA
ATOM      3  C   UNL     1     113.320 127.145 136.984  0.00  0.00    +0.000 A 
ATOM      4  C   UNL     1     112.818 127.813 137.185  0.00  0.00    +0.000 A 
ATOM      5  C   UNL     1     113.868 127.209 136.326  0.00  0.00    +0.000 A 
ATOM      6  C   UNL     1     112.871 128.536 136.724  0.00  0.00    +0.000 A 
ATOM      7  C   UNL     1     113.398 128.598 136.091  0.00  0.00    +0.000 A 
ATOM      8  C   UNL     1     113.908 127.940 135.877  0.00  0.00    +0.000 A 
ATOM      9  C   UNL     1     113.441 129.298 135.656  0.00  0.00    +0.000 A 
ATOM     10  C   UNL     1     112.430 129.874 136.485  0.00  0.00    +0.000 A 
ATOM     11  C   UNL     1     112.956 129.935 135.853  0.00  0.00    +0.000 A 
ENDROOT
BRANCH  10  12
ATOM     12  C   UNL     1     111.945 130.513 136.682  0.00  0.00    +0.000 A 
ATOM     13  C   UNL     1     111.175 130.551 136.390  0.00  0.00    +0.000 A 
ATOM     14  C   UNL     1     112.232 131.113 137.170  0.00  0.00    +0.000 A 
ATOM     15  C   UNL     1     110.691 131.190 136.586  0.00  0.00    +0.000 A 
ATOM     16  C   UNL     1     111.749 131.751 137.367  0.00  0.00    +0.000 A 
ATOM     17  C   UNL     1     110.978 131.790 137.075  0.00  0.00    +0.000 A 
BRANCH  17  18
ATOM     18  O   UNL     1     110.494 132.428 137.272  0.00  0.00    +0.000 OA
ATOM     19  C   UNL     1     110.441 133.078 136.767  0.00  0.00    +0.000 C 
ENDBRANCH  17  18
ENDBRANCH  10  12
BRANCH   3  20
ATOM     20  O   UNL     1     113.275 126.447 137.421  0.00  0.00    +0.000 OA
BRANCH  20  29
ATOM     21  O   UNL     1     112.142 125.899 136.745  0.00  0.00    +0.000 OA
ATOM     22  O   UNL     1     113.113 123.633 136.952  0.00  0.00    +0.000 OA
ATOM     23  O   UNL     1     111.656 123.841 136.207  0.00  0.00    +0.000 OA
ATOM     24  O   UNL     1     113.923 124.936 137.559  0.00  0.00    +0.000 OA
ATOM     25  C   UNL     1     112.789 124.388 136.883  0.00  0.00    +0.000 C 
ATOM     26  C   UNL     1     112.061 124.492 136.511  0.00  0.00    +0.000 C 
ATOM     27  C   UNL     1     113.195 125.040 137.187  0.00  0.00    +0.000 C 
ATOM     28  C   UNL     1     111.737 125.248 136.442  0.00  0.00    +0.000 C 
ATOM     29  C   UNL     1     112.871 125.795 137.118  0.00  0.00    +0.000 C 
BRANCH  28  32
ATOM     30  O   UNL     1     110.319 125.405 136.520  0.00  0.00    +0.000 OA
ATOM     31  O   UNL     1     110.969 125.405 135.247  0.00  0.00    +0.000 OA
ATOM     32  C   UNL     1     111.009 125.352 136.069  0.00  0.00    +0.000 C 
ENDBRANCH  28  32
ENDBRANCH  20  29
ENDBRANCH   3  20
TORSDOF 5
ENDMDL
MODEL 7
REMARK VINA RESULT:      -8.8      3.541      4.559
REMARK  Name = 101220281
REMARK  5 active torsions:
REMARK  status: ('A' for Active; 'I' for Inactive)
REMARK    1  A    between atoms: O_2  and  C_15
REMARK    2  A    between atoms: O_2  and  C_17
REMARK    3  A    between atoms: O_10  and  C_31
REMARK    4  A    between atoms: C_14  and  C_16
REMARK    5  A    between atoms: C_24  and  C_26
REMARK                            x       y       z     vdW  Elec       q    Type
REMARK                         _______ _______ _______ _____ _____    ______ ____
ROOT
ATOM      1  O   UNL     1     112.970 127.721 137.326  0.00  0.00    +0.000 OA
ATOM      2  O   UNL     1     114.256 128.912 135.578  0.00  0.00    +0.000 OA
ATOM      3  C   UNL     1     112.704 129.832 138.008  0.00  0.00    +0.000 A 
ATOM      4  C   UNL     1     112.643 128.975 137.981  0.00  0.00    +0.000 A 
ATOM      5  C   UNL     1     113.150 130.245 137.402  0.00  0.00    +0.000 A 
ATOM      6  C   UNL     1     113.031 128.543 137.347  0.00  0.00    +0.000 A 
ATOM      7  C   UNL     1     113.460 128.940 136.764  0.00  0.00    +0.000 A 
ATOM      8  C   UNL     1     113.530 129.797 136.776  0.00  0.00    +0.000 A 
ATOM      9  C   UNL     1     113.827 128.515 136.160  0.00  0.00    +0.000 A 
ATOM     10  C   UNL     1     113.337 127.296 136.722  0.00  0.00    +0.000 A 
ATOM     11  C   UNL     1     113.766 127.693 136.139  0.00  0.00    +0.000 A 
ENDROOT
BRANCH  10  12
ATOM     12  C   UNL     1     113.276 126.473 136.701  0.00  0.00    +0.000 A 
ATOM     13  C   UNL     1     113.902 126.006 136.967  0.00  0.00    +0.000 A 
ATOM     14  C   UNL     1     112.590 126.118 136.412  0.00  0.00    +0.000 A 
ATOM     15  C   UNL     1     113.841 125.183 136.946  0.00  0.00    +0.000 A 
ATOM     16  C   UNL     1     112.528 125.296 136.390  0.00  0.00    +0.000 A 
ATOM     17  C   UNL     1     113.154 124.828 136.657  0.00  0.00    +0.000 A 
BRANCH  17  18
ATOM     18  O   UNL     1     113.093 124.006 136.636  0.00  0.00    +0.000 OA
ATOM     19  C   UNL     1     112.388 123.638 136.856  0.00  0.00    +0.000 C 
ENDBRANCH  17  18
ENDBRANCH  10  12
BRANCH   3  20
ATOM     20  O   UNL     1     112.335 130.255 138.613  0.00  0.00    +0.000 OA
BRANCH  20  29
ATOM     21  O   UNL     1     113.459 130.411 139.482  0.00  0.00    +0.000 OA
ATOM     22  O   UNL     1     112.016 129.930 141.434  0.00  0.00    +0.000 OA
ATOM     23  O   UNL     1     113.620 130.247 141.652  0.00  0.00    +0.000 OA
ATOM     24  O   UNL     1     111.373 129.934 139.915  0.00  0.00    +0.000 OA
ATOM     25  C   UNL     1     112.497 130.090 140.784  0.00  0.00    +0.000 C 
ATOM     26  C   UNL     1     113.298 130.249 140.893  0.00  0.00    +0.000 C 
ATOM     27  C   UNL     1     112.175 130.092 140.024  0.00  0.00    +0.000 C 
ATOM     28  C   UNL     1     113.779 130.409 140.242  0.00  0.00    +0.000 C 
ATOM     29  C   UNL     1     112.656 130.253 139.373  0.00  0.00    +0.000 C 
BRANCH  28  32
ATOM     30  O   UNL     1     115.121 129.945 140.402  0.00  0.00    +0.000 OA
ATOM     31  O   UNL     1     114.844 131.348 140.407  0.00  0.00    +0.000 OA
ATOM     32  C   UNL     1     114.582 130.568 140.350  0.00  0.00    +0.000 C 
ENDBRANCH  28  32
ENDBRANCH  20  29
ENDBRANCH   3  20
TORSDOF 5
ENDMDL
MODEL 8
REMARK VINA RESULT:      -8.8      2.947      4.764
REMARK  Name = 101220281
REMARK  5 active torsions:
REMARK  status: ('A' for Active; 'I' for Inactive)
REMARK    1  A    between atoms: O_2  and  C_15
REMARK    2  A    between atoms: O_2  and  C_17
REMARK    3  A    between atoms: O_10  and  C_31
REMARK    4  A    between atoms: C_14  and  C_16
REMARK    5  A    between atoms: C_24  and  C_26
REMARK                            x       y       z     vdW  Elec       q    Type
REMARK                         _______ _______ _______ _____ _____    ______ ____
ROOT
ATOM      1  O   UNL     1     112.497 128.308 135.449  0.00  0.00    +0.000 OA
ATOM      2  O   UNL     1     110.576 129.625 134.612  0.00  0.00    +0.000 OA
ATOM      3  C   UNL     1     110.875 126.777 135.591  0.00  0.00    +0.000 A 
ATOM      4  C   UNL     1     111.652 127.143 135.641  0.00  0.00    +0.000 A 
ATOM      5  C   UNL     1     110.209 127.234 135.301  0.00  0.00    +0.000 A 
ATOM      6  C   UNL     1     111.750 127.961 135.399  0.00  0.00    +0.000 A 
ATOM      7  C   UNL     1     111.110 128.401 135.120  0.00  0.00    +0.000 A 
ATOM      8  C   UNL     1     110.327 128.051 135.064  0.00  0.00    +0.000 A 
ATOM      9  C   UNL     1     111.216 129.187 134.891  0.00  0.00    +0.000 A 
ATOM     10  C   UNL     1     112.604 129.093 135.220  0.00  0.00    +0.000 A 
ATOM     11  C   UNL     1     111.963 129.532 134.941  0.00  0.00    +0.000 A 
ENDROOT
BRANCH  10  12
ATOM     12  C   UNL     1     113.351 129.440 135.269  0.00  0.00    +0.000 A 
ATOM     13  C   UNL     1     113.544 129.914 135.916  0.00  0.00    +0.000 A 
ATOM     14  C   UNL     1     113.906 129.311 134.672  0.00  0.00    +0.000 A 
ATOM     15  C   UNL     1     114.291 130.261 135.965  0.00  0.00    +0.000 A 
ATOM     16  C   UNL     1     114.653 129.657 134.721  0.00  0.00    +0.000 A 
ATOM     17  C   UNL     1     114.845 130.132 135.368  0.00  0.00    +0.000 A 
BRANCH  17  18
ATOM     18  O   UNL     1     115.592 130.478 135.417  0.00  0.00    +0.000 OA
ATOM     19  C   UNL     1     115.710 131.249 135.147  0.00  0.00    +0.000 C 
ENDBRANCH  17  18
ENDBRANCH  10  12
BRANCH   3  20
ATOM     20  O   UNL     1     110.772 125.992 135.821  0.00  0.00    +0.000 OA
BRANCH  20  29
ATOM     21  O   UNL     1     110.434 126.267 137.183  0.00  0.00    +0.000 OA
ATOM     22  O   UNL     1     111.629 124.219 137.893  0.00  0.00    +0.000 OA
ATOM     23  O   UNL     1     110.894 125.178 139.016  0.00  0.00    +0.000 OA
ATOM     24  O   UNL     1     111.568 124.626 136.295  0.00  0.00    +0.000 OA
ATOM     25  C   UNL     1     111.231 124.902 137.656  0.00  0.00    +0.000 C 
ATOM     26  C   UNL     1     110.863 125.381 138.218  0.00  0.00    +0.000 C 
ATOM     27  C   UNL     1     111.201 125.105 136.857  0.00  0.00    +0.000 C 
ATOM     28  C   UNL     1     110.465 126.063 137.981  0.00  0.00    +0.000 C 
ATOM     29  C   UNL     1     110.802 125.788 136.620  0.00  0.00    +0.000 C 
BRANCH  28  32
ATOM     30  O   UNL     1     110.533 127.122 138.939  0.00  0.00    +0.000 OA
ATOM     31  O   UNL     1     109.295 126.445 138.708  0.00  0.00    +0.000 OA
ATOM     32  C   UNL     1     110.098 126.543 138.543  0.00  0.00    +0.000 C 
ENDBRANCH  28  32
ENDBRANCH  20  29
ENDBRANCH   3  20
TORSDOF 5
ENDMDL
MODEL 9
REMARK VINA RESULT:      -8.8      7.917     10.397
REMARK  Name = 101220281
REMARK  5 active torsions:
REMARK  status: ('A' for Active; 'I' for Inactive)
REMARK    1  A    between atoms: O_2  and  C_15
REMARK    2  A    between atoms: O_2  and  C_17
REMARK    3  A    between atoms: O_10  and  C_31
REMARK    4  A    between atoms: C_14  and  C_16
REMARK    5  A    between atoms: C_24  and  C_26
REMARK                            x       y       z     vdW  Elec       q    Type
REMARK                         _______ _______ _______ _____ _____    ______ ____
ROOT
ATOM      1  O   UNL     1     104.931 127.799 142.422  0.00  0.00    +0.000 OA
ATOM      2  O   UNL     1     107.138 128.868 142.083  0.00  0.00    +0.000 OA
ATOM      3  C   UNL     1     106.280 126.088 142.915  0.00  0.00    +0.000 A 
ATOM      4  C   UNL     1     105.563 126.544 142.787  0.00  0.00    +0.000 A 
ATOM      5  C   UNL     1     107.045 126.458 142.798  0.00  0.00    +0.000 A 
ATOM      6  C   UNL     1     105.622 127.366 142.543  0.00  0.00    +0.000 A 
ATOM      7  C   UNL     1     106.358 127.722 142.430  0.00  0.00    +0.000 A 
ATOM      8  C   UNL     1     107.085 127.281 142.553  0.00  0.00    +0.000 A 
ATOM      9  C   UNL     1     106.402 128.512 142.196  0.00  0.00    +0.000 A 
ATOM     10  C   UNL     1     104.975 128.589 142.187  0.00  0.00    +0.000 A 
ATOM     11  C   UNL     1     105.711 128.945 142.074  0.00  0.00    +0.000 A 
ENDROOT
BRANCH  10  12
ATOM     12  C   UNL     1     104.284 129.023 142.066  0.00  0.00    +0.000 A 
ATOM     13  C   UNL     1     103.881 128.965 141.348  0.00  0.00    +0.000 A 
ATOM     14  C   UNL     1     103.995 129.514 142.662  0.00  0.00    +0.000 A 
ATOM     15  C   UNL     1     103.190 129.399 141.226  0.00  0.00    +0.000 A 
ATOM     16  C   UNL     1     103.304 129.948 142.541  0.00  0.00    +0.000 A 
ATOM     17  C   UNL     1     102.902 129.891 141.824  0.00  0.00    +0.000 A 
BRANCH  17  18
ATOM     18  O   UNL     1     102.211 130.324 141.702  0.00  0.00    +0.000 OA
ATOM     19  C   UNL     1     102.253 131.103 141.434  0.00  0.00    +0.000 C 
ENDBRANCH  17  18
ENDBRANCH  10  12
BRANCH   3  20
ATOM     20  O   UNL     1     106.232 125.298 143.150  0.00  0.00    +0.000 OA
BRANCH  20  29
ATOM     21  O   UNL     1     106.392 125.507 144.554  0.00  0.00    +0.000 OA
ATOM     22  O   UNL     1     104.707 123.752 145.007  0.00  0.00    +0.000 OA
ATOM     23  O   UNL     1     105.429 124.545 146.260  0.00  0.00    +0.000 OA
ATOM     24  O   UNL     1     105.108 124.128 143.452  0.00  0.00    +0.000 OA
ATOM     25  C   UNL     1     105.269 124.337 144.856  0.00  0.00    +0.000 C 
ATOM     26  C   UNL     1     105.629 124.733 145.483  0.00  0.00    +0.000 C 
ATOM     27  C   UNL     1     105.469 124.525 144.078  0.00  0.00    +0.000 C 
ATOM     28  C   UNL     1     106.191 125.318 145.332  0.00  0.00    +0.000 C 
ATOM     29  C   UNL     1     106.031 125.110 143.927  0.00  0.00    +0.000 C 
BRANCH  28  32
ATOM     30  O   UNL     1     106.204 126.395 146.271  0.00  0.00    +0.000 OA
ATOM     31  O   UNL     1     107.262 125.433 146.272  0.00  0.00    +0.000 OA
ATOM     32  C   UNL     1     106.553 125.715 145.958  0.00  0.00    +0.000 C 
ENDBRANCH  28  32
ENDBRANCH  20  29
ENDBRANCH   3  20
TORSDOF 5
ENDMDL
MODEL 10
REMARK VINA RESULT:      -8.7      1.388      2.941
REMARK  Name = 101220281
REMARK  5 active torsions:
REMARK  status: ('A' for Active; 'I' for Inactive)
REMARK    1  A    between atoms: O_2  and  C_15
REMARK    2  A    between atoms: O_2  and  C_17
REMARK    3  A    between atoms: O_10  and  C_31
REMARK    4  A    between atoms: C_14  and  C_16
REMARK    5  A    between atoms: C_24  and  C_26
REMARK                            x       y       z     vdW  Elec       q    Type
REMARK                         _______ _______ _______ _____ _____    ______ ____
ROOT
ATOM      1  O   UNL     1     110.325 127.956 135.982  0.00  0.00    +0.000 OA
ATOM      2  O   UNL     1     107.865 128.053 135.729  0.00  0.00    +0.000 OA
ATOM      3  C   UNL     1     110.014 130.168 135.982  0.00  0.00    +0.000 A 
ATOM      4  C   UNL     1     110.408 129.405 136.011  0.00  0.00    +0.000 A 
ATOM      5  C   UNL     1     109.161 130.202 135.894  0.00  0.00    +0.000 A 
ATOM      6  C   UNL     1     109.942 128.686 135.953  0.00  0.00    +0.000 A 
ATOM      7  C   UNL     1     109.122 128.718 135.868  0.00  0.00    +0.000 A 
ATOM      8  C   UNL     1     108.712 129.472 135.837  0.00  0.00    +0.000 A 
ATOM      9  C   UNL     1     108.685 128.020 135.813  0.00  0.00    +0.000 A 
ATOM     10  C   UNL     1     109.888 127.258 135.926  0.00  0.00    +0.000 A 
ATOM     11  C   UNL     1     109.068 127.291 135.842  0.00  0.00    +0.000 A 
ENDROOT
BRANCH  10  12
ATOM     12  C   UNL     1     110.271 126.528 135.956  0.00  0.00    +0.000 A 
ATOM     13  C   UNL     1     110.457 126.131 135.256  0.00  0.00    +0.000 A 
ATOM     14  C   UNL     1     110.469 126.194 136.684  0.00  0.00    +0.000 A 
ATOM     15  C   UNL     1     110.840 125.401 135.285  0.00  0.00    +0.000 A 
ATOM     16  C   UNL     1     110.852 125.465 136.714  0.00  0.00    +0.000 A 
ATOM     17  C   UNL     1     111.037 125.068 136.015  0.00  0.00    +0.000 A 
BRANCH  17  18
ATOM     18  O   UNL     1     111.420 124.338 136.044  0.00  0.00    +0.000 OA
ATOM     19  C   UNL     1     112.118 124.254 136.475  0.00  0.00    +0.000 C 
ENDBRANCH  17  18
ENDBRANCH  10  12
BRANCH   3  20
ATOM     20  O   UNL     1     110.454 130.864 136.037  0.00  0.00    +0.000 OA
BRANCH  20  29
ATOM     21  O   UNL     1     110.628 130.906 137.455  0.00  0.00    +0.000 OA
ATOM     22  O   UNL     1     110.170 133.338 137.440  0.00  0.00    +0.000 OA
ATOM     23  O   UNL     1     110.496 132.569 138.862  0.00  0.00    +0.000 OA
ATOM     24  O   UNL     1     110.148 132.486 136.027  0.00  0.00    +0.000 OA
ATOM     25  C   UNL     1     110.322 132.527 137.445  0.00  0.00    +0.000 C 
ATOM     26  C   UNL     1     110.485 132.143 138.156  0.00  0.00    +0.000 C 
ATOM     27  C   UNL     1     110.312 132.102 136.738  0.00  0.00    +0.000 C 
ATOM     28  C   UNL     1     110.638 131.333 138.161  0.00  0.00    +0.000 C 
ATOM     29  C   UNL     1     110.464 131.291 136.743  0.00  0.00    +0.000 C 
BRANCH  28  32
ATOM     30  O   UNL     1     111.580 130.892 139.141  0.00  0.00    +0.000 OA
ATOM     31  O   UNL     1     110.188 130.618 139.313  0.00  0.00    +0.000 OA
ATOM     32  C   UNL     1     110.802 130.948 138.872  0.00  0.00    +0.000 C 
ENDBRANCH  28  32
ENDBRANCH  20  29
ENDBRANCH   3  20
TORSDOF 5
ENDMDL
