MODEL 1
REMARK VINA RESULT:     -11.1      0.000      0.000
REMARK  Name = 131752174
REMARK  10 active torsions:
REMARK  status: ('A' for Active; 'I' for Inactive)
REMARK    1  A    between atoms: O_3  and  C_23
REMARK    2  A    between atoms: O_3  and  C_28
REMARK    3  A    between atoms: O_6  and  C_26
REMARK    4  A    between atoms: O_6  and  C_30
REMARK    5  A    between atoms: O_14  and  C_44
REMARK    6  A    between atoms: O_14  and  C_45
REMARK    7  A    between atoms: C_18  and  C_28
REMARK    8  A    between atoms: C_37  and  C_39
REMARK    9  A    between atoms: C_45  and  C_46
REMARK   10  A    between atoms: C_47  and  C_48
REMARK                            x       y       z     vdW  Elec       q    Type
REMARK                         _______ _______ _______ _____ _____    ______ ____
ROOT
ATOM      1  O   UNL     1     108.654 125.969 141.255  0.00  0.00    +0.000 OA
ATOM      2  O   UNL     1     109.910 128.474 141.957  0.00  0.00    +0.000 OA
ATOM      3  O   UNL     1     108.478 128.316 142.020  0.00  0.00    +0.000 OA
ATOM      4  C   UNL     1     110.813 126.544 141.267  0.00  0.00    +0.000 A 
ATOM      5  C   UNL     1     110.100 126.074 141.173  0.00  0.00    +0.000 A 
ATOM      6  C   UNL     1     110.752 127.359 141.533  0.00  0.00    +0.000 A 
ATOM      7  C   UNL     1     109.336 126.425 141.347  0.00  0.00    +0.000 A 
ATOM      8  C   UNL     1     109.979 127.693 141.702  0.00  0.00    +0.000 A 
ATOM      9  C   UNL     1     109.277 127.207 141.602  0.00  0.00    +0.000 A 
ATOM     10  C   UNL     1     108.536 127.533 141.765  0.00  0.00    +0.000 A 
ATOM     11  C   UNL     1     107.914 126.295 141.418  0.00  0.00    +0.000 A 
ATOM     12  C   UNL     1     107.855 127.077 141.673  0.00  0.00    +0.000 A 
ENDROOT
BRANCH  11  13
ATOM     13  C   UNL     1     107.233 125.839 141.326  0.00  0.00    +0.000 A 
ATOM     14  C   UNL     1     107.006 125.312 141.919  0.00  0.00    +0.000 A 
ATOM     15  C   UNL     1     106.778 125.910 140.641  0.00  0.00    +0.000 A 
ATOM     16  C   UNL     1     106.324 124.856 141.826  0.00  0.00    +0.000 A 
ATOM     17  C   UNL     1     106.097 125.454 140.548  0.00  0.00    +0.000 A 
ATOM     18  C   UNL     1     105.870 124.928 141.141  0.00  0.00    +0.000 A 
BRANCH  18  19
ATOM     19  O   UNL     1     105.189 124.472 141.049  0.00  0.00    +0.000 OA
BRANCH  19  21
ATOM     20  O   UNL     1     105.608 123.168 140.640  0.00  0.00    +0.000 OA
ATOM     21  C   UNL     1     105.174 123.856 140.500  0.00  0.00    +0.000 C 
BRANCH  21  22
ATOM     22  C   UNL     1     104.727 123.928 139.810  0.00  0.00    +0.000 C 
ATOM     23  C   UNL     1     104.163 123.356 139.623  0.00  0.00    +0.000 C 
BRANCH  23  26
ATOM     24  O   UNL     1     101.632 123.692 138.339  0.00  0.00    +0.000 OA
ATOM     25  O   UNL     1     102.374 123.646 136.865  0.00  0.00    +0.000 OA
ATOM     26  C   UNL     1     103.716 123.429 138.933  0.00  0.00    +0.000 A 
ATOM     27  C   UNL     1     102.897 123.524 138.980  0.00  0.00    +0.000 A 
ATOM     28  C   UNL     1     104.086 123.406 138.197  0.00  0.00    +0.000 A 
ATOM     29  C   UNL     1     102.450 123.597 138.291  0.00  0.00    +0.000 A 
ATOM     30  C   UNL     1     103.639 123.478 137.508  0.00  0.00    +0.000 A 
ATOM     31  C   UNL     1     102.821 123.573 137.554  0.00  0.00    +0.000 A 
ENDBRANCH  23  26
ENDBRANCH  21  22
ENDBRANCH  19  21
ENDBRANCH  18  19
ENDBRANCH  11  13
BRANCH   4  32
ATOM     32  O   UNL     1     111.553 126.215 141.103  0.00  0.00    +0.000 OA
BRANCH  32  41
ATOM     33  O   UNL     1     111.545 126.289 139.676  0.00  0.00    +0.000 OA
ATOM     34  O   UNL     1     113.087 126.933 138.271  0.00  0.00    +0.000 OA
ATOM     35  O   UNL     1     113.868 127.143 139.709  0.00  0.00    +0.000 OA
ATOM     36  O   UNL     1     113.101 126.783 141.125  0.00  0.00    +0.000 OA
ATOM     37  C   UNL     1     111.928 126.469 138.968  0.00  0.00    +0.000 C 
ATOM     38  C   UNL     1     112.703 126.754 138.979  0.00  0.00    +0.000 C 
ATOM     39  C   UNL     1     113.093 126.858 139.698  0.00  0.00    +0.000 C 
ATOM     40  C   UNL     1     112.710 126.678 140.406  0.00  0.00    +0.000 C 
ATOM     41  C   UNL     1     111.936 126.394 140.395  0.00  0.00    +0.000 C 
BRANCH  37  42
ATOM     42  C   UNL     1     111.538 126.365 138.249  0.00  0.00    +0.000 C 
BRANCH  42  43
ATOM     43  O   UNL     1     110.744 126.578 138.175  0.00  0.00    +0.000 OA
BRANCH  43  49
ATOM     44  O   UNL     1     110.696 126.029 136.856  0.00  0.00    +0.000 OA
ATOM     45  O   UNL     1     109.308 127.345 137.908  0.00  0.00    +0.000 OA
ATOM     46  O   UNL     1     108.542 127.180 136.456  0.00  0.00    +0.000 OA
ATOM     47  O   UNL     1     109.212 126.247 135.271  0.00  0.00    +0.000 OA
ATOM     48  C   UNL     1     109.644 126.878 137.315  0.00  0.00    +0.000 C 
ATOM     49  C   UNL     1     110.362 126.495 137.448  0.00  0.00    +0.000 C 
ATOM     50  C   UNL     1     109.260 126.796 136.589  0.00  0.00    +0.000 C 
ATOM     51  C   UNL     1     109.595 126.330 135.997  0.00  0.00    +0.000 C 
ATOM     52  C   UNL     1     110.313 125.946 136.131  0.00  0.00    +0.000 C 
ATOM     53  C   UNL     1     110.648 125.479 135.538  0.00  0.00    +0.000 C 
ENDBRANCH  43  49
ENDBRANCH  42  43
ENDBRANCH  37  42
ENDBRANCH  32  41
ENDBRANCH   4  32
TORSDOF 10
ENDMDL
MODEL 2
REMARK VINA RESULT:     -10.9      1.389      2.195
REMARK  Name = 131752174
REMARK  10 active torsions:
REMARK  status: ('A' for Active; 'I' for Inactive)
REMARK    1  A    between atoms: O_3  and  C_23
REMARK    2  A    between atoms: O_3  and  C_28
REMARK    3  A    between atoms: O_6  and  C_26
REMARK    4  A    between atoms: O_6  and  C_30
REMARK    5  A    between atoms: O_14  and  C_44
REMARK    6  A    between atoms: O_14  and  C_45
REMARK    7  A    between atoms: C_18  and  C_28
REMARK    8  A    between atoms: C_37  and  C_39
REMARK    9  A    between atoms: C_45  and  C_46
REMARK   10  A    between atoms: C_47  and  C_48
REMARK                            x       y       z     vdW  Elec       q    Type
REMARK                         _______ _______ _______ _____ _____    ______ ____
ROOT
ATOM      1  O   UNL     1     109.039 125.432 139.950  0.00  0.00    +0.000 OA
ATOM      2  O   UNL     1     110.914 127.560 140.498  0.00  0.00    +0.000 OA
ATOM      3  O   UNL     1     109.619 127.526 141.134  0.00  0.00    +0.000 OA
ATOM      4  C   UNL     1     111.095 125.781 139.149  0.00  0.00    +0.000 A 
ATOM      5  C   UNL     1     110.328 125.417 139.283  0.00  0.00    +0.000 A 
ATOM      6  C   UNL     1     111.297 126.509 139.560  0.00  0.00    +0.000 A 
ATOM      7  C   UNL     1     109.774 125.786 139.825  0.00  0.00    +0.000 A 
ATOM      8  C   UNL     1     110.729 126.862 140.099  0.00  0.00    +0.000 A 
ATOM      9  C   UNL     1     109.967 126.484 140.220  0.00  0.00    +0.000 A 
ATOM     10  C   UNL     1     109.426 126.828 140.739  0.00  0.00    +0.000 A 
ATOM     11  C   UNL     1     108.497 125.776 140.469  0.00  0.00    +0.000 A 
ATOM     12  C   UNL     1     108.691 126.474 140.863  0.00  0.00    +0.000 A 
ENDROOT
BRANCH  11  13
ATOM     13  C   UNL     1     107.763 125.423 140.593  0.00  0.00    +0.000 A 
ATOM     14  C   UNL     1     107.704 124.746 141.063  0.00  0.00    +0.000 A 
ATOM     15  C   UNL     1     107.086 125.745 140.248  0.00  0.00    +0.000 A 
ATOM     16  C   UNL     1     106.968 124.393 141.187  0.00  0.00    +0.000 A 
ATOM     17  C   UNL     1     106.351 125.392 140.372  0.00  0.00    +0.000 A 
ATOM     18  C   UNL     1     106.293 124.716 140.841  0.00  0.00    +0.000 A 
BRANCH  18  19
ATOM     19  O   UNL     1     105.558 124.362 140.966  0.00  0.00    +0.000 OA
BRANCH  19  21
ATOM     20  O   UNL     1     105.579 122.964 140.670  0.00  0.00    +0.000 OA
ATOM     21  C   UNL     1     105.319 123.727 140.495  0.00  0.00    +0.000 C 
BRANCH  21  22
ATOM     22  C   UNL     1     104.823 123.856 139.849  0.00  0.00    +0.000 C 
ATOM     23  C   UNL     1     104.294 123.269 139.612  0.00  0.00    +0.000 C 
BRANCH  23  26
ATOM     24  O   UNL     1     101.671 123.666 138.549  0.00  0.00    +0.000 OA
ATOM     25  O   UNL     1     102.305 123.783 137.029  0.00  0.00    +0.000 OA
ATOM     26  C   UNL     1     103.797 123.397 138.966  0.00  0.00    +0.000 A 
ATOM     27  C   UNL     1     102.982 123.467 139.080  0.00  0.00    +0.000 A 
ATOM     28  C   UNL     1     104.113 123.455 138.208  0.00  0.00    +0.000 A 
ATOM     29  C   UNL     1     102.485 123.596 138.434  0.00  0.00    +0.000 A 
ATOM     30  C   UNL     1     103.616 123.584 137.562  0.00  0.00    +0.000 A 
ATOM     31  C   UNL     1     102.802 123.654 137.675  0.00  0.00    +0.000 A 
ENDBRANCH  23  26
ENDBRANCH  21  22
ENDBRANCH  19  21
ENDBRANCH  18  19
ENDBRANCH  11  13
BRANCH   4  32
ATOM     32  O   UNL     1     111.635 125.435 138.629  0.00  0.00    +0.000 OA
BRANCH  32  41
ATOM     33  O   UNL     1     111.185 126.063 137.427  0.00  0.00    +0.000 OA
ATOM     34  O   UNL     1     110.951 125.274 135.405  0.00  0.00    +0.000 OA
ATOM     35  O   UNL     1     111.509 123.939 136.197  0.00  0.00    +0.000 OA
ATOM     36  O   UNL     1     111.851 124.019 137.810  0.00  0.00    +0.000 OA
ATOM     37  C   UNL     1     111.014 126.022 136.621  0.00  0.00    +0.000 C 
ATOM     38  C   UNL     1     111.122 125.314 136.211  0.00  0.00    +0.000 C 
ATOM     39  C   UNL     1     111.401 124.647 136.608  0.00  0.00    +0.000 C 
ATOM     40  C   UNL     1     111.572 124.687 137.414  0.00  0.00    +0.000 C 
ATOM     41  C   UNL     1     111.464 125.394 137.823  0.00  0.00    +0.000 C 
BRANCH  37  42
ATOM     42  C   UNL     1     110.735 126.690 136.225  0.00  0.00    +0.000 C 
BRANCH  42  43
ATOM     43  O   UNL     1     110.054 127.073 136.489  0.00  0.00    +0.000 OA
BRANCH  43  49
ATOM     44  O   UNL     1     110.333 128.224 135.690  0.00  0.00    +0.000 OA
ATOM     45  O   UNL     1     108.473 127.531 136.598  0.00  0.00    +0.000 OA
ATOM     46  O   UNL     1     107.961 128.912 135.853  0.00  0.00    +0.000 OA
ATOM     47  O   UNL     1     109.030 129.834 134.999  0.00  0.00    +0.000 OA
ATOM     48  C   UNL     1     109.008 127.993 136.171  0.00  0.00    +0.000 C 
ATOM     49  C   UNL     1     109.799 127.764 136.116  0.00  0.00    +0.000 C 
ATOM     50  C   UNL     1     108.751 128.683 135.798  0.00  0.00    +0.000 C 
ATOM     51  C   UNL     1     109.286 129.143 135.372  0.00  0.00    +0.000 C 
ATOM     52  C   UNL     1     110.077 128.914 135.317  0.00  0.00    +0.000 C 
ATOM     53  C   UNL     1     110.611 129.375 134.890  0.00  0.00    +0.000 C 
ENDBRANCH  43  49
ENDBRANCH  42  43
ENDBRANCH  37  42
ENDBRANCH  32  41
ENDBRANCH   4  32
TORSDOF 10
ENDMDL
MODEL 3
REMARK VINA RESULT:     -10.6      1.935      3.457
REMARK  Name = 131752174
REMARK  10 active torsions:
REMARK  status: ('A' for Active; 'I' for Inactive)
REMARK    1  A    between atoms: O_3  and  C_23
REMARK    2  A    between atoms: O_3  and  C_28
REMARK    3  A    between atoms: O_6  and  C_26
REMARK    4  A    between atoms: O_6  and  C_30
REMARK    5  A    between atoms: O_14  and  C_44
REMARK    6  A    between atoms: O_14  and  C_45
REMARK    7  A    between atoms: C_18  and  C_28
REMARK    8  A    between atoms: C_37  and  C_39
REMARK    9  A    between atoms: C_45  and  C_46
REMARK   10  A    between atoms: C_47  and  C_48
REMARK                            x       y       z     vdW  Elec       q    Type
REMARK                         _______ _______ _______ _____ _____    ______ ____
ROOT
ATOM      1  O   UNL     1     111.125 127.842 140.137  0.00  0.00    +0.000 OA
ATOM      2  O   UNL     1     113.908 128.385 140.689  0.00  0.00    +0.000 OA
ATOM      3  O   UNL     1     113.129 127.536 141.555  0.00  0.00    +0.000 OA
ATOM      4  C   UNL     1     112.597 129.095 139.016  0.00  0.00    +0.000 A 
ATOM      5  C   UNL     1     111.862 128.705 139.231  0.00  0.00    +0.000 A 
ATOM      6  C   UNL     1     113.294 128.988 139.509  0.00  0.00    +0.000 A 
ATOM      7  C   UNL     1     111.833 128.214 139.935  0.00  0.00    +0.000 A 
ATOM      8  C   UNL     1     113.245 128.493 140.209  0.00  0.00    +0.000 A 
ATOM      9  C   UNL     1     112.502 128.112 140.408  0.00  0.00    +0.000 A 
ATOM     10  C   UNL     1     112.461 127.638 141.082  0.00  0.00    +0.000 A 
ATOM     11  C   UNL     1     111.084 127.368 140.811  0.00  0.00    +0.000 A 
ATOM     12  C   UNL     1     111.752 127.266 141.284  0.00  0.00    +0.000 A 
ENDROOT
BRANCH  11  13
ATOM     13  C   UNL     1     110.376 126.997 141.012  0.00  0.00    +0.000 A 
ATOM     14  C   UNL     1     109.833 127.380 141.502  0.00  0.00    +0.000 A 
ATOM     15  C   UNL     1     110.210 126.242 140.724  0.00  0.00    +0.000 A 
ATOM     16  C   UNL     1     109.125 127.007 141.703  0.00  0.00    +0.000 A 
ATOM     17  C   UNL     1     109.502 125.870 140.925  0.00  0.00    +0.000 A 
ATOM     18  C   UNL     1     108.959 126.253 141.414  0.00  0.00    +0.000 A 
BRANCH  18  19
ATOM     19  O   UNL     1     108.251 125.881 141.616  0.00  0.00    +0.000 OA
BRANCH  19  21
ATOM     20  O   UNL     1     107.255 126.812 141.185  0.00  0.00    +0.000 OA
ATOM     21  C   UNL     1     107.563 126.046 141.191  0.00  0.00    +0.000 C 
BRANCH  21  22
ATOM     22  C   UNL     1     107.182 125.445 140.773  0.00  0.00    +0.000 C 
ATOM     23  C   UNL     1     106.371 125.325 140.869  0.00  0.00    +0.000 C 
BRANCH  23  26
ATOM     24  O   UNL     1     104.784 124.480 138.649  0.00  0.00    +0.000 OA
ATOM     25  O   UNL     1     104.848 122.924 139.195  0.00  0.00    +0.000 OA
ATOM     26  C   UNL     1     105.990 124.725 140.451  0.00  0.00    +0.000 A 
ATOM     27  C   UNL     1     105.577 124.903 139.758  0.00  0.00    +0.000 A 
ATOM     28  C   UNL     1     106.022 123.948 140.724  0.00  0.00    +0.000 A 
ATOM     29  C   UNL     1     105.196 124.302 139.340  0.00  0.00    +0.000 A 
ATOM     30  C   UNL     1     105.642 123.347 140.305  0.00  0.00    +0.000 A 
ATOM     31  C   UNL     1     105.229 123.524 139.614  0.00  0.00    +0.000 A 
ENDBRANCH  23  26
ENDBRANCH  21  22
ENDBRANCH  19  21
ENDBRANCH  18  19
ENDBRANCH  11  13
BRANCH   4  32
ATOM     32  O   UNL     1     112.635 129.568 138.341  0.00  0.00    +0.000 OA
BRANCH  32  41
ATOM     33  O   UNL     1     112.819 128.511 137.397  0.00  0.00    +0.000 OA
ATOM     34  O   UNL     1     114.034 128.408 135.587  0.00  0.00    +0.000 OA
ATOM     35  O   UNL     1     114.366 129.942 136.098  0.00  0.00    +0.000 OA
ATOM     36  O   UNL     1     113.666 130.522 137.475  0.00  0.00    +0.000 OA
ATOM     37  C   UNL     1     113.168 128.221 136.709  0.00  0.00    +0.000 C 
ATOM     38  C   UNL     1     113.684 128.698 136.275  0.00  0.00    +0.000 C 
ATOM     39  C   UNL     1     113.850 129.465 136.531  0.00  0.00    +0.000 C 
ATOM     40  C   UNL     1     113.500 129.755 137.220  0.00  0.00    +0.000 C 
ATOM     41  C   UNL     1     112.985 129.278 137.652  0.00  0.00    +0.000 C 
BRANCH  37  42
ATOM     42  C   UNL     1     113.003 127.455 136.453  0.00  0.00    +0.000 C 
BRANCH  42  43
ATOM     43  O   UNL     1     112.221 127.210 136.360  0.00  0.00    +0.000 OA
BRANCH  43  49
ATOM     44  O   UNL     1     112.559 125.842 136.595  0.00  0.00    +0.000 OA
ATOM     45  O   UNL     1     110.845 126.736 135.582  0.00  0.00    +0.000 OA
ATOM     46  O   UNL     1     110.496 125.130 135.428  0.00  0.00    +0.000 OA
ATOM     47  O   UNL     1     111.523 123.999 136.052  0.00  0.00    +0.000 OA
ATOM     48  C   UNL     1     111.359 126.170 135.894  0.00  0.00    +0.000 C 
ATOM     49  C   UNL     1     112.047 126.407 136.283  0.00  0.00    +0.000 C 
ATOM     50  C   UNL     1     111.184 125.367 135.817  0.00  0.00    +0.000 C 
ATOM     51  C   UNL     1     111.697 124.802 136.129  0.00  0.00    +0.000 C 
ATOM     52  C   UNL     1     112.385 125.040 136.518  0.00  0.00    +0.000 C 
ATOM     53  C   UNL     1     112.898 124.473 136.830  0.00  0.00    +0.000 C 
ENDBRANCH  43  49
ENDBRANCH  42  43
ENDBRANCH  37  42
ENDBRANCH  32  41
ENDBRANCH   4  32
TORSDOF 10
ENDMDL
MODEL 4
REMARK VINA RESULT:     -10.5      4.638      7.754
REMARK  Name = 131752174
REMARK  10 active torsions:
REMARK  status: ('A' for Active; 'I' for Inactive)
REMARK    1  A    between atoms: O_3  and  C_23
REMARK    2  A    between atoms: O_3  and  C_28
REMARK    3  A    between atoms: O_6  and  C_26
REMARK    4  A    between atoms: O_6  and  C_30
REMARK    5  A    between atoms: O_14  and  C_44
REMARK    6  A    between atoms: O_14  and  C_45
REMARK    7  A    between atoms: C_18  and  C_28
REMARK    8  A    between atoms: C_37  and  C_39
REMARK    9  A    between atoms: C_45  and  C_46
REMARK   10  A    between atoms: C_47  and  C_48
REMARK                            x       y       z     vdW  Elec       q    Type
REMARK                         _______ _______ _______ _____ _____    ______ ____
ROOT
ATOM      1  O   UNL     1     112.526 129.631 137.405  0.00  0.00    +0.000 OA
ATOM      2  O   UNL     1     113.438 129.134 134.709  0.00  0.00    +0.000 OA
ATOM      3  O   UNL     1     114.368 129.205 135.808  0.00  0.00    +0.000 OA
ATOM      4  C   UNL     1     111.368 129.463 135.501  0.00  0.00    +0.000 A 
ATOM      5  C   UNL     1     111.546 129.570 136.335  0.00  0.00    +0.000 A 
ATOM      6  C   UNL     1     112.008 129.315 134.947  0.00  0.00    +0.000 A 
ATOM      7  C   UNL     1     112.361 129.527 136.603  0.00  0.00    +0.000 A 
ATOM      8  C   UNL     1     112.817 129.276 135.233  0.00  0.00    +0.000 A 
ATOM      9  C   UNL     1     112.975 129.385 136.071  0.00  0.00    +0.000 A 
ATOM     10  C   UNL     1     113.754 129.347 136.341  0.00  0.00    +0.000 A 
ATOM     11  C   UNL     1     113.305 129.593 137.675  0.00  0.00    +0.000 A 
ATOM     12  C   UNL     1     113.919 129.451 137.143  0.00  0.00    +0.000 A 
ENDROOT
BRANCH  11  13
ATOM     13  C   UNL     1     113.470 129.696 138.476  0.00  0.00    +0.000 A 
ATOM     14  C   UNL     1     113.803 130.403 138.741  0.00  0.00    +0.000 A 
ATOM     15  C   UNL     1     113.302 129.093 139.013  0.00  0.00    +0.000 A 
ATOM     16  C   UNL     1     113.967 130.506 139.543  0.00  0.00    +0.000 A 
ATOM     17  C   UNL     1     113.466 129.195 139.815  0.00  0.00    +0.000 A 
ATOM     18  C   UNL     1     113.799 129.902 140.079  0.00  0.00    +0.000 A 
BRANCH  18  19
ATOM     19  O   UNL     1     113.964 130.006 140.881  0.00  0.00    +0.000 OA
BRANCH  19  21
ATOM     20  O   UNL     1     113.604 131.280 141.419  0.00  0.00    +0.000 OA
ATOM     21  C   UNL     1     113.466 130.469 141.349  0.00  0.00    +0.000 C 
BRANCH  21  22
ATOM     22  C   UNL     1     112.832 130.122 141.746  0.00  0.00    +0.000 C 
ATOM     23  C   UNL     1     112.511 130.490 142.412  0.00  0.00    +0.000 C 
BRANCH  23  26
ATOM     24  O   UNL     1     109.734 130.456 143.085  0.00  0.00    +0.000 OA
ATOM     25  O   UNL     1     109.973 129.104 144.000  0.00  0.00    +0.000 OA
ATOM     26  C   UNL     1     111.877 130.143 142.809  0.00  0.00    +0.000 A 
ATOM     27  C   UNL     1     111.122 130.473 142.748  0.00  0.00    +0.000 A 
ATOM     28  C   UNL     1     111.996 129.468 143.266  0.00  0.00    +0.000 A 
ATOM     29  C   UNL     1     110.487 130.126 143.146  0.00  0.00    +0.000 A 
ATOM     30  C   UNL     1     111.361 129.121 143.663  0.00  0.00    +0.000 A 
ATOM     31  C   UNL     1     110.607 129.450 143.603  0.00  0.00    +0.000 A 
ENDBRANCH  23  26
ENDBRANCH  21  22
ENDBRANCH  19  21
ENDBRANCH  18  19
ENDBRANCH  11  13
BRANCH   4  32
ATOM     32  O   UNL     1     110.588 129.501 135.234  0.00  0.00    +0.000 OA
BRANCH  32  41
ATOM     33  O   UNL     1     110.286 128.210 135.764  0.00  0.00    +0.000 OA
ATOM     34  O   UNL     1     108.374 127.288 136.279  0.00  0.00    +0.000 OA
ATOM     35  O   UNL     1     107.873 128.766 135.741  0.00  0.00    +0.000 OA
ATOM     36  O   UNL     1     108.980 129.872 135.219  0.00  0.00    +0.000 OA
ATOM     37  C   UNL     1     109.732 127.656 136.025  0.00  0.00    +0.000 C 
ATOM     38  C   UNL     1     108.928 127.842 136.018  0.00  0.00    +0.000 C 
ATOM     39  C   UNL     1     108.678 128.580 135.749  0.00  0.00    +0.000 C 
ATOM     40  C   UNL     1     109.231 129.134 135.488  0.00  0.00    +0.000 C 
ATOM     41  C   UNL     1     110.035 128.948 135.495  0.00  0.00    +0.000 C 
BRANCH  37  42
ATOM     42  C   UNL     1     109.982 126.918 136.295  0.00  0.00    +0.000 C 
BRANCH  42  43
ATOM     43  O   UNL     1     110.538 126.487 135.863  0.00  0.00    +0.000 OA
BRANCH  43  49
ATOM     44  O   UNL     1     111.425 126.119 136.921  0.00  0.00    +0.000 OA
ATOM     45  O   UNL     1     110.628 124.956 135.255  0.00  0.00    +0.000 OA
ATOM     46  O   UNL     1     111.560 123.822 136.010  0.00  0.00    +0.000 OA
ATOM     47  O   UNL     1     112.402 124.221 137.372  0.00  0.00    +0.000 OA
ATOM     48  C   UNL     1     111.049 125.155 135.937  0.00  0.00    +0.000 C 
ATOM     49  C   UNL     1     111.004 125.921 136.241  0.00  0.00    +0.000 C 
ATOM     50  C   UNL     1     111.515 124.588 136.314  0.00  0.00    +0.000 C 
ATOM     51  C   UNL     1     111.936 124.788 136.994  0.00  0.00    +0.000 C 
ATOM     52  C   UNL     1     111.890 125.553 137.298  0.00  0.00    +0.000 C 
ATOM     53  C   UNL     1     112.312 125.752 137.980  0.00  0.00    +0.000 C 
ENDBRANCH  43  49
ENDBRANCH  42  43
ENDBRANCH  37  42
ENDBRANCH  32  41
ENDBRANCH   4  32
TORSDOF 10
ENDMDL
MODEL 5
REMARK VINA RESULT:     -10.5      4.929      6.773
REMARK  Name = 131752174
REMARK  10 active torsions:
REMARK  status: ('A' for Active; 'I' for Inactive)
REMARK    1  A    between atoms: O_3  and  C_23
REMARK    2  A    between atoms: O_3  and  C_28
REMARK    3  A    between atoms: O_6  and  C_26
REMARK    4  A    between atoms: O_6  and  C_30
REMARK    5  A    between atoms: O_14  and  C_44
REMARK    6  A    between atoms: O_14  and  C_45
REMARK    7  A    between atoms: C_18  and  C_28
REMARK    8  A    between atoms: C_37  and  C_39
REMARK    9  A    between atoms: C_45  and  C_46
REMARK   10  A    between atoms: C_47  and  C_48
REMARK                            x       y       z     vdW  Elec       q    Type
REMARK                         _______ _______ _______ _____ _____    ______ ____
ROOT
ATOM      1  O   UNL     1     105.521 128.687 142.212  0.00  0.00    +0.000 OA
ATOM      2  O   UNL     1     106.955 127.166 144.207  0.00  0.00    +0.000 OA
ATOM      3  O   UNL     1     105.657 127.727 144.489  0.00  0.00    +0.000 OA
ATOM      4  C   UNL     1     107.520 127.695 142.104  0.00  0.00    +0.000 A 
ATOM      5  C   UNL     1     106.825 128.144 141.875  0.00  0.00    +0.000 A 
ATOM      6  C   UNL     1     107.567 127.361 142.895  0.00  0.00    +0.000 A 
ATOM      7  C   UNL     1     106.186 128.254 142.438  0.00  0.00    +0.000 A 
ATOM      8  C   UNL     1     106.919 127.482 143.445  0.00  0.00    +0.000 A 
ATOM      9  C   UNL     1     106.232 127.934 143.197  0.00  0.00    +0.000 A 
ATOM     10  C   UNL     1     105.611 128.047 143.730  0.00  0.00    +0.000 A 
ATOM     11  C   UNL     1     104.901 128.800 142.745  0.00  0.00    +0.000 A 
ATOM     12  C   UNL     1     104.946 128.479 143.504  0.00  0.00    +0.000 A 
ENDROOT
BRANCH  11  13
ATOM     13  C   UNL     1     104.236 129.232 142.519  0.00  0.00    +0.000 A 
ATOM     14  C   UNL     1     103.930 129.812 143.020  0.00  0.00    +0.000 A 
ATOM     15  C   UNL     1     103.876 129.084 141.791  0.00  0.00    +0.000 A 
ATOM     16  C   UNL     1     103.265 130.244 142.793  0.00  0.00    +0.000 A 
ATOM     17  C   UNL     1     103.211 129.516 141.564  0.00  0.00    +0.000 A 
ATOM     18  C   UNL     1     102.906 130.096 142.066  0.00  0.00    +0.000 A 
BRANCH  18  19
ATOM     19  O   UNL     1     102.241 130.528 141.840  0.00  0.00    +0.000 OA
BRANCH  19  21
ATOM     20  O   UNL     1     102.642 131.289 140.699  0.00  0.00    +0.000 OA
ATOM     21  C   UNL     1     102.330 131.257 141.462  0.00  0.00    +0.000 C 
BRANCH  21  22
ATOM     22  C   UNL     1     102.108 131.952 141.847  0.00  0.00    +0.000 C 
ATOM     23  C   UNL     1     101.730 132.553 141.427  0.00  0.00    +0.000 C 
BRANCH  23  26
ATOM     24  O   UNL     1     101.996 135.376 141.786  0.00  0.00    +0.000 OA
ATOM     25  O   UNL     1     100.843 135.334 142.966  0.00  0.00    +0.000 OA
ATOM     26  C   UNL     1     101.508 133.248 141.812  0.00  0.00    +0.000 A 
ATOM     27  C   UNL     1     101.863 133.965 141.607  0.00  0.00    +0.000 A 
ATOM     28  C   UNL     1     100.932 133.228 142.401  0.00  0.00    +0.000 A 
ATOM     29  C   UNL     1     101.641 134.660 141.992  0.00  0.00    +0.000 A 
ATOM     30  C   UNL     1     100.710 133.923 142.786  0.00  0.00    +0.000 A 
ATOM     31  C   UNL     1     101.065 134.639 142.581  0.00  0.00    +0.000 A 
ENDBRANCH  23  26
ENDBRANCH  21  22
ENDBRANCH  19  21
ENDBRANCH  18  19
ENDBRANCH  11  13
BRANCH   4  32
ATOM     32  O   UNL     1     108.139 127.584 141.569  0.00  0.00    +0.000 OA
BRANCH  32  41
ATOM     33  O   UNL     1     107.748 126.279 141.138  0.00  0.00    +0.000 OA
ATOM     34  O   UNL     1     108.945 124.539 140.586  0.00  0.00    +0.000 OA
ATOM     35  O   UNL     1     110.129 125.626 140.958  0.00  0.00    +0.000 OA
ATOM     36  O   UNL     1     109.726 127.149 141.449  0.00  0.00    +0.000 OA
ATOM     37  C   UNL     1     107.950 125.518 140.892  0.00  0.00    +0.000 C 
ATOM     38  C   UNL     1     108.744 125.300 140.832  0.00  0.00    +0.000 C 
ATOM     39  C   UNL     1     109.335 125.844 141.018  0.00  0.00    +0.000 C 
ATOM     40  C   UNL     1     109.134 126.606 141.264  0.00  0.00    +0.000 C 
ATOM     41  C   UNL     1     108.341 126.823 141.323  0.00  0.00    +0.000 C 
BRANCH  37  42
ATOM     42  C   UNL     1     107.358 124.974 140.706  0.00  0.00    +0.000 C 
BRANCH  42  43
ATOM     43  O   UNL     1     106.698 125.213 140.274  0.00  0.00    +0.000 OA
BRANCH  43  49
ATOM     44  O   UNL     1     105.851 124.180 140.782  0.00  0.00    +0.000 OA
ATOM     45  O   UNL     1     105.845 125.218 138.861  0.00  0.00    +0.000 OA
ATOM     46  O   UNL     1     104.571 124.188 138.663  0.00  0.00    +0.000 OA
ATOM     47  O   UNL     1     104.151 123.153 139.877  0.00  0.00    +0.000 OA
ATOM     48  C   UNL     1     105.634 124.700 139.469  0.00  0.00    +0.000 C 
ATOM     49  C   UNL     1     106.061 124.698 140.175  0.00  0.00    +0.000 C 
ATOM     50  C   UNL     1     104.998 124.186 139.369  0.00  0.00    +0.000 C 
ATOM     51  C   UNL     1     104.788 123.668 139.976  0.00  0.00    +0.000 C 
ATOM     52  C   UNL     1     105.214 123.666 140.683  0.00  0.00    +0.000 C 
ATOM     53  C   UNL     1     105.004 123.148 141.289  0.00  0.00    +0.000 C 
ENDBRANCH  43  49
ENDBRANCH  42  43
ENDBRANCH  37  42
ENDBRANCH  32  41
ENDBRANCH   4  32
TORSDOF 10
ENDMDL
MODEL 6
REMARK VINA RESULT:     -10.5      3.095      7.073
REMARK  Name = 131752174
REMARK  10 active torsions:
REMARK  status: ('A' for Active; 'I' for Inactive)
REMARK    1  A    between atoms: O_3  and  C_23
REMARK    2  A    between atoms: O_3  and  C_28
REMARK    3  A    between atoms: O_6  and  C_26
REMARK    4  A    between atoms: O_6  and  C_30
REMARK    5  A    between atoms: O_14  and  C_44
REMARK    6  A    between atoms: O_14  and  C_45
REMARK    7  A    between atoms: C_18  and  C_28
REMARK    8  A    between atoms: C_37  and  C_39
REMARK    9  A    between atoms: C_45  and  C_46
REMARK   10  A    between atoms: C_47  and  C_48
REMARK                            x       y       z     vdW  Elec       q    Type
REMARK                         _______ _______ _______ _____ _____    ______ ____
ROOT
ATOM      1  O   UNL     1     111.346 127.140 136.485  0.00  0.00    +0.000 OA
ATOM      2  O   UNL     1     111.233 124.254 136.400  0.00  0.00    +0.000 OA
ATOM      3  O   UNL     1     110.506 125.056 135.447  0.00  0.00    +0.000 OA
ATOM      4  C   UNL     1     112.336 125.621 137.790  0.00  0.00    +0.000 A 
ATOM      5  C   UNL     1     112.098 126.381 137.469  0.00  0.00    +0.000 A 
ATOM      6  C   UNL     1     112.044 124.897 137.430  0.00  0.00    +0.000 A 
ATOM      7  C   UNL     1     111.571 126.407 136.790  0.00  0.00    +0.000 A 
ATOM      8  C   UNL     1     111.518 124.943 136.752  0.00  0.00    +0.000 A 
ATOM      9  C   UNL     1     111.291 125.712 136.444  0.00  0.00    +0.000 A 
ATOM     10  C   UNL     1     110.786 125.751 135.793  0.00  0.00    +0.000 A 
ATOM     11  C   UNL     1     110.840 127.178 135.834  0.00  0.00    +0.000 A 
ATOM     12  C   UNL     1     110.560 126.484 135.488  0.00  0.00    +0.000 A 
ENDROOT
BRANCH  11  13
ATOM     13  C   UNL     1     110.615 127.910 135.529  0.00  0.00    +0.000 A 
ATOM     14  C   UNL     1     109.819 128.129 135.526  0.00  0.00    +0.000 A 
ATOM     15  C   UNL     1     111.185 128.424 135.227  0.00  0.00    +0.000 A 
ATOM     16  C   UNL     1     109.594 128.862 135.221  0.00  0.00    +0.000 A 
ATOM     17  C   UNL     1     110.960 129.157 134.921  0.00  0.00    +0.000 A 
ATOM     18  C   UNL     1     110.165 129.376 134.919  0.00  0.00    +0.000 A 
BRANCH  18  19
ATOM     19  O   UNL     1     109.939 130.108 134.614  0.00  0.00    +0.000 OA
BRANCH  19  21
ATOM     20  O   UNL     1     108.614 130.614 134.785  0.00  0.00    +0.000 OA
ATOM     21  C   UNL     1     109.402 130.580 135.026  0.00  0.00    +0.000 C 
BRANCH  21  22
ATOM     22  C   UNL     1     109.653 131.017 135.679  0.00  0.00    +0.000 C 
ATOM     23  C   UNL     1     109.333 131.764 135.823  0.00  0.00    +0.000 C 
BRANCH  23  26
ATOM     24  O   UNL     1     109.224 132.308 138.626  0.00  0.00    +0.000 OA
ATOM     25  O   UNL     1     110.335 133.513 138.436  0.00  0.00    +0.000 OA
ATOM     26  C   UNL     1     109.584 132.202 136.476  0.00  0.00    +0.000 A 
ATOM     27  C   UNL     1     109.278 132.036 137.225  0.00  0.00    +0.000 A 
ATOM     28  C   UNL     1     110.139 132.803 136.381  0.00  0.00    +0.000 A 
ATOM     29  C   UNL     1     109.529 132.474 137.878  0.00  0.00    +0.000 A 
ATOM     30  C   UNL     1     110.390 133.241 137.034  0.00  0.00    +0.000 A 
ATOM     31  C   UNL     1     110.085 133.076 137.783  0.00  0.00    +0.000 A 
ENDBRANCH  23  26
ENDBRANCH  21  22
ENDBRANCH  19  21
ENDBRANCH  18  19
ENDBRANCH  11  13
BRANCH   4  32
ATOM     32  O   UNL     1     112.842 125.586 138.442  0.00  0.00    +0.000 OA
BRANCH  32  41
ATOM     33  O   UNL     1     111.971 126.131 139.435  0.00  0.00    +0.000 OA
ATOM     34  O   UNL     1     112.348 127.579 141.025  0.00  0.00    +0.000 OA
ATOM     35  O   UNL     1     113.841 127.484 140.330  0.00  0.00    +0.000 OA
ATOM     36  O   UNL     1     114.089 126.487 139.039  0.00  0.00    +0.000 OA
ATOM     37  C   UNL     1     111.847 126.630 140.080  0.00  0.00    +0.000 C 
ATOM     38  C   UNL     1     112.471 127.081 140.379  0.00  0.00    +0.000 C 
ATOM     39  C   UNL     1     113.218 127.033 140.031  0.00  0.00    +0.000 C 
ATOM     40  C   UNL     1     113.341 126.534 139.386  0.00  0.00    +0.000 C 
ATOM     41  C   UNL     1     112.718 126.084 139.088  0.00  0.00    +0.000 C 
BRANCH  37  42
ATOM     42  C   UNL     1     111.101 126.678 140.428  0.00  0.00    +0.000 C 
BRANCH  42  43
ATOM     43  O   UNL     1     110.560 126.063 140.331  0.00  0.00    +0.000 OA
BRANCH  43  49
ATOM     44  O   UNL     1     109.515 126.867 140.882  0.00  0.00    +0.000 OA
ATOM     45  O   UNL     1     109.605 124.725 140.474  0.00  0.00    +0.000 OA
ATOM     46  O   UNL     1     108.084 124.860 141.097  0.00  0.00    +0.000 OA
ATOM     47  O   UNL     1     107.516 126.333 141.577  0.00  0.00    +0.000 OA
ATOM     48  C   UNL     1     109.321 125.462 140.714  0.00  0.00    +0.000 C 
ATOM     49  C   UNL     1     109.799 126.131 140.642  0.00  0.00    +0.000 C 
ATOM     50  C   UNL     1     108.561 125.529 141.026  0.00  0.00    +0.000 C 
ATOM     51  C   UNL     1     108.277 126.266 141.265  0.00  0.00    +0.000 C 
ATOM     52  C   UNL     1     108.755 126.935 141.194  0.00  0.00    +0.000 C 
ATOM     53  C   UNL     1     108.470 127.671 141.434  0.00  0.00    +0.000 C 
ENDBRANCH  43  49
ENDBRANCH  42  43
ENDBRANCH  37  42
ENDBRANCH  32  41
ENDBRANCH   4  32
TORSDOF 10
ENDMDL
MODEL 7
REMARK VINA RESULT:     -10.5      3.115      4.250
REMARK  Name = 131752174
REMARK  10 active torsions:
REMARK  status: ('A' for Active; 'I' for Inactive)
REMARK    1  A    between atoms: O_3  and  C_23
REMARK    2  A    between atoms: O_3  and  C_28
REMARK    3  A    between atoms: O_6  and  C_26
REMARK    4  A    between atoms: O_6  and  C_30
REMARK    5  A    between atoms: O_14  and  C_44
REMARK    6  A    between atoms: O_14  and  C_45
REMARK    7  A    between atoms: C_18  and  C_28
REMARK    8  A    between atoms: C_37  and  C_39
REMARK    9  A    between atoms: C_45  and  C_46
REMARK   10  A    between atoms: C_47  and  C_48
REMARK                            x       y       z     vdW  Elec       q    Type
REMARK                         _______ _______ _______ _____ _____    ______ ____
ROOT
ATOM      1  O   UNL     1     108.898 126.795 140.381  0.00  0.00    +0.000 OA
ATOM      2  O   UNL     1     111.752 126.350 140.407  0.00  0.00    +0.000 OA
ATOM      3  O   UNL     1     111.075 126.906 141.552  0.00  0.00    +0.000 OA
ATOM      4  C   UNL     1     110.240 125.963 138.800  0.00  0.00    +0.000 A 
ATOM      5  C   UNL     1     109.529 126.233 139.200  0.00  0.00    +0.000 A 
ATOM      6  C   UNL     1     110.996 126.002 139.207  0.00  0.00    +0.000 A 
ATOM      7  C   UNL     1     109.584 126.537 140.001  0.00  0.00    +0.000 A 
ATOM      8  C   UNL     1     111.031 126.309 140.008  0.00  0.00    +0.000 A 
ATOM      9  C   UNL     1     110.310 126.574 140.392  0.00  0.00    +0.000 A 
ATOM     10  C   UNL     1     110.349 126.869 141.162  0.00  0.00    +0.000 A 
ATOM     11  C   UNL     1     108.937 127.090 141.151  0.00  0.00    +0.000 A 
ATOM     12  C   UNL     1     109.663 127.126 141.541  0.00  0.00    +0.000 A 
ENDROOT
BRANCH  11  13
ATOM     13  C   UNL     1     108.252 127.347 141.529  0.00  0.00    +0.000 A 
ATOM     14  C   UNL     1     107.790 126.812 141.957  0.00  0.00    +0.000 A 
ATOM     15  C   UNL     1     108.027 128.139 141.482  0.00  0.00    +0.000 A 
ATOM     16  C   UNL     1     107.104 127.071 142.335  0.00  0.00    +0.000 A 
ATOM     17  C   UNL     1     107.341 128.398 141.861  0.00  0.00    +0.000 A 
ATOM     18  C   UNL     1     106.880 127.863 142.288  0.00  0.00    +0.000 A 
BRANCH  18  19
ATOM     19  O   UNL     1     106.194 128.120 142.667  0.00  0.00    +0.000 OA
BRANCH  19  21
ATOM     20  O   UNL     1     105.183 127.171 142.320  0.00  0.00    +0.000 OA
ATOM     21  C   UNL     1     105.454 127.951 142.343  0.00  0.00    +0.000 C 
BRANCH  21  22
ATOM     22  C   UNL     1     104.985 128.559 142.042  0.00  0.00    +0.000 C 
ATOM     23  C   UNL     1     104.168 128.545 142.155  0.00  0.00    +0.000 C 
BRANCH  23  26
ATOM     24  O   UNL     1     102.723 129.711 139.983  0.00  0.00    +0.000 OA
ATOM     25  O   UNL     1     102.294 130.978 140.950  0.00  0.00    +0.000 OA
ATOM     26  C   UNL     1     103.700 129.153 141.854  0.00  0.00    +0.000 A 
ATOM     27  C   UNL     1     103.445 129.128 141.068  0.00  0.00    +0.000 A 
ATOM     28  C   UNL     1     103.485 129.786 142.336  0.00  0.00    +0.000 A 
ATOM     29  C   UNL     1     102.977 129.737 140.767  0.00  0.00    +0.000 A 
ATOM     30  C   UNL     1     103.017 130.395 142.035  0.00  0.00    +0.000 A 
ATOM     31  C   UNL     1     102.762 130.370 141.251  0.00  0.00    +0.000 A 
ENDBRANCH  23  26
ENDBRANCH  21  22
ENDBRANCH  19  21
ENDBRANCH  18  19
ENDBRANCH  11  13
BRANCH   4  32
ATOM     32  O   UNL     1     110.197 125.669 138.030  0.00  0.00    +0.000 OA
BRANCH  32  41
ATOM     33  O   UNL     1     110.259 126.903 137.313  0.00  0.00    +0.000 OA
ATOM     34  O   UNL     1     111.365 127.456 135.513  0.00  0.00    +0.000 OA
ATOM     35  O   UNL     1     111.824 125.881 135.690  0.00  0.00    +0.000 OA
ATOM     36  O   UNL     1     111.241 124.988 136.948  0.00  0.00    +0.000 OA
ATOM     37  C   UNL     1     110.551 127.350 136.684  0.00  0.00    +0.000 C 
ATOM     38  C   UNL     1     111.073 127.009 136.142  0.00  0.00    +0.000 C 
ATOM     39  C   UNL     1     111.302 126.222 136.231  0.00  0.00    +0.000 C 
ATOM     40  C   UNL     1     111.010 125.775 136.860  0.00  0.00    +0.000 C 
ATOM     41  C   UNL     1     110.489 126.116 137.400  0.00  0.00    +0.000 C 
BRANCH  37  42
ATOM     42  C   UNL     1     110.322 128.137 136.595  0.00  0.00    +0.000 C 
BRANCH  42  43
ATOM     43  O   UNL     1     109.522 128.330 136.536  0.00  0.00    +0.000 OA
BRANCH  43  49
ATOM     44  O   UNL     1     109.754 129.686 136.922  0.00  0.00    +0.000 OA
ATOM     45  O   UNL     1     108.116 128.781 135.798  0.00  0.00    +0.000 OA
ATOM     46  O   UNL     1     107.646 130.363 135.815  0.00  0.00    +0.000 OA
ATOM     47  O   UNL     1     108.581 131.493 136.570  0.00  0.00    +0.000 OA
ATOM     48  C   UNL     1     108.584 129.347 136.176  0.00  0.00    +0.000 C 
ATOM     49  C   UNL     1     109.287 129.121 136.545  0.00  0.00    +0.000 C 
ATOM     50  C   UNL     1     108.349 130.137 136.184  0.00  0.00    +0.000 C 
ATOM     51  C   UNL     1     108.816 130.702 136.562  0.00  0.00    +0.000 C 
ATOM     52  C   UNL     1     109.519 130.477 136.931  0.00  0.00    +0.000 C 
ATOM     53  C   UNL     1     109.986 131.042 137.308  0.00  0.00    +0.000 C 
ENDBRANCH  43  49
ENDBRANCH  42  43
ENDBRANCH  37  42
ENDBRANCH  32  41
ENDBRANCH   4  32
TORSDOF 10
ENDMDL
MODEL 8
REMARK VINA RESULT:     -10.4      4.841      7.873
REMARK  Name = 131752174
REMARK  10 active torsions:
REMARK  status: ('A' for Active; 'I' for Inactive)
REMARK    1  A    between atoms: O_3  and  C_23
REMARK    2  A    between atoms: O_3  and  C_28
REMARK    3  A    between atoms: O_6  and  C_26
REMARK    4  A    between atoms: O_6  and  C_30
REMARK    5  A    between atoms: O_14  and  C_44
REMARK    6  A    between atoms: O_14  and  C_45
REMARK    7  A    between atoms: C_18  and  C_28
REMARK    8  A    between atoms: C_37  and  C_39
REMARK    9  A    between atoms: C_45  and  C_46
REMARK   10  A    between atoms: C_47  and  C_48
REMARK                            x       y       z     vdW  Elec       q    Type
REMARK                         _______ _______ _______ _____ _____    ______ ____
ROOT
ATOM      1  O   UNL     1     112.517 128.530 138.807  0.00  0.00    +0.000 OA
ATOM      2  O   UNL     1     113.826 129.111 136.297  0.00  0.00    +0.000 OA
ATOM      3  O   UNL     1     113.526 130.160 137.241  0.00  0.00    +0.000 OA
ATOM      4  C   UNL     1     113.117 127.162 137.145  0.00  0.00    +0.000 A 
ATOM      5  C   UNL     1     112.795 127.436 137.893  0.00  0.00    +0.000 A 
ATOM      6  C   UNL     1     113.468 127.728 136.601  0.00  0.00    +0.000 A 
ATOM      7  C   UNL     1     112.828 128.273 138.087  0.00  0.00    +0.000 A 
ATOM      8  C   UNL     1     113.491 128.561 136.813  0.00  0.00    +0.000 A 
ATOM      9  C   UNL     1     113.164 128.816 137.565  0.00  0.00    +0.000 A 
ATOM     10  C   UNL     1     113.190 129.617 137.764  0.00  0.00    +0.000 A 
ATOM     11  C   UNL     1     112.543 129.331 139.005  0.00  0.00    +0.000 A 
ATOM     12  C   UNL     1     112.879 129.874 138.483  0.00  0.00    +0.000 A 
ENDROOT
BRANCH  11  13
ATOM     13  C   UNL     1     112.232 129.588 139.724  0.00  0.00    +0.000 A 
ATOM     14  C   UNL     1     112.715 129.625 140.393  0.00  0.00    +0.000 A 
ATOM     15  C   UNL     1     111.439 129.809 139.776  0.00  0.00    +0.000 A 
ATOM     16  C   UNL     1     112.403 129.882 141.112  0.00  0.00    +0.000 A 
ATOM     17  C   UNL     1     111.128 130.067 140.495  0.00  0.00    +0.000 A 
ATOM     18  C   UNL     1     111.610 130.103 141.163  0.00  0.00    +0.000 A 
BRANCH  18  19
ATOM     19  O   UNL     1     111.300 130.361 141.882  0.00  0.00    +0.000 OA
BRANCH  19  21
ATOM     20  O   UNL     1     111.141 131.761 141.649  0.00  0.00    +0.000 OA
ATOM     21  C   UNL     1     111.409 131.142 142.124  0.00  0.00    +0.000 C 
BRANCH  21  22
ATOM     22  C   UNL     1     111.786 131.305 142.840  0.00  0.00    +0.000 C 
ATOM     23  C   UNL     1     111.493 131.896 143.335  0.00  0.00    +0.000 C 
BRANCH  23  26
ATOM     24  O   UNL     1     113.461 133.337 144.824  0.00  0.00    +0.000 OA
ATOM     25  O   UNL     1     113.000 132.547 146.198  0.00  0.00    +0.000 OA
ATOM     26  C   UNL     1     111.870 132.059 144.051  0.00  0.00    +0.000 A 
ATOM     27  C   UNL     1     112.478 132.617 144.079  0.00  0.00    +0.000 A 
ATOM     28  C   UNL     1     111.640 131.664 144.737  0.00  0.00    +0.000 A 
ATOM     29  C   UNL     1     112.854 132.780 144.795  0.00  0.00    +0.000 A 
ATOM     30  C   UNL     1     112.016 131.827 145.452  0.00  0.00    +0.000 A 
ATOM     31  C   UNL     1     112.624 132.384 145.482  0.00  0.00    +0.000 A 
ENDBRANCH  23  26
ENDBRANCH  21  22
ENDBRANCH  19  21
ENDBRANCH  18  19
ENDBRANCH  11  13
BRANCH   4  32
ATOM     32  O   UNL     1     113.090 126.361 136.950  0.00  0.00    +0.000 OA
BRANCH  32  41
ATOM     33  O   UNL     1     111.854 126.557 136.260  0.00  0.00    +0.000 OA
ATOM     34  O   UNL     1     110.431 125.118 135.441  0.00  0.00    +0.000 OA
ATOM     35  O   UNL     1     111.574 124.105 136.067  0.00  0.00    +0.000 OA
ATOM     36  O   UNL     1     112.903 124.726 136.821  0.00  0.00    +0.000 OA
ATOM     37  C   UNL     1     111.190 126.246 135.883  0.00  0.00    +0.000 C 
ATOM     38  C   UNL     1     111.096 125.429 135.819  0.00  0.00    +0.000 C 
ATOM     39  C   UNL     1     111.667 124.923 136.131  0.00  0.00    +0.000 C 
ATOM     40  C   UNL     1     112.332 125.233 136.508  0.00  0.00    +0.000 C 
ATOM     41  C   UNL     1     112.425 126.050 136.573  0.00  0.00    +0.000 C 
BRANCH  37  42
ATOM     42  C   UNL     1     110.618 126.752 135.570  0.00  0.00    +0.000 C 
BRANCH  42  43
ATOM     43  O   UNL     1     110.139 127.197 136.074  0.00  0.00    +0.000 OA
BRANCH  43  49
ATOM     44  O   UNL     1     110.292 128.442 135.390  0.00  0.00    +0.000 OA
ATOM     45  O   UNL     1     108.569 127.574 136.411  0.00  0.00    +0.000 OA
ATOM     46  O   UNL     1     107.936 129.008 135.895  0.00  0.00    +0.000 OA
ATOM     47  O   UNL     1     108.874 130.065 135.043  0.00  0.00    +0.000 OA
ATOM     48  C   UNL     1     109.038 128.103 135.984  0.00  0.00    +0.000 C 
ATOM     49  C   UNL     1     109.823 127.914 135.816  0.00  0.00    +0.000 C 
ATOM     50  C   UNL     1     108.721 128.819 135.727  0.00  0.00    +0.000 C 
ATOM     51  C   UNL     1     109.191 129.347 135.301  0.00  0.00    +0.000 C 
ATOM     52  C   UNL     1     109.976 129.159 135.133  0.00  0.00    +0.000 C 
ATOM     53  C   UNL     1     110.445 129.687 134.707  0.00  0.00    +0.000 C 
ENDBRANCH  43  49
ENDBRANCH  42  43
ENDBRANCH  37  42
ENDBRANCH  32  41
ENDBRANCH   4  32
TORSDOF 10
ENDMDL
MODEL 9
REMARK VINA RESULT:     -10.4      3.533      4.430
REMARK  Name = 131752174
REMARK  10 active torsions:
REMARK  status: ('A' for Active; 'I' for Inactive)
REMARK    1  A    between atoms: O_3  and  C_23
REMARK    2  A    between atoms: O_3  and  C_28
REMARK    3  A    between atoms: O_6  and  C_26
REMARK    4  A    between atoms: O_6  and  C_30
REMARK    5  A    between atoms: O_14  and  C_44
REMARK    6  A    between atoms: O_14  and  C_45
REMARK    7  A    between atoms: C_18  and  C_28
REMARK    8  A    between atoms: C_37  and  C_39
REMARK    9  A    between atoms: C_45  and  C_46
REMARK   10  A    between atoms: C_47  and  C_48
REMARK                            x       y       z     vdW  Elec       q    Type
REMARK                         _______ _______ _______ _____ _____    ______ ____
ROOT
ATOM      1  O   UNL     1     109.912 128.118 141.724  0.00  0.00    +0.000 OA
ATOM      2  O   UNL     1     111.885 126.240 140.763  0.00  0.00    +0.000 OA
ATOM      3  O   UNL     1     110.502 125.857 140.912  0.00  0.00    +0.000 OA
ATOM      4  C   UNL     1     112.104 128.382 141.382  0.00  0.00    +0.000 A 
ATOM      5  C   UNL     1     111.290 128.557 141.593  0.00  0.00    +0.000 A 
ATOM      6  C   UNL     1     112.309 127.596 141.100  0.00  0.00    +0.000 A 
ATOM      7  C   UNL     1     110.692 127.945 141.520  0.00  0.00    +0.000 A 
ATOM      8  C   UNL     1     111.698 126.996 141.033  0.00  0.00    +0.000 A 
ATOM      9  C   UNL     1     110.889 127.191 141.249  0.00  0.00    +0.000 A 
ATOM     10  C   UNL     1     110.305 126.611 141.183  0.00  0.00    +0.000 A 
ATOM     11  C   UNL     1     109.328 127.539 141.658  0.00  0.00    +0.000 A 
ATOM     12  C   UNL     1     109.525 126.785 141.387  0.00  0.00    +0.000 A 
ENDROOT
BRANCH  11  13
ATOM     13  C   UNL     1     108.549 127.712 141.862  0.00  0.00    +0.000 A 
ATOM     14  C   UNL     1     108.169 128.365 141.528  0.00  0.00    +0.000 A 
ATOM     15  C   UNL     1     108.147 127.234 142.402  0.00  0.00    +0.000 A 
ATOM     16  C   UNL     1     107.389 128.538 141.733  0.00  0.00    +0.000 A 
ATOM     17  C   UNL     1     107.367 127.407 142.607  0.00  0.00    +0.000 A 
ATOM     18  C   UNL     1     106.988 128.059 142.272  0.00  0.00    +0.000 A 
BRANCH  18  19
ATOM     19  O   UNL     1     106.208 128.233 142.476  0.00  0.00    +0.000 OA
BRANCH  19  21
ATOM     20  O   UNL     1     105.535 127.325 141.602  0.00  0.00    +0.000 OA
ATOM     21  C   UNL     1     105.596 128.072 141.946  0.00  0.00    +0.000 C 
BRANCH  21  22
ATOM     22  C   UNL     1     105.046 128.658 141.760  0.00  0.00    +0.000 C 
ATOM     23  C   UNL     1     104.241 128.478 141.746  0.00  0.00    +0.000 C 
BRANCH  23  26
ATOM     24  O   UNL     1     102.459 129.693 139.871  0.00  0.00    +0.000 OA
ATOM     25  O   UNL     1     102.039 130.820 141.001  0.00  0.00    +0.000 OA
ATOM     26  C   UNL     1     103.690 129.063 141.560  0.00  0.00    +0.000 A 
ATOM     27  C   UNL     1     103.350 129.086 140.808  0.00  0.00    +0.000 A 
ATOM     28  C   UNL     1     103.480 129.626 142.124  0.00  0.00    +0.000 A 
ATOM     29  C   UNL     1     102.799 129.671 140.622  0.00  0.00    +0.000 A 
ATOM     30  C   UNL     1     102.930 130.212 141.938  0.00  0.00    +0.000 A 
ATOM     31  C   UNL     1     102.589 130.234 141.187  0.00  0.00    +0.000 A 
ENDBRANCH  23  26
ENDBRANCH  21  22
ENDBRANCH  19  21
ENDBRANCH  18  19
ENDBRANCH  11  13
BRANCH   4  32
ATOM     32  O   UNL     1     112.685 128.964 141.449  0.00  0.00    +0.000 OA
BRANCH  32  41
ATOM     33  O   UNL     1     112.297 129.692 140.283  0.00  0.00    +0.000 OA
ATOM     34  O   UNL     1     113.489 130.804 138.831  0.00  0.00    +0.000 OA
ATOM     35  O   UNL     1     114.666 130.268 139.855  0.00  0.00    +0.000 OA
ATOM     36  O   UNL     1     114.265 129.348 141.164  0.00  0.00    +0.000 OA
ATOM     37  C   UNL     1     112.498 130.152 139.628  0.00  0.00    +0.000 C 
ATOM     38  C   UNL     1     113.288 130.344 139.485  0.00  0.00    +0.000 C 
ATOM     39  C   UNL     1     113.876 130.076 139.998  0.00  0.00    +0.000 C 
ATOM     40  C   UNL     1     113.675 129.616 140.652  0.00  0.00    +0.000 C 
ATOM     41  C   UNL     1     112.886 129.424 140.795  0.00  0.00    +0.000 C 
BRANCH  37  42
ATOM     42  C   UNL     1     111.910 130.420 139.116  0.00  0.00    +0.000 C 
BRANCH  42  43
ATOM     43  O   UNL     1     111.264 130.840 139.412  0.00  0.00    +0.000 OA
BRANCH  43  49
ATOM     44  O   UNL     1     110.287 130.177 138.608  0.00  0.00    +0.000 OA
ATOM     45  O   UNL     1     110.382 132.233 139.335  0.00  0.00    +0.000 OA
ATOM     46  O   UNL     1     108.963 132.265 138.493  0.00  0.00    +0.000 OA
ATOM     47  O   UNL     1     108.427 130.905 137.728  0.00  0.00    +0.000 OA
ATOM     48  C   UNL     1     110.114 131.552 138.952  0.00  0.00    +0.000 C 
ATOM     49  C   UNL     1     110.555 130.856 138.991  0.00  0.00    +0.000 C 
ATOM     50  C   UNL     1     109.404 131.569 138.532  0.00  0.00    +0.000 C 
ATOM     51  C   UNL     1     109.137 130.889 138.149  0.00  0.00    +0.000 C 
ATOM     52  C   UNL     1     109.578 130.193 138.188  0.00  0.00    +0.000 C 
ATOM     53  C   UNL     1     109.309 129.513 137.805  0.00  0.00    +0.000 C 
ENDBRANCH  43  49
ENDBRANCH  42  43
ENDBRANCH  37  42
ENDBRANCH  32  41
ENDBRANCH   4  32
TORSDOF 10
ENDMDL
MODEL 10
REMARK VINA RESULT:     -10.4      5.833     10.418
REMARK  Name = 131752174
REMARK  10 active torsions:
REMARK  status: ('A' for Active; 'I' for Inactive)
REMARK    1  A    between atoms: O_3  and  C_23
REMARK    2  A    between atoms: O_3  and  C_28
REMARK    3  A    between atoms: O_6  and  C_26
REMARK    4  A    between atoms: O_6  and  C_30
REMARK    5  A    between atoms: O_14  and  C_44
REMARK    6  A    between atoms: O_14  and  C_45
REMARK    7  A    between atoms: C_18  and  C_28
REMARK    8  A    between atoms: C_37  and  C_39
REMARK    9  A    between atoms: C_45  and  C_46
REMARK   10  A    between atoms: C_47  and  C_48
REMARK                            x       y       z     vdW  Elec       q    Type
REMARK                         _______ _______ _______ _____ _____    ______ ____
ROOT
ATOM      1  O   UNL     1     107.435 129.102 144.735  0.00  0.00    +0.000 OA
ATOM      2  O   UNL     1     105.047 128.933 146.353  0.00  0.00    +0.000 OA
ATOM      3  O   UNL     1     106.105 129.857 146.681  0.00  0.00    +0.000 OA
ATOM      4  C   UNL     1     105.632 127.801 144.511  0.00  0.00    +0.000 A 
ATOM      5  C   UNL     1     106.400 128.155 144.359  0.00  0.00    +0.000 A 
ATOM      6  C   UNL     1     105.171 128.063 145.187  0.00  0.00    +0.000 A 
ATOM      7  C   UNL     1     106.697 128.766 144.885  0.00  0.00    +0.000 A 
ATOM      8  C   UNL     1     105.483 128.675 145.702  0.00  0.00    +0.000 A 
ATOM      9  C   UNL     1     106.253 129.017 145.534  0.00  0.00    +0.000 A 
ATOM     10  C   UNL     1     106.549 129.605 146.032  0.00  0.00    +0.000 A 
ATOM     11  C   UNL     1     107.730 129.690 145.233  0.00  0.00    +0.000 A 
ATOM     12  C   UNL     1     107.287 129.942 145.882  0.00  0.00    +0.000 A 
ENDROOT
BRANCH  11  13
ATOM     13  C   UNL     1     108.468 130.026 145.083  0.00  0.00    +0.000 A 
ATOM     14  C   UNL     1     109.155 129.647 145.339  0.00  0.00    +0.000 A 
ATOM     15  C   UNL     1     108.520 130.742 144.676  0.00  0.00    +0.000 A 
ATOM     16  C   UNL     1     109.892 129.984 145.188  0.00  0.00    +0.000 A 
ATOM     17  C   UNL     1     109.257 131.079 144.525  0.00  0.00    +0.000 A 
ATOM     18  C   UNL     1     109.944 130.700 144.781  0.00  0.00    +0.000 A 
BRANCH  18  19
ATOM     19  O   UNL     1     110.682 131.036 144.631  0.00  0.00    +0.000 OA
BRANCH  19  21
ATOM     20  O   UNL     1     110.734 132.453 144.454  0.00  0.00    +0.000 OA
ATOM     21  C   UNL     1     110.861 131.787 144.923  0.00  0.00    +0.000 C 
BRANCH  21  22
ATOM     22  C   UNL     1     111.168 131.871 145.685  0.00  0.00    +0.000 C 
ATOM     23  C   UNL     1     111.730 132.454 145.841  0.00  0.00    +0.000 C 
BRANCH  23  26
ATOM     24  O   UNL     1     111.549 133.550 148.474  0.00  0.00    +0.000 OA
ATOM     25  O   UNL     1     112.956 132.792 148.886  0.00  0.00    +0.000 OA
ATOM     26  C   UNL     1     112.037 132.538 146.602  0.00  0.00    +0.000 A 
ATOM     27  C   UNL     1     111.639 133.002 147.158  0.00  0.00    +0.000 A 
ATOM     28  C   UNL     1     112.739 132.160 146.808  0.00  0.00    +0.000 A 
ATOM     29  C   UNL     1     111.946 133.086 147.919  0.00  0.00    +0.000 A 
ATOM     30  C   UNL     1     113.046 132.244 147.569  0.00  0.00    +0.000 A 
ATOM     31  C   UNL     1     112.649 132.708 148.125  0.00  0.00    +0.000 A 
ENDBRANCH  23  26
ENDBRANCH  21  22
ENDBRANCH  19  21
ENDBRANCH  18  19
ENDBRANCH  11  13
BRANCH   4  32
ATOM     32  O   UNL     1     105.340 127.213 144.011  0.00  0.00    +0.000 OA
BRANCH  32  41
ATOM     33  O   UNL     1     105.709 126.122 144.857  0.00  0.00    +0.000 OA
ATOM     34  O   UNL     1     106.340 124.089 144.373  0.00  0.00    +0.000 OA
ATOM     35  O   UNL     1     106.101 124.709 142.862  0.00  0.00    +0.000 OA
ATOM     36  O   UNL     1     105.601 126.271 142.681  0.00  0.00    +0.000 OA
ATOM     37  C   UNL     1     105.959 125.341 144.947  0.00  0.00    +0.000 C 
ATOM     38  C   UNL     1     106.090 124.870 144.282  0.00  0.00    +0.000 C 
ATOM     39  C   UNL     1     105.970 125.181 143.527  0.00  0.00    +0.000 C 
ATOM     40  C   UNL     1     105.720 125.961 143.437  0.00  0.00    +0.000 C 
ATOM     41  C   UNL     1     105.590 126.432 144.101  0.00  0.00    +0.000 C 
BRANCH  37  42
ATOM     42  C   UNL     1     106.079 125.031 145.702  0.00  0.00    +0.000 C 
BRANCH  42  43
ATOM     43  O   UNL     1     106.668 125.343 146.188  0.00  0.00    +0.000 OA
BRANCH  43  49
ATOM     44  O   UNL     1     105.987 124.971 147.389  0.00  0.00    +0.000 OA
ATOM     45  O   UNL     1     108.108 125.303 146.993  0.00  0.00    +0.000 OA
ATOM     46  O   UNL     1     108.148 124.911 148.595  0.00  0.00    +0.000 OA
ATOM     47  O   UNL     1     106.747 124.559 149.393  0.00  0.00    +0.000 OA
ATOM     48  C   UNL     1     107.407 125.127 147.392  0.00  0.00    +0.000 C 
ATOM     49  C   UNL     1     106.687 125.147 146.990  0.00  0.00    +0.000 C 
ATOM     50  C   UNL     1     107.427 124.931 148.193  0.00  0.00    +0.000 C 
ATOM     51  C   UNL     1     106.727 124.755 148.591  0.00  0.00    +0.000 C 
ATOM     52  C   UNL     1     106.007 124.776 148.189  0.00  0.00    +0.000 C 
ATOM     53  C   UNL     1     105.307 124.600 148.589  0.00  0.00    +0.000 C 
ENDBRANCH  43  49
ENDBRANCH  42  43
ENDBRANCH  37  42
ENDBRANCH  32  41
ENDBRANCH   4  32
TORSDOF 10
ENDMDL
