MODEL 1
REMARK VINA RESULT:      -8.8      0.000      0.000
REMARK  Name = 14704648
REMARK  4 active torsions:
REMARK  status: ('A' for Active; 'I' for Inactive)
REMARK    1  A    between atoms: O_5  and  C_13
REMARK    2  A    between atoms: O_7  and  C_17
REMARK    3  A    between atoms: O_8  and  C_24
REMARK    4  A    between atoms: C_12  and  C_14
REMARK                            x       y       z     vdW  Elec       q    Type
REMARK                         _______ _______ _______ _____ _____    ______ ____
ROOT
ATOM      1  O   UNL     1     104.404 124.103 146.735  0.00  0.00    +0.000 OA
ATOM      2  O   UNL     1     101.172 123.528 146.270  0.00  0.00    +0.000 OA
ATOM      3  O   UNL     1     102.028 122.747 145.622  0.00  0.00    +0.000 OA
ATOM      4  O   UNL     1     102.764 125.588 147.968  0.00  0.00    +0.000 OA
ATOM      5  C   UNL     1     103.024 124.481 147.052  0.00  0.00    +0.000 A 
ATOM      6  C   UNL     1     103.556 123.995 146.649  0.00  0.00    +0.000 A 
ATOM      7  C   UNL     1     104.702 124.725 147.248  0.00  0.00    +0.000 A 
ATOM      8  C   UNL     1     102.211 124.367 146.960  0.00  0.00    +0.000 A 
ATOM      9  C   UNL     1     101.932 123.769 146.467  0.00  0.00    +0.000 A 
ATOM     10  C   UNL     1     102.464 123.283 146.064  0.00  0.00    +0.000 A 
ATOM     11  C   UNL     1     104.148 125.230 147.668  0.00  0.00    +0.000 A 
ATOM     12  C   UNL     1     103.303 125.107 147.569  0.00  0.00    +0.000 A 
ATOM     13  C   UNL     1     103.275 123.397 146.155  0.00  0.00    +0.000 A 
ATOM     14  C   UNL     1     101.233 122.898 145.749  0.00  0.00    +0.000 C 
ENDROOT
BRANCH   7  17
ATOM     15  O   UNL     1     107.230 124.469 148.704  0.00  0.00    +0.000 OA
ATOM     16  O   UNL     1     107.923 125.087 147.755  0.00  0.00    +0.000 OA
ATOM     17  C   UNL     1     105.514 124.836 147.338  0.00  0.00    +0.000 A 
ATOM     18  C   UNL     1     105.896 124.563 148.017  0.00  0.00    +0.000 A 
ATOM     19  C   UNL     1     106.709 124.675 148.105  0.00  0.00    +0.000 A 
ATOM     20  C   UNL     1     107.139 125.059 147.515  0.00  0.00    +0.000 A 
ATOM     21  C   UNL     1     105.945 125.220 146.748  0.00  0.00    +0.000 A 
ATOM     22  C   UNL     1     106.757 125.331 146.837  0.00  0.00    +0.000 A 
ATOM     23  C   UNL     1     107.979 124.724 148.488  0.00  0.00    +0.000 C 
BRANCH  22  24
ATOM     24  O   UNL     1     107.188 125.715 146.248  0.00  0.00    +0.000 OA
ATOM     25  C   UNL     1     106.822 126.281 145.771  0.00  0.00    +0.000 C 
ENDBRANCH  22  24
ENDBRANCH   7  17
BRANCH   8  26
ATOM     26  O   UNL     1     101.679 124.853 147.363  0.00  0.00    +0.000 OA
ATOM     27  C   UNL     1     101.373 124.614 148.090  0.00  0.00    +0.000 C 
ENDBRANCH   8  26
BRANCH  11  28
ATOM     28  O   UNL     1     104.425 125.830 148.163  0.00  0.00    +0.000 OA
ATOM     29  C   UNL     1     104.015 126.544 148.214  0.00  0.00    +0.000 C 
ENDBRANCH  11  28
TORSDOF 4
ENDMDL
MODEL 2
REMARK VINA RESULT:      -8.6      0.870      4.831
REMARK  Name = 14704648
REMARK  4 active torsions:
REMARK  status: ('A' for Active; 'I' for Inactive)
REMARK    1  A    between atoms: O_5  and  C_13
REMARK    2  A    between atoms: O_7  and  C_17
REMARK    3  A    between atoms: O_8  and  C_24
REMARK    4  A    between atoms: C_12  and  C_14
REMARK                            x       y       z     vdW  Elec       q    Type
REMARK                         _______ _______ _______ _____ _____    ______ ____
ROOT
ATOM      1  O   UNL     1     104.981 124.197 147.657  0.00  0.00    +0.000 OA
ATOM      2  O   UNL     1     108.081 125.020 148.493  0.00  0.00    +0.000 OA
ATOM      3  O   UNL     1     107.406 124.253 149.341  0.00  0.00    +0.000 OA
ATOM      4  O   UNL     1     106.276 125.659 146.046  0.00  0.00    +0.000 OA
ATOM      5  C   UNL     1     106.207 124.915 147.300  0.00  0.00    +0.000 A 
ATOM      6  C   UNL     1     105.787 124.438 147.827  0.00  0.00    +0.000 A 
ATOM      7  C   UNL     1     104.606 124.455 146.928  0.00  0.00    +0.000 A 
ATOM      8  C   UNL     1     106.982 125.140 147.474  0.00  0.00    +0.000 A 
ATOM      9  C   UNL     1     107.336 124.889 148.175  0.00  0.00    +0.000 A 
ATOM     10  C   UNL     1     106.917 124.412 148.702  0.00  0.00    +0.000 A 
ATOM     11  C   UNL     1     105.042 124.952 146.379  0.00  0.00    +0.000 A 
ATOM     12  C   UNL     1     105.849 125.183 146.567  0.00  0.00    +0.000 A 
ATOM     13  C   UNL     1     106.143 124.187 148.528  0.00  0.00    +0.000 A 
ATOM     14  C   UNL     1     108.124 124.627 149.212  0.00  0.00    +0.000 C 
ENDROOT
BRANCH   7  17
ATOM     15  O   UNL     1     102.609 122.746 145.637  0.00  0.00    +0.000 OA
ATOM     16  O   UNL     1     101.589 123.426 146.148  0.00  0.00    +0.000 OA
ATOM     17  C   UNL     1     103.831 124.229 146.756  0.00  0.00    +0.000 A 
ATOM     18  C   UNL     1     103.690 123.579 146.267  0.00  0.00    +0.000 A 
ATOM     19  C   UNL     1     102.915 123.353 146.095  0.00  0.00    +0.000 A 
ATOM     20  C   UNL     1     102.282 123.776 146.413  0.00  0.00    +0.000 A 
ATOM     21  C   UNL     1     103.198 124.652 147.074  0.00  0.00    +0.000 A 
ATOM     22  C   UNL     1     102.424 124.425 146.902  0.00  0.00    +0.000 A 
ATOM     23  C   UNL     1     101.790 122.791 145.670  0.00  0.00    +0.000 C 
BRANCH  22  24
ATOM     24  O   UNL     1     101.790 124.848 147.219  0.00  0.00    +0.000 OA
ATOM     25  C   UNL     1     101.884 125.262 147.927  0.00  0.00    +0.000 C 
ENDBRANCH  22  24
ENDBRANCH   7  17
BRANCH   8  26
ATOM     26  O   UNL     1     107.401 125.617 146.948  0.00  0.00    +0.000 OA
ATOM     27  C   UNL     1     107.376 126.437 147.024  0.00  0.00    +0.000 C 
ENDBRANCH   8  26
BRANCH  11  28
ATOM     28  O   UNL     1     104.691 125.205 145.677  0.00  0.00    +0.000 OA
ATOM     29  C   UNL     1     105.155 125.338 145.008  0.00  0.00    +0.000 C 
ENDBRANCH  11  28
TORSDOF 4
ENDMDL
MODEL 3
REMARK VINA RESULT:      -8.5     12.865     15.036
REMARK  Name = 14704648
REMARK  4 active torsions:
REMARK  status: ('A' for Active; 'I' for Inactive)
REMARK    1  A    between atoms: O_5  and  C_13
REMARK    2  A    between atoms: O_7  and  C_17
REMARK    3  A    between atoms: O_8  and  C_24
REMARK    4  A    between atoms: C_12  and  C_14
REMARK                            x       y       z     vdW  Elec       q    Type
REMARK                         _______ _______ _______ _____ _____    ______ ____
ROOT
ATOM      1  O   UNL     1     113.812 127.969 135.851  0.00  0.00    +0.000 OA
ATOM      2  O   UNL     1     114.963 131.070 135.635  0.00  0.00    +0.000 OA
ATOM      3  O   UNL     1     115.288 130.231 134.659  0.00  0.00    +0.000 OA
ATOM      4  O   UNL     1     113.195 129.575 137.709  0.00  0.00    +0.000 OA
ATOM      5  C   UNL     1     113.882 129.304 136.449  0.00  0.00    +0.000 A 
ATOM      6  C   UNL     1     114.084 128.783 135.842  0.00  0.00    +0.000 A 
ATOM      7  C   UNL     1     113.321 127.693 136.501  0.00  0.00    +0.000 A 
ATOM      8  C   UNL     1     114.150 130.085 136.430  0.00  0.00    +0.000 A 
ATOM      9  C   UNL     1     114.621 130.343 135.803  0.00  0.00    +0.000 A 
ATOM     10  C   UNL     1     114.823 129.822 135.196  0.00  0.00    +0.000 A 
ATOM     11  C   UNL     1     113.110 128.236 137.133  0.00  0.00    +0.000 A 
ATOM     12  C   UNL     1     113.393 129.047 137.107  0.00  0.00    +0.000 A 
ATOM     13  C   UNL     1     114.555 129.043 135.216  0.00  0.00    +0.000 A 
ATOM     14  C   UNL     1     115.374 131.000 134.930  0.00  0.00    +0.000 C 
ENDROOT
BRANCH   7  17
ATOM     15  O   UNL     1     111.340 125.597 135.993  0.00  0.00    +0.000 OA
ATOM     16  O   UNL     1     112.114 124.642 136.497  0.00  0.00    +0.000 OA
ATOM     17  C   UNL     1     113.054 126.913 136.519  0.00  0.00    +0.000 A 
ATOM     18  C   UNL     1     112.307 126.725 136.223  0.00  0.00    +0.000 A 
ATOM     19  C   UNL     1     112.041 125.944 136.241  0.00  0.00    +0.000 A 
ATOM     20  C   UNL     1     112.522 125.352 136.553  0.00  0.00    +0.000 A 
ATOM     21  C   UNL     1     113.535 126.320 136.831  0.00  0.00    +0.000 A 
ATOM     22  C   UNL     1     113.268 125.540 136.849  0.00  0.00    +0.000 A 
ATOM     23  C   UNL     1     111.386 124.793 136.151  0.00  0.00    +0.000 C 
BRANCH  22  24
ATOM     24  O   UNL     1     113.749 124.946 137.161  0.00  0.00    +0.000 OA
ATOM     25  C   UNL     1     114.563 125.066 137.227  0.00  0.00    +0.000 C 
ENDBRANCH  22  24
ENDBRANCH   7  17
BRANCH   8  26
ATOM     26  O   UNL     1     113.948 130.606 137.036  0.00  0.00    +0.000 OA
ATOM     27  C   UNL     1     113.293 131.100 136.954  0.00  0.00    +0.000 C 
ENDBRANCH   8  26
BRANCH  11  28
ATOM     28  O   UNL     1     112.639 127.980 137.761  0.00  0.00    +0.000 OA
ATOM     29  C   UNL     1     112.783 128.259 138.524  0.00  0.00    +0.000 C 
ENDBRANCH  11  28
TORSDOF 4
ENDMDL
MODEL 4
REMARK VINA RESULT:      -8.3      1.185      2.701
REMARK  Name = 14704648
REMARK  4 active torsions:
REMARK  status: ('A' for Active; 'I' for Inactive)
REMARK    1  A    between atoms: O_5  and  C_13
REMARK    2  A    between atoms: O_7  and  C_17
REMARK    3  A    between atoms: O_8  and  C_24
REMARK    4  A    between atoms: C_12  and  C_14
REMARK                            x       y       z     vdW  Elec       q    Type
REMARK                         _______ _______ _______ _____ _____    ______ ____
ROOT
ATOM      1  O   UNL     1     103.791 125.043 146.908  0.00  0.00    +0.000 OA
ATOM      2  O   UNL     1     101.067 123.807 148.337  0.00  0.00    +0.000 OA
ATOM      3  O   UNL     1     101.464 125.013 148.726  0.00  0.00    +0.000 OA
ATOM      4  O   UNL     1     103.028 122.745 146.171  0.00  0.00    +0.000 OA
ATOM      5  C   UNL     1     102.845 123.929 147.006  0.00  0.00    +0.000 A 
ATOM      6  C   UNL     1     103.092 124.678 147.248  0.00  0.00    +0.000 A 
ATOM      7  C   UNL     1     104.241 124.622 146.308  0.00  0.00    +0.000 A 
ATOM      8  C   UNL     1     102.171 123.589 147.339  0.00  0.00    +0.000 A 
ATOM      9  C   UNL     1     101.744 123.998 147.914  0.00  0.00    +0.000 A 
ATOM     10  C   UNL     1     101.991 124.747 148.156  0.00  0.00    +0.000 A 
ATOM     11  C   UNL     1     103.984 123.842 146.056  0.00  0.00    +0.000 A 
ATOM     12  C   UNL     1     103.281 123.493 146.408  0.00  0.00    +0.000 A 
ATOM     13  C   UNL     1     102.664 125.087 147.823  0.00  0.00    +0.000 A 
ATOM     14  C   UNL     1     100.895 124.433 148.837  0.00  0.00    +0.000 C 
ENDROOT
BRANCH   7  17
ATOM     15  O   UNL     1     105.631 126.247 144.308  0.00  0.00    +0.000 OA
ATOM     16  O   UNL     1     106.819 126.053 144.868  0.00  0.00    +0.000 OA
ATOM     17  C   UNL     1     104.914 124.965 145.977  0.00  0.00    +0.000 A 
ATOM     18  C   UNL     1     104.849 125.428 145.297  0.00  0.00    +0.000 A 
ATOM     19  C   UNL     1     105.524 125.771 144.966  0.00  0.00    +0.000 A 
ATOM     20  C   UNL     1     106.261 125.649 145.315  0.00  0.00    +0.000 A 
ATOM     21  C   UNL     1     105.652 124.844 146.326  0.00  0.00    +0.000 A 
ATOM     22  C   UNL     1     106.325 125.186 145.994  0.00  0.00    +0.000 A 
ATOM     23  C   UNL     1     106.430 126.422 144.248  0.00  0.00    +0.000 C 
BRANCH  22  24
ATOM     24  O   UNL     1     107.063 125.065 146.342  0.00  0.00    +0.000 OA
ATOM     25  C   UNL     1     107.145 125.107 147.162  0.00  0.00    +0.000 C 
ENDBRANCH  22  24
ENDBRANCH   7  17
BRANCH   8  26
ATOM     26  O   UNL     1     101.924 122.840 147.097  0.00  0.00    +0.000 OA
ATOM     27  C   UNL     1     101.333 122.764 146.527  0.00  0.00    +0.000 C 
ENDBRANCH   8  26
BRANCH  11  28
ATOM     28  O   UNL     1     104.409 123.430 145.481  0.00  0.00    +0.000 OA
ATOM     29  C   UNL     1     104.063 122.790 145.092  0.00  0.00    +0.000 C 
ENDBRANCH  11  28
TORSDOF 4
ENDMDL
MODEL 5
REMARK VINA RESULT:      -8.3     13.103     14.616
REMARK  Name = 14704648
REMARK  4 active torsions:
REMARK  status: ('A' for Active; 'I' for Inactive)
REMARK    1  A    between atoms: O_5  and  C_13
REMARK    2  A    between atoms: O_7  and  C_17
REMARK    3  A    between atoms: O_8  and  C_24
REMARK    4  A    between atoms: C_12  and  C_14
REMARK                            x       y       z     vdW  Elec       q    Type
REMARK                         _______ _______ _______ _____ _____    ______ ____
ROOT
ATOM      1  O   UNL     1     113.160 127.613 136.225  0.00  0.00    +0.000 OA
ATOM      2  O   UNL     1     111.120 125.001 136.139  0.00  0.00    +0.000 OA
ATOM      3  O   UNL     1     112.298 124.834 136.729  0.00  0.00    +0.000 OA
ATOM      4  O   UNL     1     110.912 127.923 135.101  0.00  0.00    +0.000 OA
ATOM      5  C   UNL     1     111.864 127.071 135.809  0.00  0.00    +0.000 A 
ATOM      6  C   UNL     1     112.595 126.968 136.176  0.00  0.00    +0.000 A 
ATOM      7  C   UNL     1     112.960 128.378 135.887  0.00  0.00    +0.000 A 
ATOM      8  C   UNL     1     111.329 126.443 135.769  0.00  0.00    +0.000 A 
ATOM      9  C   UNL     1     111.527 125.712 136.095  0.00  0.00    +0.000 A 
ATOM     10  C   UNL     1     112.259 125.608 136.462  0.00  0.00    +0.000 A 
ATOM     11  C   UNL     1     112.198 128.486 135.505  0.00  0.00    +0.000 A 
ATOM     12  C   UNL     1     111.646 127.828 135.466  0.00  0.00    +0.000 A 
ATOM     13  C   UNL     1     112.793 126.236 136.502  0.00  0.00    +0.000 A 
ATOM     14  C   UNL     1     111.596 124.460 136.530  0.00  0.00    +0.000 C 
ENDROOT
BRANCH   7  17
ATOM     15  O   UNL     1     115.110 130.053 134.817  0.00  0.00    +0.000 OA
ATOM     16  O   UNL     1     115.147 130.824 135.897  0.00  0.00    +0.000 OA
ATOM     17  C   UNL     1     113.496 129.004 135.929  0.00  0.00    +0.000 A 
ATOM     18  C   UNL     1     114.009 129.151 135.299  0.00  0.00    +0.000 A 
ATOM     19  C   UNL     1     114.545 129.777 135.342  0.00  0.00    +0.000 A 
ATOM     20  C   UNL     1     114.567 130.256 136.014  0.00  0.00    +0.000 A 
ATOM     21  C   UNL     1     113.518 129.482 136.600  0.00  0.00    +0.000 A 
ATOM     22  C   UNL     1     114.054 130.108 136.642  0.00  0.00    +0.000 A 
ATOM     23  C   UNL     1     115.482 130.699 135.159  0.00  0.00    +0.000 C 
BRANCH  22  24
ATOM     24  O   UNL     1     114.076 130.587 137.314  0.00  0.00    +0.000 OA
ATOM     25  C   UNL     1     113.741 130.324 138.020  0.00  0.00    +0.000 C 
ENDBRANCH  22  24
ENDBRANCH   7  17
BRANCH   8  26
ATOM     26  O   UNL     1     110.598 126.547 135.402  0.00  0.00    +0.000 OA
ATOM     27  C   UNL     1     110.498 126.330 134.613  0.00  0.00    +0.000 C 
ENDBRANCH   8  26
BRANCH  11  28
ATOM     28  O   UNL     1     111.997 129.217 135.177  0.00  0.00    +0.000 OA
ATOM     29  C   UNL     1     111.216 129.482 135.209  0.00  0.00    +0.000 C 
ENDBRANCH  11  28
TORSDOF 4
ENDMDL
MODEL 6
REMARK VINA RESULT:      -8.3     11.295     14.189
REMARK  Name = 14704648
REMARK  4 active torsions:
REMARK  status: ('A' for Active; 'I' for Inactive)
REMARK    1  A    between atoms: O_5  and  C_13
REMARK    2  A    between atoms: O_7  and  C_17
REMARK    3  A    between atoms: O_8  and  C_24
REMARK    4  A    between atoms: C_12  and  C_14
REMARK                            x       y       z     vdW  Elec       q    Type
REMARK                         _______ _______ _______ _____ _____    ______ ____
ROOT
ATOM      1  O   UNL     1     112.782 126.980 136.511  0.00  0.00    +0.000 OA
ATOM      2  O   UNL     1     113.482 129.897 135.100  0.00  0.00    +0.000 OA
ATOM      3  O   UNL     1     114.372 129.406 135.954  0.00  0.00    +0.000 OA
ATOM      4  O   UNL     1     111.090 127.925 134.881  0.00  0.00    +0.000 OA
ATOM      5  C   UNL     1     112.363 128.038 135.588  0.00  0.00    +0.000 A 
ATOM      6  C   UNL     1     112.916 127.733 136.118  0.00  0.00    +0.000 A 
ATOM      7  C   UNL     1     112.062 126.540 136.348  0.00  0.00    +0.000 A 
ATOM      8  C   UNL     1     112.502 128.762 135.217  0.00  0.00    +0.000 A 
ATOM      9  C   UNL     1     113.195 129.180 135.377  0.00  0.00    +0.000 A 
ATOM     10  C   UNL     1     113.748 128.875 135.908  0.00  0.00    +0.000 A 
ATOM     11  C   UNL     1     111.486 126.857 135.796  0.00  0.00    +0.000 A 
ATOM     12  C   UNL     1     111.638 127.612 135.413  0.00  0.00    +0.000 A 
ATOM     13  C   UNL     1     113.608 128.152 136.278  0.00  0.00    +0.000 A 
ATOM     14  C   UNL     1     114.207 130.036 135.456  0.00  0.00    +0.000 C 
ENDROOT
BRANCH   7  17
ATOM     15  O   UNL     1     112.233 123.622 136.533  0.00  0.00    +0.000 OA
ATOM     16  O   UNL     1     111.595 123.585 137.697  0.00  0.00    +0.000 OA
ATOM     17  C   UNL     1     111.924 125.816 136.720  0.00  0.00    +0.000 A 
ATOM     18  C   UNL     1     112.184 125.116 136.369  0.00  0.00    +0.000 A 
ATOM     19  C   UNL     1     112.046 124.392 136.742  0.00  0.00    +0.000 A 
ATOM     20  C   UNL     1     111.649 124.370 137.465  0.00  0.00    +0.000 A 
ATOM     21  C   UNL     1     111.528 125.794 137.443  0.00  0.00    +0.000 A 
ATOM     22  C   UNL     1     111.391 125.071 137.815  0.00  0.00    +0.000 A 
ATOM     23  C   UNL     1     111.955 123.124 137.122  0.00  0.00    +0.000 C 
BRANCH  22  24
ATOM     24  O   UNL     1     110.994 125.047 138.538  0.00  0.00    +0.000 OA
ATOM     25  C   UNL     1     110.856 125.746 138.956  0.00  0.00    +0.000 C 
ENDBRANCH  22  24
ENDBRANCH   7  17
BRANCH   8  26
ATOM     26  O   UNL     1     111.950 129.067 134.686  0.00  0.00    +0.000 OA
ATOM     27  C   UNL     1     111.346 129.559 134.957  0.00  0.00    +0.000 C 
ENDBRANCH   8  26
BRANCH  11  28
ATOM     28  O   UNL     1     110.792 126.441 135.633  0.00  0.00    +0.000 OA
ATOM     29  C   UNL     1     110.489 126.429 134.866  0.00  0.00    +0.000 C 
ENDBRANCH  11  28
TORSDOF 4
ENDMDL
MODEL 7
REMARK VINA RESULT:      -8.2      2.587      3.799
REMARK  Name = 14704648
REMARK  4 active torsions:
REMARK  status: ('A' for Active; 'I' for Inactive)
REMARK    1  A    between atoms: O_5  and  C_13
REMARK    2  A    between atoms: O_7  and  C_17
REMARK    3  A    between atoms: O_8  and  C_24
REMARK    4  A    between atoms: C_12  and  C_14
REMARK                            x       y       z     vdW  Elec       q    Type
REMARK                         _______ _______ _______ _____ _____    ______ ____
ROOT
ATOM      1  O   UNL     1     106.234 124.877 145.942  0.00  0.00    +0.000 OA
ATOM      2  O   UNL     1     105.746 125.757 142.784  0.00  0.00    +0.000 OA
ATOM      3  O   UNL     1     105.605 124.472 143.085  0.00  0.00    +0.000 OA
ATOM      4  O   UNL     1     106.502 127.326 145.358  0.00  0.00    +0.000 OA
ATOM      5  C   UNL     1     106.207 125.955 144.951  0.00  0.00    +0.000 A 
ATOM      6  C   UNL     1     106.119 125.156 145.138  0.00  0.00    +0.000 A 
ATOM      7  C   UNL     1     106.444 125.437 146.560  0.00  0.00    +0.000 A 
ATOM      8  C   UNL     1     106.093 126.212 144.175  0.00  0.00    +0.000 A 
ATOM      9  C   UNL     1     105.892 125.669 143.587  0.00  0.00    +0.000 A 
ATOM     10  C   UNL     1     105.804 124.871 143.774  0.00  0.00    +0.000 A 
ATOM     11  C   UNL     1     106.536 126.268 146.365  0.00  0.00    +0.000 A 
ATOM     12  C   UNL     1     106.416 126.529 145.554  0.00  0.00    +0.000 A 
ATOM     13  C   UNL     1     105.917 124.615 144.549  0.00  0.00    +0.000 A 
ATOM     14  C   UNL     1     105.570 125.019 142.475  0.00  0.00    +0.000 C 
ENDROOT
BRANCH   7  17
ATOM     15  O   UNL     1     108.109 124.590 148.815  0.00  0.00    +0.000 OA
ATOM     16  O   UNL     1     107.063 124.403 149.612  0.00  0.00    +0.000 OA
ATOM     17  C   UNL     1     106.557 125.177 147.335  0.00  0.00    +0.000 A 
ATOM     18  C   UNL     1     107.320 125.034 147.615  0.00  0.00    +0.000 A 
ATOM     19  C   UNL     1     107.432 124.774 148.390  0.00  0.00    +0.000 A 
ATOM     20  C   UNL     1     106.782 124.659 148.885  0.00  0.00    +0.000 A 
ATOM     21  C   UNL     1     105.907 125.062 147.829  0.00  0.00    +0.000 A 
ATOM     22  C   UNL     1     106.020 124.803 148.604  0.00  0.00    +0.000 A 
ATOM     23  C   UNL     1     107.881 124.361 149.569  0.00  0.00    +0.000 C 
BRANCH  22  24
ATOM     24  O   UNL     1     105.370 124.687 149.099  0.00  0.00    +0.000 OA
ATOM     25  C   UNL     1     104.605 124.740 148.795  0.00  0.00    +0.000 C 
ENDBRANCH  22  24
ENDBRANCH   7  17
BRANCH   8  26
ATOM     26  O   UNL     1     106.181 127.011 143.987  0.00  0.00    +0.000 OA
ATOM     27  C   UNL     1     106.895 127.286 143.682  0.00  0.00    +0.000 C 
ENDBRANCH   8  26
BRANCH  11  28
ATOM     28  O   UNL     1     106.737 126.813 146.951  0.00  0.00    +0.000 OA
ATOM     29  C   UNL     1     106.424 127.576 146.930  0.00  0.00    +0.000 C 
ENDBRANCH  11  28
TORSDOF 4
ENDMDL
MODEL 8
REMARK VINA RESULT:      -8.0     11.887     13.880
REMARK  Name = 14704648
REMARK  4 active torsions:
REMARK  status: ('A' for Active; 'I' for Inactive)
REMARK    1  A    between atoms: O_5  and  C_13
REMARK    2  A    between atoms: O_7  and  C_17
REMARK    3  A    between atoms: O_8  and  C_24
REMARK    4  A    between atoms: C_12  and  C_14
REMARK                            x       y       z     vdW  Elec       q    Type
REMARK                         _______ _______ _______ _____ _____    ______ ____
ROOT
ATOM      1  O   UNL     1     112.163 126.991 136.492  0.00  0.00    +0.000 OA
ATOM      2  O   UNL     1     114.027 124.297 136.999  0.00  0.00    +0.000 OA
ATOM      3  O   UNL     1     114.558 125.472 137.314  0.00  0.00    +0.000 OA
ATOM      4  O   UNL     1     111.157 124.746 135.894  0.00  0.00    +0.000 OA
ATOM      5  C   UNL     1     112.274 125.533 136.409  0.00  0.00    +0.000 A 
ATOM      6  C   UNL     1     112.604 126.263 136.605  0.00  0.00    +0.000 A 
ATOM      7  C   UNL     1     111.366 126.959 136.172  0.00  0.00    +0.000 A 
ATOM      8  C   UNL     1     112.708 124.840 136.521  0.00  0.00    +0.000 A 
ATOM      9  C   UNL     1     113.472 124.878 136.829  0.00  0.00    +0.000 A 
ATOM     10  C   UNL     1     113.803 125.608 137.025  0.00  0.00    +0.000 A 
ATOM     11  C   UNL     1     111.022 126.199 135.968  0.00  0.00    +0.000 A 
ATOM     12  C   UNL     1     111.479 125.480 136.087  0.00  0.00    +0.000 A 
ATOM     13  C   UNL     1     113.369 126.300 136.913  0.00  0.00    +0.000 A 
ATOM     14  C   UNL     1     114.696 124.664 137.298  0.00  0.00    +0.000 C 
ENDROOT
BRANCH   7  17
ATOM     15  O   UNL     1     110.520 129.288 134.612  0.00  0.00    +0.000 OA
ATOM     16  O   UNL     1     109.718 129.732 135.573  0.00  0.00    +0.000 OA
ATOM     17  C   UNL     1     110.934 127.653 136.060  0.00  0.00    +0.000 A 
ATOM     18  C   UNL     1     111.000 128.071 135.352  0.00  0.00    +0.000 A 
ATOM     19  C   UNL     1     110.568 128.765 135.242  0.00  0.00    +0.000 A 
ATOM     20  C   UNL     1     110.070 129.041 135.839  0.00  0.00    +0.000 A 
ATOM     21  C   UNL     1     110.436 127.928 136.658  0.00  0.00    +0.000 A 
ATOM     22  C   UNL     1     110.004 128.622 136.547  0.00  0.00    +0.000 A 
ATOM     23  C   UNL     1     109.996 129.885 134.817  0.00  0.00    +0.000 C 
BRANCH  22  24
ATOM     24  O   UNL     1     109.506 128.898 137.144  0.00  0.00    +0.000 OA
ATOM     25  C   UNL     1     109.713 128.792 137.935  0.00  0.00    +0.000 C 
ENDBRANCH  22  24
ENDBRANCH   7  17
BRANCH   8  26
ATOM     26  O   UNL     1     112.378 124.110 136.325  0.00  0.00    +0.000 OA
ATOM     27  C   UNL     1     112.023 123.648 136.909  0.00  0.00    +0.000 C 
ENDBRANCH   8  26
BRANCH  11  28
ATOM     28  O   UNL     1     110.257 126.157 135.659  0.00  0.00    +0.000 OA
ATOM     29  C   UNL     1     110.091 125.640 135.039  0.00  0.00    +0.000 C 
ENDBRANCH  11  28
TORSDOF 4
ENDMDL
MODEL 9
REMARK VINA RESULT:      -8.0     12.899     14.307
REMARK  Name = 14704648
REMARK  4 active torsions:
REMARK  status: ('A' for Active; 'I' for Inactive)
REMARK    1  A    between atoms: O_5  and  C_13
REMARK    2  A    between atoms: O_7  and  C_17
REMARK    3  A    between atoms: O_8  and  C_24
REMARK    4  A    between atoms: C_12  and  C_14
REMARK                            x       y       z     vdW  Elec       q    Type
REMARK                         _______ _______ _______ _____ _____    ______ ____
ROOT
ATOM      1  O   UNL     1     112.068 127.977 135.639  0.00  0.00    +0.000 OA
ATOM      2  O   UNL     1     110.064 125.377 135.174  0.00  0.00    +0.000 OA
ATOM      3  O   UNL     1     109.682 126.539 134.658  0.00  0.00    +0.000 OA
ATOM      4  O   UNL     1     112.789 125.757 136.621  0.00  0.00    +0.000 OA
ATOM      5  C   UNL     1     111.822 126.551 135.868  0.00  0.00    +0.000 A 
ATOM      6  C   UNL     1     111.584 127.273 135.547  0.00  0.00    +0.000 A 
ATOM      7  C   UNL     1     112.809 127.928 136.072  0.00  0.00    +0.000 A 
ATOM      8  C   UNL     1     111.349 125.881 135.772  0.00  0.00    +0.000 A 
ATOM      9  C   UNL     1     110.639 125.934 135.356  0.00  0.00    +0.000 A 
ATOM     10  C   UNL     1     110.401 126.656 135.035  0.00  0.00    +0.000 A 
ATOM     11  C   UNL     1     113.056 127.176 136.407  0.00  0.00    +0.000 A 
ATOM     12  C   UNL     1     112.559 126.483 136.304  0.00  0.00    +0.000 A 
ATOM     13  C   UNL     1     110.874 127.325 135.131  0.00  0.00    +0.000 A 
ATOM     14  C   UNL     1     109.475 125.750 134.744  0.00  0.00    +0.000 C 
ENDROOT
BRANCH   7  17
ATOM     15  O   UNL     1     114.917 129.779 135.233  0.00  0.00    +0.000 OA
ATOM     16  O   UNL     1     114.760 130.557 136.298  0.00  0.00    +0.000 OA
ATOM     17  C   UNL     1     113.280 128.599 136.166  0.00  0.00    +0.000 A 
ATOM     18  C   UNL     1     113.849 128.787 135.599  0.00  0.00    +0.000 A 
ATOM     19  C   UNL     1     114.319 129.458 135.693  0.00  0.00    +0.000 A 
ATOM     20  C   UNL     1     114.221 129.940 136.355  0.00  0.00    +0.000 A 
ATOM     21  C   UNL     1     113.182 129.081 136.828  0.00  0.00    +0.000 A 
ATOM     22  C   UNL     1     113.653 129.752 136.922  0.00  0.00    +0.000 A 
ATOM     23  C   UNL     1     115.188 130.458 135.606  0.00  0.00    +0.000 C 
BRANCH  22  24
ATOM     24  O   UNL     1     113.555 130.235 137.584  0.00  0.00    +0.000 OA
ATOM     25  C   UNL     1     112.825 130.267 137.968  0.00  0.00    +0.000 C 
ENDBRANCH  22  24
ENDBRANCH   7  17
BRANCH   8  26
ATOM     26  O   UNL     1     111.586 125.159 136.093  0.00  0.00    +0.000 OA
ATOM     27  C   UNL     1     111.317 124.931 136.839  0.00  0.00    +0.000 C 
ENDBRANCH   8  26
BRANCH  11  28
ATOM     28  O   UNL     1     113.766 127.120 136.824  0.00  0.00    +0.000 OA
ATOM     29  C   UNL     1     114.206 126.423 136.796  0.00  0.00    +0.000 C 
ENDBRANCH  11  28
TORSDOF 4
ENDMDL
MODEL 10
REMARK VINA RESULT:      -7.8     12.784     13.946
REMARK  Name = 14704648
REMARK  4 active torsions:
REMARK  status: ('A' for Active; 'I' for Inactive)
REMARK    1  A    between atoms: O_5  and  C_13
REMARK    2  A    between atoms: O_7  and  C_17
REMARK    3  A    between atoms: O_8  and  C_24
REMARK    4  A    between atoms: C_12  and  C_14
REMARK                            x       y       z     vdW  Elec       q    Type
REMARK                         _______ _______ _______ _____ _____    ______ ____
ROOT
ATOM      1  O   UNL     1     111.848 126.987 136.815  0.00  0.00    +0.000 OA
ATOM      2  O   UNL     1     112.845 123.826 136.762  0.00  0.00    +0.000 OA
ATOM      3  O   UNL     1     111.564 124.055 137.024  0.00  0.00    +0.000 OA
ATOM      4  O   UNL     1     114.290 126.542 136.317  0.00  0.00    +0.000 OA
ATOM      5  C   UNL     1     112.953 126.044 136.627  0.00  0.00    +0.000 A 
ATOM      6  C   UNL     1     112.157 126.186 136.790  0.00  0.00    +0.000 A 
ATOM      7  C   UNL     1     112.376 127.650 136.669  0.00  0.00    +0.000 A 
ATOM      8  C   UNL     1     113.238 125.269 136.606  0.00  0.00    +0.000 A 
ATOM      9  C   UNL     1     112.726 124.638 136.747  0.00  0.00    +0.000 A 
ATOM     10  C   UNL     1     111.930 124.780 136.909  0.00  0.00    +0.000 A 
ATOM     11  C   UNL     1     113.205 127.502 136.500  0.00  0.00    +0.000 A 
ATOM     12  C   UNL     1     113.495 126.693 136.479  0.00  0.00    +0.000 A 
ATOM     13  C   UNL     1     111.645 125.554 136.931  0.00  0.00    +0.000 A 
ATOM     14  C   UNL     1     112.128 123.468 136.933  0.00  0.00    +0.000 C 
ENDROOT
BRANCH   7  17
ATOM     15  O   UNL     1     111.867 130.211 137.993  0.00  0.00    +0.000 OA
ATOM     16  O   UNL     1     111.287 130.735 136.920  0.00  0.00    +0.000 OA
ATOM     17  C   UNL     1     112.089 128.423 136.691  0.00  0.00    +0.000 A 
ATOM     18  C   UNL     1     112.162 128.871 137.380  0.00  0.00    +0.000 A 
ATOM     19  C   UNL     1     111.874 129.644 137.402  0.00  0.00    +0.000 A 
ATOM     20  C   UNL     1     111.514 129.968 136.734  0.00  0.00    +0.000 A 
ATOM     21  C   UNL     1     111.728 128.747 136.024  0.00  0.00    +0.000 A 
ATOM     22  C   UNL     1     111.441 129.520 136.046  0.00  0.00    +0.000 A 
ATOM     23  C   UNL     1     111.504 130.884 137.696  0.00  0.00    +0.000 C 
BRANCH  22  24
ATOM     24  O   UNL     1     111.081 129.846 135.379  0.00  0.00    +0.000 OA
ATOM     25  C   UNL     1     110.692 129.357 134.840  0.00  0.00    +0.000 C 
ENDBRANCH  22  24
ENDBRANCH   7  17
BRANCH   8  26
ATOM     26  O   UNL     1     114.034 125.127 136.443  0.00  0.00    +0.000 OA
ATOM     27  C   UNL     1     114.572 125.039 137.062  0.00  0.00    +0.000 C 
ENDBRANCH   8  26
BRANCH  11  28
ATOM     28  O   UNL     1     113.720 128.131 136.358  0.00  0.00    +0.000 OA
ATOM     29  C   UNL     1     114.290 128.072 135.765  0.00  0.00    +0.000 C 
ENDBRANCH  11  28
TORSDOF 4
ENDMDL
