MODEL 1
REMARK VINA RESULT:     -10.0      0.000      0.000
REMARK  Name = 101449862
REMARK  4 active torsions:
REMARK  status: ('A' for Active; 'I' for Inactive)
REMARK    1  A    between atoms: O_1  and  C_14
REMARK    2  A    between atoms: O_1  and  C_16
REMARK    3  A    between atoms: C_19  and  C_23
REMARK    4  A    between atoms: C_20  and  C_25
REMARK                            x       y       z     vdW  Elec       q    Type
REMARK                         _______ _______ _______ _____ _____    ______ ____
ROOT
ATOM      1  O   UNL     1     105.534 124.389 147.757  0.00  0.00    +0.000 OA
ATOM      2  O   UNL     1     108.053 125.546 146.939  0.00  0.00    +0.000 OA
ATOM      3  O   UNL     1     107.780 124.401 149.612  0.00  0.00    +0.000 OA
ATOM      4  C   UNL     1     105.673 124.951 146.450  0.00  0.00    +0.000 C 
ATOM      5  C   UNL     1     105.212 124.573 147.021  0.00  0.00    +0.000 C 
ATOM      6  C   UNL     1     106.457 125.144 146.617  0.00  0.00    +0.000 C 
ATOM      7  C   UNL     1     106.780 124.961 147.354  0.00  0.00    +0.000 A 
ATOM      8  C   UNL     1     106.319 124.583 147.923  0.00  0.00    +0.000 A 
ATOM      9  C   UNL     1     107.599 125.168 147.515  0.00  0.00    +0.000 A 
ATOM     10  C   UNL     1     106.643 124.386 148.694  0.00  0.00    +0.000 A 
ATOM     11  C   UNL     1     107.940 124.979 148.280  0.00  0.00    +0.000 A 
ATOM     12  C   UNL     1     107.460 124.586 148.874  0.00  0.00    +0.000 A 
ENDROOT
BRANCH   5  16
ATOM     13  O   UNL     1     103.299 122.841 145.791  0.00  0.00    +0.000 OA
ATOM     14  O   UNL     1     102.419 125.138 147.245  0.00  0.00    +0.000 OA
ATOM     15  O   UNL     1     102.075 123.795 146.351  0.00  0.00    +0.000 OA
ATOM     16  C   UNL     1     104.427 124.379 146.853  0.00  0.00    +0.000 A 
ATOM     17  C   UNL     1     103.815 124.856 147.133  0.00  0.00    +0.000 A 
ATOM     18  C   UNL     1     104.255 123.707 146.406  0.00  0.00    +0.000 A 
ATOM     19  C   UNL     1     103.471 123.513 146.239  0.00  0.00    +0.000 A 
ATOM     20  C   UNL     1     103.031 124.661 146.965  0.00  0.00    +0.000 A 
ATOM     21  C   UNL     1     102.859 123.990 146.518  0.00  0.00    +0.000 A 
ENDBRANCH   5  16
BRANCH   4  22
ATOM     22  O   UNL     1     105.350 125.134 145.713  0.00  0.00    +0.000 OA
BRANCH  22  27
ATOM     23  O   UNL     1     105.524 126.548 145.602  0.00  0.00    +0.000 OA
ATOM     24  O   UNL     1     106.103 124.928 144.259  0.00  0.00    +0.000 OA
ATOM     25  O   UNL     1     106.653 126.238 143.421  0.00  0.00    +0.000 OA
ATOM     26  O   UNL     1     106.450 127.755 144.037  0.00  0.00    +0.000 OA
ATOM     27  C   UNL     1     105.625 125.789 145.295  0.00  0.00    +0.000 C 
ATOM     28  C   UNL     1     106.001 125.686 144.568  0.00  0.00    +0.000 C 
ATOM     29  C   UNL     1     106.276 126.342 144.148  0.00  0.00    +0.000 C 
ATOM     30  C   UNL     1     106.175 127.100 144.457  0.00  0.00    +0.000 C 
ATOM     31  C   UNL     1     105.799 127.203 145.184  0.00  0.00    +0.000 C 
BRANCH  31  34
ATOM     32  O   UNL     1     104.989 128.366 145.370  0.00  0.00    +0.000 OA
ATOM     33  O   UNL     1     106.306 128.316 145.921  0.00  0.00    +0.000 OA
ATOM     34  C   UNL     1     105.698 127.961 145.491  0.00  0.00    +0.000 C 
ENDBRANCH  31  34
ENDBRANCH  22  27
ENDBRANCH   4  22
TORSDOF 4
ENDMDL
MODEL 2
REMARK VINA RESULT:      -9.8      0.987      2.068
REMARK  Name = 101449862
REMARK  4 active torsions:
REMARK  status: ('A' for Active; 'I' for Inactive)
REMARK    1  A    between atoms: O_1  and  C_14
REMARK    2  A    between atoms: O_1  and  C_16
REMARK    3  A    between atoms: C_19  and  C_23
REMARK    4  A    between atoms: C_20  and  C_25
REMARK                            x       y       z     vdW  Elec       q    Type
REMARK                         _______ _______ _______ _____ _____    ______ ____
ROOT
ATOM      1  O   UNL     1     105.464 124.860 148.520  0.00  0.00    +0.000 OA
ATOM      2  O   UNL     1     107.869 125.704 147.157  0.00  0.00    +0.000 OA
ATOM      3  O   UNL     1     108.064 124.132 149.612  0.00  0.00    +0.000 OA
ATOM      4  C   UNL     1     105.374 125.630 147.319  0.00  0.00    +0.000 C 
ATOM      5  C   UNL     1     105.007 125.234 147.944  0.00  0.00    +0.000 C 
ATOM      6  C   UNL     1     106.197 125.651 147.271  0.00  0.00    +0.000 C 
ATOM      7  C   UNL     1     106.654 125.277 147.847  0.00  0.00    +0.000 A 
ATOM      8  C   UNL     1     106.287 124.882 148.471  0.00  0.00    +0.000 A 
ATOM      9  C   UNL     1     107.511 125.306 147.786  0.00  0.00    +0.000 A 
ATOM     10  C   UNL     1     106.751 124.489 149.078  0.00  0.00    +0.000 A 
ATOM     11  C   UNL     1     107.991 124.919 148.383  0.00  0.00    +0.000 A 
ATOM     12  C   UNL     1     107.610 124.507 149.034  0.00  0.00    +0.000 A 
ENDROOT
BRANCH   5  16
ATOM     13  O   UNL     1     102.542 126.454 148.723  0.00  0.00    +0.000 OA
ATOM     14  O   UNL     1     102.532 123.894 147.452  0.00  0.00    +0.000 OA
ATOM     15  O   UNL     1     101.714 125.153 148.136  0.00  0.00    +0.000 OA
ATOM     16  C   UNL     1     104.184 125.214 147.991  0.00  0.00    +0.000 A 
ATOM     17  C   UNL     1     103.770 124.563 147.698  0.00  0.00    +0.000 A 
ATOM     18  C   UNL     1     103.775 125.844 148.333  0.00  0.00    +0.000 A 
ATOM     19  C   UNL     1     102.952 125.823 148.381  0.00  0.00    +0.000 A 
ATOM     20  C   UNL     1     102.946 124.544 147.746  0.00  0.00    +0.000 A 
ATOM     21  C   UNL     1     102.537 125.173 148.087  0.00  0.00    +0.000 A 
ENDBRANCH   5  16
BRANCH   4  22
ATOM     22  O   UNL     1     104.917 126.004 146.742  0.00  0.00    +0.000 OA
BRANCH  22  27
ATOM     23  O   UNL     1     105.282 125.294 145.557  0.00  0.00    +0.000 OA
ATOM     24  O   UNL     1     105.187 127.436 145.968  0.00  0.00    +0.000 OA
ATOM     25  O   UNL     1     105.686 127.442 144.395  0.00  0.00    +0.000 OA
ATOM     26  O   UNL     1     105.916 126.017 143.598  0.00  0.00    +0.000 OA
ATOM     27  C   UNL     1     105.167 126.007 145.957  0.00  0.00    +0.000 C 
ATOM     28  C   UNL     1     105.301 126.723 145.569  0.00  0.00    +0.000 C 
ATOM     29  C   UNL     1     105.551 126.726 144.782  0.00  0.00    +0.000 C 
ATOM     30  C   UNL     1     105.666 126.013 144.384  0.00  0.00    +0.000 C 
ATOM     31  C   UNL     1     105.531 125.297 144.771  0.00  0.00    +0.000 C 
BRANCH  31  34
ATOM     32  O   UNL     1     106.394 124.235 144.358  0.00  0.00    +0.000 OA
ATOM     33  O   UNL     1     105.014 124.221 143.987  0.00  0.00    +0.000 OA
ATOM     34  C   UNL     1     105.646 124.585 144.372  0.00  0.00    +0.000 C 
ENDBRANCH  31  34
ENDBRANCH  22  27
ENDBRANCH   4  22
TORSDOF 4
ENDMDL
MODEL 3
REMARK VINA RESULT:      -9.6     11.486     12.839
REMARK  Name = 101449862
REMARK  4 active torsions:
REMARK  status: ('A' for Active; 'I' for Inactive)
REMARK    1  A    between atoms: O_1  and  C_14
REMARK    2  A    between atoms: O_1  and  C_16
REMARK    3  A    between atoms: C_19  and  C_23
REMARK    4  A    between atoms: C_20  and  C_25
REMARK                            x       y       z     vdW  Elec       q    Type
REMARK                         _______ _______ _______ _____ _____    ______ ____
ROOT
ATOM      1  O   UNL     1     111.884 125.939 136.113  0.00  0.00    +0.000 OA
ATOM      2  O   UNL     1     110.759 128.139 134.614  0.00  0.00    +0.000 OA
ATOM      3  O   UNL     1     109.359 125.577 134.709  0.00  0.00    +0.000 OA
ATOM      4  C   UNL     1     112.566 127.195 136.063  0.00  0.00    +0.000 C 
ATOM      5  C   UNL     1     112.524 126.414 136.327  0.00  0.00    +0.000 C 
ATOM      6  C   UNL     1     111.967 127.500 135.586  0.00  0.00    +0.000 C 
ATOM      7  C   UNL     1     111.327 127.026 135.371  0.00  0.00    +0.000 A 
ATOM      8  C   UNL     1     111.286 126.246 135.635  0.00  0.00    +0.000 A 
ATOM      9  C   UNL     1     110.710 127.356 134.873  0.00  0.00    +0.000 A 
ATOM     10  C   UNL     1     110.625 125.741 135.419  0.00  0.00    +0.000 A 
ATOM     11  C   UNL     1     110.041 126.867 134.647  0.00  0.00    +0.000 A 
ATOM     12  C   UNL     1     109.998 126.054 134.922  0.00  0.00    +0.000 A 
ENDROOT
BRANCH   5  16
ATOM     13  O   UNL     1     115.032 125.069 136.595  0.00  0.00    +0.000 OA
ATOM     14  O   UNL     1     113.613 125.925 138.924  0.00  0.00    +0.000 OA
ATOM     15  O   UNL     1     114.922 125.191 138.237  0.00  0.00    +0.000 OA
ATOM     16  C   UNL     1     113.123 126.108 136.805  0.00  0.00    +0.000 A 
ATOM     17  C   UNL     1     113.068 126.169 137.626  0.00  0.00    +0.000 A 
ATOM     18  C   UNL     1     113.778 125.741 136.461  0.00  0.00    +0.000 A 
ATOM     19  C   UNL     1     114.377 125.436 136.939  0.00  0.00    +0.000 A 
ATOM     20  C   UNL     1     113.668 125.863 138.103  0.00  0.00    +0.000 A 
ATOM     21  C   UNL     1     114.322 125.497 137.760  0.00  0.00    +0.000 A 
ENDBRANCH   5  16
BRANCH   4  22
ATOM     22  O   UNL     1     113.206 127.670 136.278  0.00  0.00    +0.000 OA
BRANCH  22  27
ATOM     23  O   UNL     1     112.545 128.728 136.974  0.00  0.00    +0.000 OA
ATOM     24  O   UNL     1     114.082 128.778 135.426  0.00  0.00    +0.000 OA
ATOM     25  O   UNL     1     113.859 130.390 135.696  0.00  0.00    +0.000 OA
ATOM     26  O   UNL     1     112.760 130.893 136.819  0.00  0.00    +0.000 OA
ATOM     27  C   UNL     1     113.094 128.475 136.413  0.00  0.00    +0.000 C 
ATOM     28  C   UNL     1     113.532 129.029 135.987  0.00  0.00    +0.000 C 
ATOM     29  C   UNL     1     113.421 129.836 136.122  0.00  0.00    +0.000 C 
ATOM     30  C   UNL     1     112.871 130.087 136.684  0.00  0.00    +0.000 C 
ATOM     31  C   UNL     1     112.433 129.533 137.110  0.00  0.00    +0.000 C 
BRANCH  31  34
ATOM     32  O   UNL     1     112.082 129.784 138.472  0.00  0.00    +0.000 OA
ATOM     33  O   UNL     1     111.136 130.038 137.431  0.00  0.00    +0.000 OA
ATOM     34  C   UNL     1     111.884 129.785 137.671  0.00  0.00    +0.000 C 
ENDBRANCH  31  34
ENDBRANCH  22  27
ENDBRANCH   4  22
TORSDOF 4
ENDMDL
MODEL 4
REMARK VINA RESULT:      -9.6      1.901      3.667
REMARK  Name = 101449862
REMARK  4 active torsions:
REMARK  status: ('A' for Active; 'I' for Inactive)
REMARK    1  A    between atoms: O_1  and  C_14
REMARK    2  A    between atoms: O_1  and  C_16
REMARK    3  A    between atoms: C_19  and  C_23
REMARK    4  A    between atoms: C_20  and  C_25
REMARK                            x       y       z     vdW  Elec       q    Type
REMARK                         _______ _______ _______ _____ _____    ______ ____
ROOT
ATOM      1  O   UNL     1     103.198 126.291 147.954  0.00  0.00    +0.000 OA
ATOM      2  O   UNL     1     105.423 127.695 149.151  0.00  0.00    +0.000 OA
ATOM      3  O   UNL     1     103.002 129.159 148.425  0.00  0.00    +0.000 OA
ATOM      4  C   UNL     1     104.386 125.580 148.311  0.00  0.00    +0.000 C 
ATOM      5  C   UNL     1     103.623 125.585 147.995  0.00  0.00    +0.000 C 
ATOM      6  C   UNL     1     104.722 126.281 148.587  0.00  0.00    +0.000 C 
ATOM      7  C   UNL     1     104.298 126.987 148.546  0.00  0.00    +0.000 A 
ATOM      8  C   UNL     1     103.536 126.992 148.230  0.00  0.00    +0.000 A 
ATOM      9  C   UNL     1     104.660 127.710 148.836  0.00  0.00    +0.000 A 
ATOM     10  C   UNL     1     103.083 127.720 148.181  0.00  0.00    +0.000 A 
ATOM     11  C   UNL     1     104.223 128.448 148.796  0.00  0.00    +0.000 A 
ATOM     12  C   UNL     1     103.429 128.454 148.467  0.00  0.00    +0.000 A 
ENDROOT
BRANCH   5  16
ATOM     13  O   UNL     1     103.053 123.793 145.844  0.00  0.00    +0.000 OA
ATOM     14  O   UNL     1     102.175 123.172 148.492  0.00  0.00    +0.000 OA
ATOM     15  O   UNL     1     102.277 122.781 146.892  0.00  0.00    +0.000 OA
ATOM     16  C   UNL     1     103.287 124.884 147.720  0.00  0.00    +0.000 A 
ATOM     17  C   UNL     1     102.899 124.379 148.244  0.00  0.00    +0.000 A 
ATOM     18  C   UNL     1     103.338 124.689 146.919  0.00  0.00    +0.000 A 
ATOM     19  C   UNL     1     103.001 123.988 146.644  0.00  0.00    +0.000 A 
ATOM     20  C   UNL     1     102.563 123.678 147.968  0.00  0.00    +0.000 A 
ATOM     21  C   UNL     1     102.614 123.482 147.168  0.00  0.00    +0.000 A 
ENDBRANCH   5  16
BRANCH   4  22
ATOM     22  O   UNL     1     104.811 124.874 148.352  0.00  0.00    +0.000 OA
BRANCH  22  27
ATOM     23  O   UNL     1     105.959 125.163 147.552  0.00  0.00    +0.000 OA
ATOM     24  O   UNL     1     105.791 124.316 149.557  0.00  0.00    +0.000 OA
ATOM     25  O   UNL     1     107.429 124.326 149.358  0.00  0.00    +0.000 OA
ATOM     26  O   UNL     1     108.086 124.894 147.956  0.00  0.00    +0.000 OA
ATOM     27  C   UNL     1     105.629 124.879 148.253  0.00  0.00    +0.000 C 
ATOM     28  C   UNL     1     106.119 124.600 148.855  0.00  0.00    +0.000 C 
ATOM     29  C   UNL     1     106.939 124.605 148.756  0.00  0.00    +0.000 C 
ATOM     30  C   UNL     1     107.267 124.889 148.055  0.00  0.00    +0.000 C 
ATOM     31  C   UNL     1     106.777 125.168 147.453  0.00  0.00    +0.000 C 
BRANCH  31  34
ATOM     32  O   UNL     1     107.436 126.207 146.727  0.00  0.00    +0.000 OA
ATOM     33  O   UNL     1     107.104 124.980 146.075  0.00  0.00    +0.000 OA
ATOM     34  C   UNL     1     107.106 125.452 146.752  0.00  0.00    +0.000 C 
ENDBRANCH  31  34
ENDBRANCH  22  27
ENDBRANCH   4  22
TORSDOF 4
ENDMDL
MODEL 5
REMARK VINA RESULT:      -9.5      9.677     12.470
REMARK  Name = 101449862
REMARK  4 active torsions:
REMARK  status: ('A' for Active; 'I' for Inactive)
REMARK    1  A    between atoms: O_1  and  C_14
REMARK    2  A    between atoms: O_1  and  C_16
REMARK    3  A    between atoms: C_19  and  C_23
REMARK    4  A    between atoms: C_20  and  C_25
REMARK                            x       y       z     vdW  Elec       q    Type
REMARK                         _______ _______ _______ _____ _____    ______ ____
ROOT
ATOM      1  O   UNL     1     113.760 126.854 136.782  0.00  0.00    +0.000 OA
ATOM      2  O   UNL     1     112.104 124.505 136.473  0.00  0.00    +0.000 OA
ATOM      3  O   UNL     1     114.838 124.236 137.465  0.00  0.00    +0.000 OA
ATOM      4  C   UNL     1     112.421 126.980 136.297  0.00  0.00    +0.000 C 
ATOM      5  C   UNL     1     113.141 127.325 136.509  0.00  0.00    +0.000 C 
ATOM      6  C   UNL     1     112.323 126.163 136.357  0.00  0.00    +0.000 C 
ATOM      7  C   UNL     1     112.943 125.691 136.630  0.00  0.00    +0.000 A 
ATOM      8  C   UNL     1     113.660 126.037 136.842  0.00  0.00    +0.000 A 
ATOM      9  C   UNL     1     112.827 124.842 136.688  0.00  0.00    +0.000 A 
ATOM     10  C   UNL     1     114.314 125.557 137.127  0.00  0.00    +0.000 A 
ATOM     11  C   UNL     1     113.469 124.346 136.971  0.00  0.00    +0.000 A 
ATOM     12  C   UNL     1     114.217 124.705 137.192  0.00  0.00    +0.000 A 
ENDROOT
BRANCH   5  16
ATOM     13  O   UNL     1     113.761 129.633 134.942  0.00  0.00    +0.000 OA
ATOM     14  O   UNL     1     113.111 129.918 137.711  0.00  0.00    +0.000 OA
ATOM     15  O   UNL     1     113.535 130.593 136.265  0.00  0.00    +0.000 OA
ATOM     16  C   UNL     1     113.239 128.142 136.449  0.00  0.00    +0.000 A 
ATOM     17  C   UNL     1     113.126 128.622 137.111  0.00  0.00    +0.000 A 
ATOM     18  C   UNL     1     113.451 128.479 135.726  0.00  0.00    +0.000 A 
ATOM     19  C   UNL     1     113.549 129.296 135.665  0.00  0.00    +0.000 A 
ATOM     20  C   UNL     1     113.224 129.439 137.049  0.00  0.00    +0.000 A 
ATOM     21  C   UNL     1     113.436 129.776 136.327  0.00  0.00    +0.000 A 
ENDBRANCH   5  16
BRANCH   4  22
ATOM     22  O   UNL     1     111.802 127.451 136.024  0.00  0.00    +0.000 OA
BRANCH  22  27
ATOM     23  O   UNL     1     110.800 127.218 137.016  0.00  0.00    +0.000 OA
ATOM     24  O   UNL     1     110.691 127.172 134.836  0.00  0.00    +0.000 OA
ATOM     25  O   UNL     1     109.134 126.799 135.233  0.00  0.00    +0.000 OA
ATOM     26  O   UNL     1     108.688 126.705 136.818  0.00  0.00    +0.000 OA
ATOM     27  C   UNL     1     111.024 127.265 136.223  0.00  0.00    +0.000 C 
ATOM     28  C   UNL     1     110.469 127.125 135.629  0.00  0.00    +0.000 C 
ATOM     29  C   UNL     1     109.689 126.938 135.827  0.00  0.00    +0.000 C 
ATOM     30  C   UNL     1     109.466 126.892 136.620  0.00  0.00    +0.000 C 
ATOM     31  C   UNL     1     110.022 127.031 137.214  0.00  0.00    +0.000 C 
BRANCH  31  34
ATOM     32  O   UNL     1     109.779 126.253 138.388  0.00  0.00    +0.000 OA
ATOM     33  O   UNL     1     109.593 127.669 138.418  0.00  0.00    +0.000 OA
ATOM     34  C   UNL     1     109.798 126.984 138.006  0.00  0.00    +0.000 C 
ENDBRANCH  31  34
ENDBRANCH  22  27
ENDBRANCH   4  22
TORSDOF 4
ENDMDL
MODEL 6
REMARK VINA RESULT:      -9.5      9.153     11.923
REMARK  Name = 101449862
REMARK  4 active torsions:
REMARK  status: ('A' for Active; 'I' for Inactive)
REMARK    1  A    between atoms: O_1  and  C_14
REMARK    2  A    between atoms: O_1  and  C_16
REMARK    3  A    between atoms: C_19  and  C_23
REMARK    4  A    between atoms: C_20  and  C_25
REMARK                            x       y       z     vdW  Elec       q    Type
REMARK                         _______ _______ _______ _____ _____    ______ ____
ROOT
ATOM      1  O   UNL     1     113.430 127.336 136.711  0.00  0.00    +0.000 OA
ATOM      2  O   UNL     1     112.579 129.541 138.375  0.00  0.00    +0.000 OA
ATOM      3  O   UNL     1     113.665 130.062 135.714  0.00  0.00    +0.000 OA
ATOM      4  C   UNL     1     112.898 127.086 138.014  0.00  0.00    +0.000 C 
ATOM      5  C   UNL     1     113.216 126.806 137.305  0.00  0.00    +0.000 C 
ATOM      6  C   UNL     1     112.795 127.897 138.127  0.00  0.00    +0.000 C 
ATOM      7  C   UNL     1     113.010 128.427 137.533  0.00  0.00    +0.000 A 
ATOM      8  C   UNL     1     113.327 128.147 136.825  0.00  0.00    +0.000 A 
ATOM      9  C   UNL     1     112.898 129.269 137.663  0.00  0.00    +0.000 A 
ATOM     10  C   UNL     1     113.554 128.688 136.198  0.00  0.00    +0.000 A 
ATOM     11  C   UNL     1     113.119 129.826 137.048  0.00  0.00    +0.000 A 
ATOM     12  C   UNL     1     113.450 129.534 136.310  0.00  0.00    +0.000 A 
ENDROOT
BRANCH   5  16
ATOM     13  O   UNL     1     112.167 124.264 136.524  0.00  0.00    +0.000 OA
ATOM     14  O   UNL     1     114.877 124.482 137.407  0.00  0.00    +0.000 OA
ATOM     15  O   UNL     1     113.624 123.562 136.853  0.00  0.00    +0.000 OA
ATOM     16  C   UNL     1     113.318 125.995 137.192  0.00  0.00    +0.000 A 
ATOM     17  C   UNL     1     114.047 125.644 137.357  0.00  0.00    +0.000 A 
ATOM     18  C   UNL     1     112.692 125.535 136.915  0.00  0.00    +0.000 A 
ATOM     19  C   UNL     1     112.794 124.725 136.802  0.00  0.00    +0.000 A 
ATOM     20  C   UNL     1     114.148 124.833 137.243  0.00  0.00    +0.000 A 
ATOM     21  C   UNL     1     113.523 124.374 136.966  0.00  0.00    +0.000 A 
ENDBRANCH   5  16
BRANCH   4  22
ATOM     22  O   UNL     1     112.684 126.556 138.609  0.00  0.00    +0.000 OA
BRANCH  22  27
ATOM     23  O   UNL     1     113.523 127.001 139.676  0.00  0.00    +0.000 OA
ATOM     24  O   UNL     1     111.400 126.493 139.644  0.00  0.00    +0.000 OA
ATOM     25  O   UNL     1     111.598 126.906 141.229  0.00  0.00    +0.000 OA
ATOM     26  O   UNL     1     113.078 127.383 141.778  0.00  0.00    +0.000 OA
ATOM     27  C   UNL     1     112.783 126.762 139.400  0.00  0.00    +0.000 C 
ATOM     28  C   UNL     1     112.141 126.731 139.918  0.00  0.00    +0.000 C 
ATOM     29  C   UNL     1     112.240 126.938 140.711  0.00  0.00    +0.000 C 
ATOM     30  C   UNL     1     112.980 127.176 140.985  0.00  0.00    +0.000 C 
ATOM     31  C   UNL     1     113.622 127.208 140.468  0.00  0.00    +0.000 C 
BRANCH  31  34
ATOM     32  O   UNL     1     114.532 128.249 140.828  0.00  0.00    +0.000 OA
ATOM     33  O   UNL     1     114.932 126.881 140.933  0.00  0.00    +0.000 OA
ATOM     34  C   UNL     1     114.362 127.446 140.743  0.00  0.00    +0.000 C 
ENDBRANCH  31  34
ENDBRANCH  22  27
ENDBRANCH   4  22
TORSDOF 4
ENDMDL
MODEL 7
REMARK VINA RESULT:      -9.4     10.203     12.089
REMARK  Name = 101449862
REMARK  4 active torsions:
REMARK  status: ('A' for Active; 'I' for Inactive)
REMARK    1  A    between atoms: O_1  and  C_14
REMARK    2  A    between atoms: O_1  and  C_16
REMARK    3  A    between atoms: C_19  and  C_23
REMARK    4  A    between atoms: C_20  and  C_25
REMARK                            x       y       z     vdW  Elec       q    Type
REMARK                         _______ _______ _______ _____ _____    ______ ____
ROOT
ATOM      1  O   UNL     1     112.942 127.252 136.280  0.00  0.00    +0.000 OA
ATOM      2  O   UNL     1     112.083 129.700 135.007  0.00  0.00    +0.000 OA
ATOM      3  O   UNL     1     114.933 129.161 135.347  0.00  0.00    +0.000 OA
ATOM      4  C   UNL     1     111.548 127.521 136.111  0.00  0.00    +0.000 C 
ATOM      5  C   UNL     1     112.154 127.028 136.378  0.00  0.00    +0.000 C 
ATOM      6  C   UNL     1     111.731 128.238 135.748  0.00  0.00    +0.000 C 
ATOM      7  C   UNL     1     112.519 128.463 135.650  0.00  0.00    +0.000 A 
ATOM      8  C   UNL     1     113.124 127.970 135.916  0.00  0.00    +0.000 A 
ATOM      9  C   UNL     1     112.695 129.213 135.270  0.00  0.00    +0.000 A 
ATOM     10  C   UNL     1     113.948 128.193 135.821  0.00  0.00    +0.000 A 
ATOM     11  C   UNL     1     113.514 129.452 135.166  0.00  0.00    +0.000 A 
ATOM     12  C   UNL     1     114.145 128.939 135.443  0.00  0.00    +0.000 A 
ENDROOT
BRANCH   5  16
ATOM     13  O   UNL     1     111.717 125.498 138.752  0.00  0.00    +0.000 OA
ATOM     14  O   UNL     1     111.494 124.253 136.189  0.00  0.00    +0.000 OA
ATOM     15  O   UNL     1     111.423 124.158 137.835  0.00  0.00    +0.000 OA
ATOM     16  C   UNL     1     111.971 126.310 136.741  0.00  0.00    +0.000 A 
ATOM     17  C   UNL     1     111.824 125.640 136.283  0.00  0.00    +0.000 A 
ATOM     18  C   UNL     1     111.936 126.263 137.565  0.00  0.00    +0.000 A 
ATOM     19  C   UNL     1     111.753 125.545 137.929  0.00  0.00    +0.000 A 
ATOM     20  C   UNL     1     111.641 124.923 136.648  0.00  0.00    +0.000 A 
ATOM     21  C   UNL     1     111.606 124.876 137.470  0.00  0.00    +0.000 A 
ENDBRANCH   5  16
BRANCH   4  22
ATOM     22  O   UNL     1     110.760 127.296 136.209  0.00  0.00    +0.000 OA
BRANCH  22  27
ATOM     23  O   UNL     1     110.247 128.331 137.050  0.00  0.00    +0.000 OA
ATOM     24  O   UNL     1     109.489 127.504 135.178  0.00  0.00    +0.000 OA
ATOM     25  O   UNL     1     108.341 128.644 135.503  0.00  0.00    +0.000 OA
ATOM     26  O   UNL     1     108.463 129.574 136.859  0.00  0.00    +0.000 OA
ATOM     27  C   UNL     1     110.187 127.865 136.372  0.00  0.00    +0.000 C 
ATOM     28  C   UNL     1     109.551 127.969 135.856  0.00  0.00    +0.000 C 
ATOM     29  C   UNL     1     108.976 128.539 136.019  0.00  0.00    +0.000 C 
ATOM     30  C   UNL     1     109.038 129.004 136.697  0.00  0.00    +0.000 C 
ATOM     31  C   UNL     1     109.673 128.900 137.213  0.00  0.00    +0.000 C 
BRANCH  31  34
ATOM     32  O   UNL     1     110.112 130.098 137.856  0.00  0.00    +0.000 OA
ATOM     33  O   UNL     1     109.417 129.098 138.604  0.00  0.00    +0.000 OA
ATOM     34  C   UNL     1     109.734 129.366 137.891  0.00  0.00    +0.000 C 
ENDBRANCH  31  34
ENDBRANCH  22  27
ENDBRANCH   4  22
TORSDOF 4
ENDMDL
MODEL 8
REMARK VINA RESULT:      -9.4      1.250      3.477
REMARK  Name = 101449862
REMARK  4 active torsions:
REMARK  status: ('A' for Active; 'I' for Inactive)
REMARK    1  A    between atoms: O_1  and  C_14
REMARK    2  A    between atoms: O_1  and  C_16
REMARK    3  A    between atoms: C_19  and  C_23
REMARK    4  A    between atoms: C_20  and  C_25
REMARK                            x       y       z     vdW  Elec       q    Type
REMARK                         _______ _______ _______ _____ _____    ______ ____
ROOT
ATOM      1  O   UNL     1     106.793 125.187 146.961  0.00  0.00    +0.000 OA
ATOM      2  O   UNL     1     105.704 124.220 149.457  0.00  0.00    +0.000 OA
ATOM      3  O   UNL     1     108.585 124.614 149.184  0.00  0.00    +0.000 OA
ATOM      4  C   UNL     1     105.384 124.992 147.100  0.00  0.00    +0.000 C 
ATOM      5  C   UNL     1     106.033 125.217 146.641  0.00  0.00    +0.000 C 
ATOM      6  C   UNL     1     105.496 124.739 147.876  0.00  0.00    +0.000 C 
ATOM      7  C   UNL     1     106.256 124.709 148.196  0.00  0.00    +0.000 A 
ATOM      8  C   UNL     1     106.904 124.933 147.738  0.00  0.00    +0.000 A 
ATOM      9  C   UNL     1     106.359 124.442 149.006  0.00  0.00    +0.000 A 
ATOM     10  C   UNL     1     107.701 124.906 148.058  0.00  0.00    +0.000 A 
ATOM     11  C   UNL     1     107.148 124.409 149.344  0.00  0.00    +0.000 A 
ATOM     12  C   UNL     1     107.824 124.643 148.867  0.00  0.00    +0.000 A 
ENDROOT
BRANCH   5  16
ATOM     13  O   UNL     1     105.737 124.620 143.862  0.00  0.00    +0.000 OA
ATOM     14  O   UNL     1     105.656 127.332 144.758  0.00  0.00    +0.000 OA
ATOM     15  O   UNL     1     105.585 126.229 143.533  0.00  0.00    +0.000 OA
ATOM     16  C   UNL     1     105.921 125.470 145.865  0.00  0.00    +0.000 A 
ATOM     17  C   UNL     1     105.845 126.275 145.700  0.00  0.00    +0.000 A 
ATOM     18  C   UNL     1     105.885 124.918 145.252  0.00  0.00    +0.000 A 
ATOM     19  C   UNL     1     105.773 125.172 144.475  0.00  0.00    +0.000 A 
ATOM     20  C   UNL     1     105.733 126.528 144.922  0.00  0.00    +0.000 A 
ATOM     21  C   UNL     1     105.697 125.977 144.310  0.00  0.00    +0.000 A 
ENDBRANCH   5  16
BRANCH   4  22
ATOM     22  O   UNL     1     104.623 125.022 146.780  0.00  0.00    +0.000 OA
BRANCH  22  27
ATOM     23  O   UNL     1     103.985 125.939 147.672  0.00  0.00    +0.000 OA
ATOM     24  O   UNL     1     103.337 123.997 146.913  0.00  0.00    +0.000 OA
ATOM     25  O   UNL     1     102.056 124.401 147.871  0.00  0.00    +0.000 OA
ATOM     26  O   UNL     1     102.061 125.829 148.695  0.00  0.00    +0.000 OA
ATOM     27  C   UNL     1     103.983 125.224 147.259  0.00  0.00    +0.000 C 
ATOM     28  C   UNL     1     103.340 124.711 147.325  0.00  0.00    +0.000 C 
ATOM     29  C   UNL     1     102.699 124.913 147.804  0.00  0.00    +0.000 C 
ATOM     30  C   UNL     1     102.702 125.628 148.217  0.00  0.00    +0.000 C 
ATOM     31  C   UNL     1     103.345 126.140 148.150  0.00  0.00    +0.000 C 
BRANCH  31  34
ATOM     32  O   UNL     1     103.173 127.559 148.170  0.00  0.00    +0.000 OA
ATOM     33  O   UNL     1     103.522 126.864 149.369  0.00  0.00    +0.000 OA
ATOM     34  C   UNL     1     103.347 126.854 148.563  0.00  0.00    +0.000 C 
ENDBRANCH  31  34
ENDBRANCH  22  27
ENDBRANCH   4  22
TORSDOF 4
ENDMDL
MODEL 9
REMARK VINA RESULT:      -9.3      9.980     12.453
REMARK  Name = 101449862
REMARK  4 active torsions:
REMARK  status: ('A' for Active; 'I' for Inactive)
REMARK    1  A    between atoms: O_1  and  C_14
REMARK    2  A    between atoms: O_1  and  C_16
REMARK    3  A    between atoms: C_19  and  C_23
REMARK    4  A    between atoms: C_20  and  C_25
REMARK                            x       y       z     vdW  Elec       q    Type
REMARK                         _______ _______ _______ _____ _____    ______ ____
ROOT
ATOM      1  O   UNL     1     113.126 128.503 138.215  0.00  0.00    +0.000 OA
ATOM      2  O   UNL     1     112.487 126.136 139.747  0.00  0.00    +0.000 OA
ATOM      3  O   UNL     1     113.432 128.540 141.111  0.00  0.00    +0.000 OA
ATOM      4  C   UNL     1     112.663 127.324 137.552  0.00  0.00    +0.000 C 
ATOM      5  C   UNL     1     112.923 128.107 137.521  0.00  0.00    +0.000 C 
ATOM      6  C   UNL     1     112.607 126.938 138.279  0.00  0.00    +0.000 C 
ATOM      7  C   UNL     1     112.811 127.334 138.974  0.00  0.00    +0.000 A 
ATOM      8  C   UNL     1     113.070 128.115 138.942  0.00  0.00    +0.000 A 
ATOM      9  C   UNL     1     112.748 126.919 139.724  0.00  0.00    +0.000 A 
ATOM     10  C   UNL     1     113.284 128.539 139.658  0.00  0.00    +0.000 A 
ATOM     11  C   UNL     1     112.958 127.327 140.451  0.00  0.00    +0.000 A 
ATOM     12  C   UNL     1     113.228 128.142 140.418  0.00  0.00    +0.000 A 
ENDROOT
BRANCH   5  16
ATOM     13  O   UNL     1     111.697 129.588 135.405  0.00  0.00    +0.000 OA
ATOM     14  O   UNL     1     114.479 128.945 135.275  0.00  0.00    +0.000 OA
ATOM     15  O   UNL     1     113.143 129.653 134.613  0.00  0.00    +0.000 OA
ATOM     16  C   UNL     1     112.978 128.493 136.794  0.00  0.00    +0.000 A 
ATOM     17  C   UNL     1     113.701 128.526 136.398  0.00  0.00    +0.000 A 
ATOM     18  C   UNL     1     112.310 128.847 136.463  0.00  0.00    +0.000 A 
ATOM     19  C   UNL     1     112.366 129.234 135.736  0.00  0.00    +0.000 A 
ATOM     20  C   UNL     1     113.756 128.913 135.671  0.00  0.00    +0.000 A 
ATOM     21  C   UNL     1     113.089 129.266 135.340  0.00  0.00    +0.000 A 
ENDBRANCH   5  16
BRANCH   4  22
ATOM     22  O   UNL     1     112.460 126.928 136.858  0.00  0.00    +0.000 OA
BRANCH  22  27
ATOM     23  O   UNL     1     113.444 125.892 136.841  0.00  0.00    +0.000 OA
ATOM     24  O   UNL     1     111.288 125.820 136.509  0.00  0.00    +0.000 OA
ATOM     25  O   UNL     1     111.686 124.230 136.319  0.00  0.00    +0.000 OA
ATOM     26  O   UNL     1     113.255 123.749 136.477  0.00  0.00    +0.000 OA
ATOM     27  C   UNL     1     112.659 126.134 136.762  0.00  0.00    +0.000 C 
ATOM     28  C   UNL     1     112.073 125.580 136.588  0.00  0.00    +0.000 C 
ATOM     29  C   UNL     1     112.272 124.784 136.493  0.00  0.00    +0.000 C 
ATOM     30  C   UNL     1     113.057 124.544 136.572  0.00  0.00    +0.000 C 
ATOM     31  C   UNL     1     113.643 125.098 136.746  0.00  0.00    +0.000 C 
BRANCH  31  34
ATOM     32  O   UNL     1     114.676 124.480 137.516  0.00  0.00    +0.000 OA
ATOM     33  O   UNL     1     114.964 124.993 136.213  0.00  0.00    +0.000 OA
ATOM     34  C   UNL     1     114.427 124.857 136.825  0.00  0.00    +0.000 C 
ENDBRANCH  31  34
ENDBRANCH  22  27
ENDBRANCH   4  22
TORSDOF 4
ENDMDL
MODEL 10
REMARK VINA RESULT:      -9.3     10.847     12.372
REMARK  Name = 101449862
REMARK  4 active torsions:
REMARK  status: ('A' for Active; 'I' for Inactive)
REMARK    1  A    between atoms: O_1  and  C_14
REMARK    2  A    between atoms: O_1  and  C_16
REMARK    3  A    between atoms: C_19  and  C_23
REMARK    4  A    between atoms: C_20  and  C_25
REMARK                            x       y       z     vdW  Elec       q    Type
REMARK                         _______ _______ _______ _____ _____    ______ ____
ROOT
ATOM      1  O   UNL     1     111.765 129.322 136.009  0.00  0.00    +0.000 OA
ATOM      2  O   UNL     1     113.442 131.106 137.545  0.00  0.00    +0.000 OA
ATOM      3  O   UNL     1     114.619 129.451 135.445  0.00  0.00    +0.000 OA
ATOM      4  C   UNL     1     111.194 130.134 137.038  0.00  0.00    +0.000 C 
ATOM      5  C   UNL     1     111.107 129.570 136.442  0.00  0.00    +0.000 C 
ATOM      6  C   UNL     1     111.938 130.451 137.200  0.00  0.00    +0.000 C 
ATOM      7  C   UNL     1     112.595 130.204 136.768  0.00  0.00    +0.000 A 
ATOM      8  C   UNL     1     112.509 129.640 136.172  0.00  0.00    +0.000 A 
ATOM      9  C   UNL     1     113.365 130.542 136.947  0.00  0.00    +0.000 A 
ATOM     10  C   UNL     1     113.185 129.374 135.714  0.00  0.00    +0.000 A 
ATOM     11  C   UNL     1     114.053 130.288 136.500  0.00  0.00    +0.000 A 
ATOM     12  C   UNL     1     113.963 129.700 135.879  0.00  0.00    +0.000 A 
ENDROOT
BRANCH   5  16
ATOM     13  O   UNL     1     109.059 127.655 136.995  0.00  0.00    +0.000 OA
ATOM     14  O   UNL     1     108.691 129.581 134.916  0.00  0.00    +0.000 OA
ATOM     15  O   UNL     1     108.131 128.301 135.794  0.00  0.00    +0.000 OA
ATOM     16  C   UNL     1     110.363 129.253 136.279  0.00  0.00    +0.000 A 
ATOM     17  C   UNL     1     109.899 129.576 135.678  0.00  0.00    +0.000 A 
ATOM     18  C   UNL     1     110.083 128.612 136.718  0.00  0.00    +0.000 A 
ATOM     19  C   UNL     1     109.339 128.296 136.556  0.00  0.00    +0.000 A 
ATOM     20  C   UNL     1     109.155 129.258 135.517  0.00  0.00    +0.000 A 
ATOM     21  C   UNL     1     108.875 128.619 135.955  0.00  0.00    +0.000 A 
ENDBRANCH   5  16
BRANCH   4  22
ATOM     22  O   UNL     1     110.536 130.381 137.471  0.00  0.00    +0.000 OA
BRANCH  22  27
ATOM     23  O   UNL     1     110.470 131.753 137.073  0.00  0.00    +0.000 OA
ATOM     24  O   UNL     1     110.309 130.826 139.043  0.00  0.00    +0.000 OA
ATOM     25  O   UNL     1     110.129 132.419 139.432  0.00  0.00    +0.000 OA
ATOM     26  O   UNL     1     110.177 133.567 138.249  0.00  0.00    +0.000 OA
ATOM     27  C   UNL     1     110.446 131.177 137.665  0.00  0.00    +0.000 C 
ATOM     28  C   UNL     1     110.333 131.400 138.451  0.00  0.00    +0.000 C 
ATOM     29  C   UNL     1     110.243 132.197 138.646  0.00  0.00    +0.000 C 
ATOM     30  C   UNL     1     110.267 132.771 138.054  0.00  0.00    +0.000 C 
ATOM     31  C   UNL     1     110.380 132.549 137.268  0.00  0.00    +0.000 C 
BRANCH  31  34
ATOM     32  O   UNL     1     111.053 133.628 136.617  0.00  0.00    +0.000 OA
ATOM     33  O   UNL     1     109.777 133.192 136.144  0.00  0.00    +0.000 OA
ATOM     34  C   UNL     1     110.404 133.123 136.677  0.00  0.00    +0.000 C 
ENDBRANCH  31  34
ENDBRANCH  22  27
ENDBRANCH   4  22
TORSDOF 4
ENDMDL
