MODEL 1
REMARK VINA RESULT:      -9.3      0.000      0.000
REMARK  Name = 44259831
REMARK  11 active torsions:
REMARK  status: ('A' for Active; 'I' for Inactive)
REMARK    1  A    between atoms: O_1  and  C_18
REMARK    2  A    between atoms: O_1  and  C_21
REMARK    3  A    between atoms: O_5  and  C_27
REMARK    4  A    between atoms: O_5  and  C_30
REMARK    5  A    between atoms: O_11  and  C_32
REMARK    6  A    between atoms: O_13  and  C_34
REMARK    7  A    between atoms: O_15  and  C_37
REMARK    8  A    between atoms: O_16  and  C_45
REMARK    9  A    between atoms: O_17  and  C_47
REMARK   10  A    between atoms: C_26  and  C_29
REMARK   11  A    between atoms: C_38  and  C_39
REMARK                            x       y       z     vdW  Elec       q    Type
REMARK                         _______ _______ _______ _____ _____    ______ ____
ROOT
ATOM      1  O   UNL     1     113.129 127.198 138.609  0.00  0.00    +0.000 OA
ATOM      2  O   UNL     1     112.692 128.978 136.946  0.00  0.00    +0.000 OA
ATOM      3  C   UNL     1     113.122 129.414 138.484  0.00  0.00    +0.000 A 
ATOM      4  C   UNL     1     113.053 128.585 138.271  0.00  0.00    +0.000 A 
ATOM      5  C   UNL     1     113.345 129.629 139.285  0.00  0.00    +0.000 A 
ATOM      6  C   UNL     1     113.198 127.991 138.825  0.00  0.00    +0.000 A 
ATOM      7  C   UNL     1     113.497 129.011 139.863  0.00  0.00    +0.000 A 
ATOM      8  C   UNL     1     112.838 128.385 137.500  0.00  0.00    +0.000 A 
ATOM      9  C   UNL     1     113.423 128.187 139.632  0.00  0.00    +0.000 A 
ATOM     10  C   UNL     1     112.768 127.592 137.284  0.00  0.00    +0.000 A 
ATOM     11  C   UNL     1     112.914 126.999 137.837  0.00  0.00    +0.000 A 
ENDROOT
BRANCH  11  12
ATOM     12  C   UNL     1     112.844 126.205 137.621  0.00  0.00    +0.000 A 
ATOM     13  C   UNL     1     113.519 125.768 137.439  0.00  0.00    +0.000 A 
ATOM     14  C   UNL     1     112.100 125.850 137.588  0.00  0.00    +0.000 A 
ATOM     15  C   UNL     1     113.451 124.975 137.222  0.00  0.00    +0.000 A 
ATOM     16  C   UNL     1     112.032 125.056 137.372  0.00  0.00    +0.000 A 
ATOM     17  C   UNL     1     112.707 124.619 137.189  0.00  0.00    +0.000 A 
BRANCH  15  18
ATOM     18  O   UNL     1     114.126 124.537 137.040  0.00  0.00    +0.000 OA
ATOM     19  C   UNL     1     114.873 124.837 137.219  0.00  0.00    +0.000 C 
ENDBRANCH  15  18
BRANCH  17  20
ATOM     20  O   UNL     1     112.639 123.826 136.973  0.00  0.00    +0.000 OA
ATOM     21  C   UNL     1     111.900 123.458 136.983  0.00  0.00    +0.000 C 
ENDBRANCH  17  20
ENDBRANCH  11  12
BRANCH   5  22
ATOM     22  O   UNL     1     113.414 130.423 139.499  0.00  0.00    +0.000 OA
ATOM     23  C   UNL     1     114.134 130.714 139.778  0.00  0.00    +0.000 C 
ENDBRANCH   5  22
BRANCH   7  24
ATOM     24  O   UNL     1     113.713 129.207 140.635  0.00  0.00    +0.000 OA
ATOM     25  C   UNL     1     113.577 128.675 141.250  0.00  0.00    +0.000 C 
ENDBRANCH   7  24
BRANCH  10  26
ATOM     26  O   UNL     1     112.553 127.393 136.512  0.00  0.00    +0.000 OA
ATOM     27  C   UNL     1     112.783 127.872 135.882  0.00  0.00    +0.000 C 
ENDBRANCH  10  26
BRANCH   3  28
ATOM     28  O   UNL     1     112.974 130.001 137.923  0.00  0.00    +0.000 OA
BRANCH  28  36
ATOM     29  O   UNL     1     111.617 130.095 138.358  0.00  0.00    +0.000 OA
ATOM     30  O   UNL     1     111.318 132.133 136.986  0.00  0.00    +0.000 OA
ATOM     31  O   UNL     1     112.775 131.360 137.009  0.00  0.00    +0.000 OA
ATOM     32  C   UNL     1     110.788 131.161 137.890  0.00  0.00    +0.000 C 
ATOM     33  C   UNL     1     111.418 131.454 137.443  0.00  0.00    +0.000 C 
ATOM     34  C   UNL     1     110.888 130.482 138.347  0.00  0.00    +0.000 C 
ATOM     35  C   UNL     1     112.147 131.067 137.454  0.00  0.00    +0.000 C 
ATOM     36  C   UNL     1     112.245 130.388 137.912  0.00  0.00    +0.000 C 
ATOM     37  C   UNL     1     110.258 130.189 138.793  0.00  0.00    +0.000 C 
BRANCH  32  38
ATOM     38  O   UNL     1     110.059 131.548 137.878  0.00  0.00    +0.000 OA
BRANCH  38  43
ATOM     39  O   UNL     1     109.643 130.731 136.782  0.00  0.00    +0.000 OA
ATOM     40  O   UNL     1     108.590 132.298 137.878  0.00  0.00    +0.000 OA
ATOM     41  O   UNL     1     107.438 131.856 136.781  0.00  0.00    +0.000 OA
ATOM     42  O   UNL     1     107.757 130.665 135.686  0.00  0.00    +0.000 OA
ATOM     43  C   UNL     1     109.484 131.327 137.330  0.00  0.00    +0.000 C 
ATOM     44  C   UNL     1     108.749 131.702 137.330  0.00  0.00    +0.000 C 
ATOM     45  C   UNL     1     108.173 131.481 136.781  0.00  0.00    +0.000 C 
ATOM     46  C   UNL     1     108.333 130.885 136.234  0.00  0.00    +0.000 C 
ATOM     47  C   UNL     1     109.068 130.510 136.234  0.00  0.00    +0.000 C 
BRANCH  47  49
ATOM     48  O   UNL     1     109.746 130.056 135.061  0.00  0.00    +0.000 OA
ATOM     49  C   UNL     1     109.226 129.915 135.687  0.00  0.00    +0.000 C 
ENDBRANCH  47  49
ENDBRANCH  38  43
ENDBRANCH  32  38
ENDBRANCH  28  36
ENDBRANCH   3  28
TORSDOF 11
ENDMDL
MODEL 2
REMARK VINA RESULT:      -9.1      1.534      2.625
REMARK  Name = 44259831
REMARK  11 active torsions:
REMARK  status: ('A' for Active; 'I' for Inactive)
REMARK    1  A    between atoms: O_1  and  C_18
REMARK    2  A    between atoms: O_1  and  C_21
REMARK    3  A    between atoms: O_5  and  C_27
REMARK    4  A    between atoms: O_5  and  C_30
REMARK    5  A    between atoms: O_11  and  C_32
REMARK    6  A    between atoms: O_13  and  C_34
REMARK    7  A    between atoms: O_15  and  C_37
REMARK    8  A    between atoms: O_16  and  C_45
REMARK    9  A    between atoms: O_17  and  C_47
REMARK   10  A    between atoms: C_26  and  C_29
REMARK   11  A    between atoms: C_38  and  C_39
REMARK                            x       y       z     vdW  Elec       q    Type
REMARK                         _______ _______ _______ _____ _____    ______ ____
ROOT
ATOM      1  O   UNL     1     113.246 127.225 136.539  0.00  0.00    +0.000 OA
ATOM      2  O   UNL     1     112.778 128.306 138.716  0.00  0.00    +0.000 OA
ATOM      3  C   UNL     1     113.238 129.254 137.439  0.00  0.00    +0.000 A 
ATOM      4  C   UNL     1     113.164 128.404 137.343  0.00  0.00    +0.000 A 
ATOM      5  C   UNL     1     113.477 129.737 136.769  0.00  0.00    +0.000 A 
ATOM      6  C   UNL     1     113.320 128.043 136.618  0.00  0.00    +0.000 A 
ATOM      7  C   UNL     1     113.639 129.362 136.013  0.00  0.00    +0.000 A 
ATOM      8  C   UNL     1     112.934 127.946 137.991  0.00  0.00    +0.000 A 
ATOM      9  C   UNL     1     113.561 128.510 135.937  0.00  0.00    +0.000 A 
ATOM     10  C   UNL     1     112.860 127.128 137.911  0.00  0.00    +0.000 A 
ATOM     11  C   UNL     1     113.016 126.768 137.186  0.00  0.00    +0.000 A 
ENDROOT
BRANCH  11  12
ATOM     12  C   UNL     1     112.942 125.950 137.106  0.00  0.00    +0.000 A 
ATOM     13  C   UNL     1     113.609 125.469 137.163  0.00  0.00    +0.000 A 
ATOM     14  C   UNL     1     112.201 125.613 136.970  0.00  0.00    +0.000 A 
ATOM     15  C   UNL     1     113.536 124.651 137.084  0.00  0.00    +0.000 A 
ATOM     16  C   UNL     1     112.128 124.795 136.891  0.00  0.00    +0.000 A 
ATOM     17  C   UNL     1     112.795 124.314 136.947  0.00  0.00    +0.000 A 
BRANCH  15  18
ATOM     18  O   UNL     1     114.204 124.169 137.140  0.00  0.00    +0.000 OA
ATOM     19  C   UNL     1     114.946 124.506 137.268  0.00  0.00    +0.000 C 
ENDBRANCH  15  18
BRANCH  17  20
ATOM     20  O   UNL     1     112.722 123.496 136.868  0.00  0.00    +0.000 OA
ATOM     21  C   UNL     1     111.974 123.147 136.871  0.00  0.00    +0.000 C 
ENDBRANCH  17  20
ENDBRANCH  11  12
BRANCH   5  22
ATOM     22  O   UNL     1     113.550 130.554 136.851  0.00  0.00    +0.000 OA
ATOM     23  C   UNL     1     114.272 130.922 136.694  0.00  0.00    +0.000 C 
ENDBRANCH   5  22
BRANCH   7  24
ATOM     24  O   UNL     1     113.870 129.817 135.364  0.00  0.00    +0.000 OA
ATOM     25  C   UNL     1     113.896 129.480 134.612  0.00  0.00    +0.000 C 
ENDBRANCH   7  24
BRANCH  10  26
ATOM     26  O   UNL     1     112.630 126.671 138.559  0.00  0.00    +0.000 OA
ATOM     27  C   UNL     1     112.845 126.897 139.321  0.00  0.00    +0.000 C 
ENDBRANCH  10  26
BRANCH   3  28
ATOM     28  O   UNL     1     113.080 129.606 138.168  0.00  0.00    +0.000 OA
BRANCH  28  36
ATOM     29  O   UNL     1     111.723 129.829 137.782  0.00  0.00    +0.000 OA
ATOM     30  O   UNL     1     111.385 131.243 139.785  0.00  0.00    +0.000 OA
ATOM     31  O   UNL     1     112.855 130.549 139.503  0.00  0.00    +0.000 OA
ATOM     32  C   UNL     1     110.875 130.648 138.590  0.00  0.00    +0.000 C 
ATOM     33  C   UNL     1     111.498 130.772 139.117  0.00  0.00    +0.000 C 
ATOM     34  C   UNL     1     110.988 130.177 137.922  0.00  0.00    +0.000 C 
ATOM     35  C   UNL     1     112.233 130.425 138.977  0.00  0.00    +0.000 C 
ATOM     36  C   UNL     1     112.345 129.954 138.309  0.00  0.00    +0.000 C 
ATOM     37  C   UNL     1     110.365 130.053 137.395  0.00  0.00    +0.000 C 
BRANCH  32  38
ATOM     38  O   UNL     1     110.140 130.995 138.730  0.00  0.00    +0.000 OA
BRANCH  38  43
ATOM     39  O   UNL     1     109.749 129.865 139.513  0.00  0.00    +0.000 OA
ATOM     40  O   UNL     1     108.753 131.776 139.166  0.00  0.00    +0.000 OA
ATOM     41  O   UNL     1     107.669 131.036 140.166  0.00  0.00    +0.000 OA
ATOM     42  O   UNL     1     107.972 129.516 140.730  0.00  0.00    +0.000 OA
ATOM     43  C   UNL     1     109.598 130.625 139.230  0.00  0.00    +0.000 C 
ATOM     44  C   UNL     1     108.905 131.016 139.448  0.00  0.00    +0.000 C 
ATOM     45  C   UNL     1     108.362 130.646 139.948  0.00  0.00    +0.000 C 
ATOM     46  C   UNL     1     108.514 129.885 140.230  0.00  0.00    +0.000 C 
ATOM     47  C   UNL     1     109.208 129.495 140.012  0.00  0.00    +0.000 C 
BRANCH  47  49
ATOM     48  O   UNL     1     109.270 128.084 139.796  0.00  0.00    +0.000 OA
ATOM     49  C   UNL     1     109.359 128.735 140.294  0.00  0.00    +0.000 C 
ENDBRANCH  47  49
ENDBRANCH  38  43
ENDBRANCH  32  38
ENDBRANCH  28  36
ENDBRANCH   3  28
TORSDOF 11
ENDMDL
MODEL 3
REMARK VINA RESULT:      -8.9      2.509      5.048
REMARK  Name = 44259831
REMARK  11 active torsions:
REMARK  status: ('A' for Active; 'I' for Inactive)
REMARK    1  A    between atoms: O_1  and  C_18
REMARK    2  A    between atoms: O_1  and  C_21
REMARK    3  A    between atoms: O_5  and  C_27
REMARK    4  A    between atoms: O_5  and  C_30
REMARK    5  A    between atoms: O_11  and  C_32
REMARK    6  A    between atoms: O_13  and  C_34
REMARK    7  A    between atoms: O_15  and  C_37
REMARK    8  A    between atoms: O_16  and  C_45
REMARK    9  A    between atoms: O_17  and  C_47
REMARK   10  A    between atoms: C_26  and  C_29
REMARK   11  A    between atoms: C_38  and  C_39
REMARK                            x       y       z     vdW  Elec       q    Type
REMARK                         _______ _______ _______ _____ _____    ______ ____
ROOT
ATOM      1  O   UNL     1     113.706 127.559 136.484  0.00  0.00    +0.000 OA
ATOM      2  O   UNL     1     111.253 127.636 136.798  0.00  0.00    +0.000 OA
ATOM      3  C   UNL     1     112.037 126.193 137.007  0.00  0.00    +0.000 A 
ATOM      4  C   UNL     1     112.477 126.899 136.793  0.00  0.00    +0.000 A 
ATOM      5  C   UNL     1     112.455 125.449 137.112  0.00  0.00    +0.000 A 
ATOM      6  C   UNL     1     113.295 126.874 136.688  0.00  0.00    +0.000 A 
ATOM      7  C   UNL     1     113.307 125.422 137.003  0.00  0.00    +0.000 A 
ATOM      8  C   UNL     1     112.070 127.610 136.694  0.00  0.00    +0.000 A 
ATOM      9  C   UNL     1     113.730 126.139 136.790  0.00  0.00    +0.000 A 
ATOM     10  C   UNL     1     112.481 128.295 136.489  0.00  0.00    +0.000 A 
ATOM     11  C   UNL     1     113.299 128.270 136.384  0.00  0.00    +0.000 A 
ENDROOT
BRANCH  11  12
ATOM     12  C   UNL     1     113.710 128.955 136.179  0.00  0.00    +0.000 A 
ATOM     13  C   UNL     1     113.928 129.495 136.763  0.00  0.00    +0.000 A 
ATOM     14  C   UNL     1     113.905 129.100 135.390  0.00  0.00    +0.000 A 
ATOM     15  C   UNL     1     114.340 130.180 136.559  0.00  0.00    +0.000 A 
ATOM     16  C   UNL     1     114.316 129.785 135.186  0.00  0.00    +0.000 A 
ATOM     17  C   UNL     1     114.534 130.325 135.770  0.00  0.00    +0.000 A 
BRANCH  15  18
ATOM     18  O   UNL     1     114.557 130.720 137.143  0.00  0.00    +0.000 OA
ATOM     19  C   UNL     1     114.259 130.643 137.909  0.00  0.00    +0.000 C 
ENDBRANCH  15  18
BRANCH  17  20
ATOM     20  O   UNL     1     114.945 131.011 135.566  0.00  0.00    +0.000 OA
ATOM     21  C   UNL     1     115.309 131.069 134.827  0.00  0.00    +0.000 C 
ENDBRANCH  17  20
ENDBRANCH  11  12
BRANCH   5  22
ATOM     22  O   UNL     1     112.041 124.765 137.317  0.00  0.00    +0.000 OA
ATOM     23  C   UNL     1     112.062 124.106 136.821  0.00  0.00    +0.000 C 
ENDBRANCH   5  22
BRANCH   7  24
ATOM     24  O   UNL     1     113.717 124.713 137.102  0.00  0.00    +0.000 OA
ATOM     25  C   UNL     1     114.522 124.723 137.279  0.00  0.00    +0.000 C 
ENDBRANCH   7  24
BRANCH  10  26
ATOM     26  O   UNL     1     112.074 129.006 136.389  0.00  0.00    +0.000 OA
ATOM     27  C   UNL     1     111.312 129.004 136.075  0.00  0.00    +0.000 C 
ENDBRANCH  10  26
BRANCH   3  28
ATOM     28  O   UNL     1     111.220 126.227 137.110  0.00  0.00    +0.000 OA
BRANCH  28  36
ATOM     29  O   UNL     1     111.393 126.360 138.521  0.00  0.00    +0.000 OA
ATOM     30  O   UNL     1     108.953 126.101 138.846  0.00  0.00    +0.000 OA
ATOM     31  O   UNL     1     109.593 126.054 137.326  0.00  0.00    +0.000 OA
ATOM     32  C   UNL     1     110.260 126.297 139.390  0.00  0.00    +0.000 C 
ATOM     33  C   UNL     1     109.766 126.187 138.737  0.00  0.00    +0.000 C 
ATOM     34  C   UNL     1     111.073 126.383 139.281  0.00  0.00    +0.000 C 
ATOM     35  C   UNL     1     110.086 126.164 137.977  0.00  0.00    +0.000 C 
ATOM     36  C   UNL     1     110.900 126.250 137.870  0.00  0.00    +0.000 C 
ATOM     37  C   UNL     1     111.567 126.493 139.934  0.00  0.00    +0.000 C 
BRANCH  32  38
ATOM     38  O   UNL     1     109.940 126.321 140.150  0.00  0.00    +0.000 OA
BRANCH  38  43
ATOM     39  O   UNL     1     109.751 127.732 140.027  0.00  0.00    +0.000 OA
ATOM     40  O   UNL     1     109.351 126.376 141.691  0.00  0.00    +0.000 OA
ATOM     41  O   UNL     1     108.868 127.814 142.338  0.00  0.00    +0.000 OA
ATOM     42  O   UNL     1     108.973 129.197 141.445  0.00  0.00    +0.000 OA
ATOM     43  C   UNL     1     109.699 127.039 140.473  0.00  0.00    +0.000 C 
ATOM     44  C   UNL     1     109.404 127.067 141.244  0.00  0.00    +0.000 C 
ATOM     45  C   UNL     1     109.162 127.787 141.568  0.00  0.00    +0.000 C 
ATOM     46  C   UNL     1     109.215 128.478 141.121  0.00  0.00    +0.000 C 
ATOM     47  C   UNL     1     109.509 128.451 140.351  0.00  0.00    +0.000 C 
BRANCH  47  49
ATOM     48  O   UNL     1     109.041 129.270 139.278  0.00  0.00    +0.000 OA
ATOM     49  C   UNL     1     109.562 129.142 139.905  0.00  0.00    +0.000 C 
ENDBRANCH  47  49
ENDBRANCH  38  43
ENDBRANCH  32  38
ENDBRANCH  28  36
ENDBRANCH   3  28
TORSDOF 11
ENDMDL
MODEL 4
REMARK VINA RESULT:      -8.9      1.508      2.366
REMARK  Name = 44259831
REMARK  11 active torsions:
REMARK  status: ('A' for Active; 'I' for Inactive)
REMARK    1  A    between atoms: O_1  and  C_18
REMARK    2  A    between atoms: O_1  and  C_21
REMARK    3  A    between atoms: O_5  and  C_27
REMARK    4  A    between atoms: O_5  and  C_30
REMARK    5  A    between atoms: O_11  and  C_32
REMARK    6  A    between atoms: O_13  and  C_34
REMARK    7  A    between atoms: O_15  and  C_37
REMARK    8  A    between atoms: O_16  and  C_45
REMARK    9  A    between atoms: O_17  and  C_47
REMARK   10  A    between atoms: C_26  and  C_29
REMARK   11  A    between atoms: C_38  and  C_39
REMARK                            x       y       z     vdW  Elec       q    Type
REMARK                         _______ _______ _______ _____ _____    ______ ____
ROOT
ATOM      1  O   UNL     1     113.014 127.232 136.411  0.00  0.00    +0.000 OA
ATOM      2  O   UNL     1     111.520 128.268 138.091  0.00  0.00    +0.000 OA
ATOM      3  C   UNL     1     112.325 129.250 137.029  0.00  0.00    +0.000 A 
ATOM      4  C   UNL     1     112.427 128.398 136.994  0.00  0.00    +0.000 A 
ATOM      5  C   UNL     1     112.748 129.750 136.472  0.00  0.00    +0.000 A 
ATOM      6  C   UNL     1     112.924 128.052 136.435  0.00  0.00    +0.000 A 
ATOM      7  C   UNL     1     113.267 129.391 135.889  0.00  0.00    +0.000 A 
ATOM      8  C   UNL     1     112.017 127.924 137.532  0.00  0.00    +0.000 A 
ATOM      9  C   UNL     1     113.355 128.536 135.870  0.00  0.00    +0.000 A 
ATOM     10  C   UNL     1     112.107 127.104 137.509  0.00  0.00    +0.000 A 
ATOM     11  C   UNL     1     112.604 126.758 136.949  0.00  0.00    +0.000 A 
ENDROOT
BRANCH  11  12
ATOM     12  C   UNL     1     112.694 125.938 136.926  0.00  0.00    +0.000 A 
ATOM     13  C   UNL     1     113.384 125.591 137.214  0.00  0.00    +0.000 A 
ATOM     14  C   UNL     1     112.093 125.466 136.615  0.00  0.00    +0.000 A 
ATOM     15  C   UNL     1     113.475 124.771 137.191  0.00  0.00    +0.000 A 
ATOM     16  C   UNL     1     112.183 124.646 136.592  0.00  0.00    +0.000 A 
ATOM     17  C   UNL     1     112.873 124.299 136.879  0.00  0.00    +0.000 A 
BRANCH  15  18
ATOM     18  O   UNL     1     114.165 124.424 137.478  0.00  0.00    +0.000 OA
ATOM     19  C   UNL     1     114.851 124.875 137.559  0.00  0.00    +0.000 C 
ENDBRANCH  15  18
BRANCH  17  20
ATOM     20  O   UNL     1     112.964 123.479 136.856  0.00  0.00    +0.000 OA
ATOM     21  C   UNL     1     112.299 122.991 136.820  0.00  0.00    +0.000 C 
ENDBRANCH  17  20
ENDBRANCH  11  12
BRANCH   5  22
ATOM     22  O   UNL     1     112.657 130.570 136.498  0.00  0.00    +0.000 OA
ATOM     23  C   UNL     1     113.317 131.055 136.600  0.00  0.00    +0.000 C 
ENDBRANCH   5  22
BRANCH   7  24
ATOM     24  O   UNL     1     113.677 129.862 135.350  0.00  0.00    +0.000 OA
ATOM     25  C   UNL     1     114.020 129.523 134.682  0.00  0.00    +0.000 C 
ENDBRANCH   7  24
BRANCH  10  26
ATOM     26  O   UNL     1     111.698 126.629 138.046  0.00  0.00    +0.000 OA
ATOM     27  C   UNL     1     111.602 126.877 138.826  0.00  0.00    +0.000 C 
ENDBRANCH  10  26
BRANCH   3  28
ATOM     28  O   UNL     1     111.825 129.587 137.592  0.00  0.00    +0.000 OA
BRANCH  28  36
ATOM     29  O   UNL     1     110.719 129.524 136.691  0.00  0.00    +0.000 OA
ATOM     30  O   UNL     1     109.450 131.081 138.137  0.00  0.00    +0.000 OA
ATOM     31  O   UNL     1     110.980 130.625 138.556  0.00  0.00    +0.000 OA
ATOM     32  C   UNL     1     109.531 130.271 136.962  0.00  0.00    +0.000 C 
ATOM     33  C   UNL     1     109.874 130.562 137.655  0.00  0.00    +0.000 C 
ATOM     34  C   UNL     1     109.955 129.752 136.481  0.00  0.00    +0.000 C 
ATOM     35  C   UNL     1     110.638 130.334 137.865  0.00  0.00    +0.000 C 
ATOM     36  C   UNL     1     111.061 129.815 137.382  0.00  0.00    +0.000 C 
ATOM     37  C   UNL     1     109.612 129.460 135.788  0.00  0.00    +0.000 C 
BRANCH  32  38
ATOM     38  O   UNL     1     108.767 130.498 136.753  0.00  0.00    +0.000 OA
BRANCH  38  43
ATOM     39  O   UNL     1     109.255 131.665 136.087  0.00  0.00    +0.000 OA
ATOM     40  O   UNL     1     107.334 130.638 135.947  0.00  0.00    +0.000 OA
ATOM     41  O   UNL     1     107.105 131.875 134.879  0.00  0.00    +0.000 OA
ATOM     42  O   UNL     1     108.309 132.970 134.616  0.00  0.00    +0.000 OA
ATOM     43  C   UNL     1     108.653 131.116 136.219  0.00  0.00    +0.000 C 
ATOM     44  C   UNL     1     107.936 131.186 135.816  0.00  0.00    +0.000 C 
ATOM     45  C   UNL     1     107.822 131.805 135.281  0.00  0.00    +0.000 C 
ATOM     46  C   UNL     1     108.424 132.353 135.150  0.00  0.00    +0.000 C 
ATOM     47  C   UNL     1     109.141 132.283 135.553  0.00  0.00    +0.000 C 
BRANCH  47  49
ATOM     48  O   UNL     1     110.018 133.298 136.043  0.00  0.00    +0.000 OA
ATOM     49  C   UNL     1     109.742 132.831 135.422  0.00  0.00    +0.000 C 
ENDBRANCH  47  49
ENDBRANCH  38  43
ENDBRANCH  32  38
ENDBRANCH  28  36
ENDBRANCH   3  28
TORSDOF 11
ENDMDL
MODEL 5
REMARK VINA RESULT:      -8.9      2.106      4.177
REMARK  Name = 44259831
REMARK  11 active torsions:
REMARK  status: ('A' for Active; 'I' for Inactive)
REMARK    1  A    between atoms: O_1  and  C_18
REMARK    2  A    between atoms: O_1  and  C_21
REMARK    3  A    between atoms: O_5  and  C_27
REMARK    4  A    between atoms: O_5  and  C_30
REMARK    5  A    between atoms: O_11  and  C_32
REMARK    6  A    between atoms: O_13  and  C_34
REMARK    7  A    between atoms: O_15  and  C_37
REMARK    8  A    between atoms: O_16  and  C_45
REMARK    9  A    between atoms: O_17  and  C_47
REMARK   10  A    between atoms: C_26  and  C_29
REMARK   11  A    between atoms: C_38  and  C_39
REMARK                            x       y       z     vdW  Elec       q    Type
REMARK                         _______ _______ _______ _____ _____    ______ ____
ROOT
ATOM      1  O   UNL     1     112.524 127.519 136.734  0.00  0.00    +0.000 OA
ATOM      2  O   UNL     1     110.968 128.565 138.350  0.00  0.00    +0.000 OA
ATOM      3  C   UNL     1     112.130 129.507 137.639  0.00  0.00    +0.000 A 
ATOM      4  C   UNL     1     112.072 128.672 137.448  0.00  0.00    +0.000 A 
ATOM      5  C   UNL     1     112.737 129.986 137.265  0.00  0.00    +0.000 A 
ATOM      6  C   UNL     1     112.590 128.322 136.910  0.00  0.00    +0.000 A 
ATOM      7  C   UNL     1     113.277 129.623 136.704  0.00  0.00    +0.000 A 
ATOM      8  C   UNL     1     111.486 128.217 137.812  0.00  0.00    +0.000 A 
ATOM      9  C   UNL     1     113.203 128.786 136.525  0.00  0.00    +0.000 A 
ATOM     10  C   UNL     1     111.420 127.414 137.636  0.00  0.00    +0.000 A 
ATOM     11  C   UNL     1     111.938 127.065 137.097  0.00  0.00    +0.000 A 
ENDROOT
BRANCH  11  12
ATOM     12  C   UNL     1     111.872 126.261 136.921  0.00  0.00    +0.000 A 
ATOM     13  C   UNL     1     111.411 126.016 136.283  0.00  0.00    +0.000 A 
ATOM     14  C   UNL     1     112.267 125.703 137.384  0.00  0.00    +0.000 A 
ATOM     15  C   UNL     1     111.345 125.213 136.106  0.00  0.00    +0.000 A 
ATOM     16  C   UNL     1     112.200 124.900 137.207  0.00  0.00    +0.000 A 
ATOM     17  C   UNL     1     111.739 124.655 136.569  0.00  0.00    +0.000 A 
BRANCH  15  18
ATOM     18  O   UNL     1     110.884 124.968 135.468  0.00  0.00    +0.000 OA
ATOM     19  C   UNL     1     110.477 125.524 135.015  0.00  0.00    +0.000 C 
ENDBRANCH  15  18
BRANCH  17  20
ATOM     20  O   UNL     1     111.673 123.852 136.392  0.00  0.00    +0.000 OA
ATOM     21  C   UNL     1     112.059 123.293 136.861  0.00  0.00    +0.000 C 
ENDBRANCH  17  20
ENDBRANCH  11  12
BRANCH   5  22
ATOM     22  O   UNL     1     112.801 130.789 137.442  0.00  0.00    +0.000 OA
ATOM     23  C   UNL     1     112.731 131.351 136.842  0.00  0.00    +0.000 C 
ENDBRANCH   5  22
BRANCH   7  24
ATOM     24  O   UNL     1     113.863 130.074 136.339  0.00  0.00    +0.000 OA
ATOM     25  C   UNL     1     114.436 129.708 135.872  0.00  0.00    +0.000 C 
ENDBRANCH   7  24
BRANCH  10  26
ATOM     26  O   UNL     1     110.834 126.959 137.999  0.00  0.00    +0.000 OA
ATOM     27  C   UNL     1     110.115 127.303 138.207  0.00  0.00    +0.000 C 
ENDBRANCH  10  26
BRANCH   3  28
ATOM     28  O   UNL     1     111.608 129.848 138.179  0.00  0.00    +0.000 OA
BRANCH  28  36
ATOM     29  O   UNL     1     112.540 129.629 139.239  0.00  0.00    +0.000 OA
ATOM     30  O   UNL     1     111.144 131.002 140.752  0.00  0.00    +0.000 OA
ATOM     31  O   UNL     1     110.676 130.763 139.188  0.00  0.00    +0.000 OA
ATOM     32  C   UNL     1     112.309 130.206 140.526  0.00  0.00    +0.000 C 
ATOM     33  C   UNL     1     111.609 130.544 140.247  0.00  0.00    +0.000 C 
ATOM     34  C   UNL     1     112.774 129.748 140.021  0.00  0.00    +0.000 C 
ATOM     35  C   UNL     1     111.375 130.425 139.465  0.00  0.00    +0.000 C 
ATOM     36  C   UNL     1     111.841 129.967 138.961  0.00  0.00    +0.000 C 
ATOM     37  C   UNL     1     113.473 129.410 140.299  0.00  0.00    +0.000 C 
BRANCH  32  38
ATOM     38  O   UNL     1     112.542 130.325 141.308  0.00  0.00    +0.000 OA
BRANCH  38  43
ATOM     39  O   UNL     1     111.937 129.101 141.731  0.00  0.00    +0.000 OA
ATOM     40  O   UNL     1     112.511 130.877 142.862  0.00  0.00    +0.000 OA
ATOM     41  O   UNL     1     111.890 129.930 144.062  0.00  0.00    +0.000 OA
ATOM     42  O   UNL     1     111.300 128.431 143.708  0.00  0.00    +0.000 OA
ATOM     43  C   UNL     1     112.232 129.851 141.907  0.00  0.00    +0.000 C 
ATOM     44  C   UNL     1     112.216 130.128 142.684  0.00  0.00    +0.000 C 
ATOM     45  C   UNL     1     111.906 129.654 143.285  0.00  0.00    +0.000 C 
ATOM     46  C   UNL     1     111.611 128.904 143.107  0.00  0.00    +0.000 C 
ATOM     47  C   UNL     1     111.626 128.628 142.330  0.00  0.00    +0.000 C 
BRANCH  47  49
ATOM     48  O   UNL     1     110.627 127.801 141.730  0.00  0.00    +0.000 OA
ATOM     49  C   UNL     1     111.331 127.879 142.153  0.00  0.00    +0.000 C 
ENDBRANCH  47  49
ENDBRANCH  38  43
ENDBRANCH  32  38
ENDBRANCH  28  36
ENDBRANCH   3  28
TORSDOF 11
ENDMDL
MODEL 6
REMARK VINA RESULT:      -8.7      1.425      2.168
REMARK  Name = 44259831
REMARK  11 active torsions:
REMARK  status: ('A' for Active; 'I' for Inactive)
REMARK    1  A    between atoms: O_1  and  C_18
REMARK    2  A    between atoms: O_1  and  C_21
REMARK    3  A    between atoms: O_5  and  C_27
REMARK    4  A    between atoms: O_5  and  C_30
REMARK    5  A    between atoms: O_11  and  C_32
REMARK    6  A    between atoms: O_13  and  C_34
REMARK    7  A    between atoms: O_15  and  C_37
REMARK    8  A    between atoms: O_16  and  C_45
REMARK    9  A    between atoms: O_17  and  C_47
REMARK   10  A    between atoms: C_26  and  C_29
REMARK   11  A    between atoms: C_38  and  C_39
REMARK                            x       y       z     vdW  Elec       q    Type
REMARK                         _______ _______ _______ _____ _____    ______ ____
ROOT
ATOM      1  O   UNL     1     113.313 127.974 139.307  0.00  0.00    +0.000 OA
ATOM      2  O   UNL     1     110.839 128.018 139.352  0.00  0.00    +0.000 OA
ATOM      3  C   UNL     1     111.671 129.079 140.312  0.00  0.00    +0.000 A 
ATOM      4  C   UNL     1     112.094 128.525 139.809  0.00  0.00    +0.000 A 
ATOM      5  C   UNL     1     112.114 129.626 140.806  0.00  0.00    +0.000 A 
ATOM      6  C   UNL     1     112.918 128.510 139.794  0.00  0.00    +0.000 A 
ATOM      7  C   UNL     1     112.973 129.610 140.790  0.00  0.00    +0.000 A 
ATOM      8  C   UNL     1     111.663 128.003 139.337  0.00  0.00    +0.000 A 
ATOM      9  C   UNL     1     113.378 129.049 140.281  0.00  0.00    +0.000 A 
ATOM     10  C   UNL     1     112.057 127.467 138.850  0.00  0.00    +0.000 A 
ATOM     11  C   UNL     1     112.881 127.451 138.835  0.00  0.00    +0.000 A 
ENDROOT
BRANCH  11  12
ATOM     12  C   UNL     1     113.276 126.915 138.348  0.00  0.00    +0.000 A 
ATOM     13  C   UNL     1     113.428 127.108 137.560  0.00  0.00    +0.000 A 
ATOM     14  C   UNL     1     113.518 126.185 138.648  0.00  0.00    +0.000 A 
ATOM     15  C   UNL     1     113.823 126.572 137.073  0.00  0.00    +0.000 A 
ATOM     16  C   UNL     1     113.913 125.649 138.160  0.00  0.00    +0.000 A 
ATOM     17  C   UNL     1     114.065 125.842 137.373  0.00  0.00    +0.000 A 
BRANCH  15  18
ATOM     18  O   UNL     1     113.975 126.765 136.286  0.00  0.00    +0.000 OA
ATOM     19  C   UNL     1     113.950 127.553 136.041  0.00  0.00    +0.000 C 
ENDBRANCH  15  18
BRANCH  17  20
ATOM     20  O   UNL     1     114.460 125.306 136.885  0.00  0.00    +0.000 OA
ATOM     21  C   UNL     1     114.694 124.573 137.183  0.00  0.00    +0.000 C 
ENDBRANCH  17  20
ENDBRANCH  11  12
BRANCH   5  22
ATOM     22  O   UNL     1     111.717 130.161 141.292  0.00  0.00    +0.000 OA
ATOM     23  C   UNL     1     111.826 130.135 142.109  0.00  0.00    +0.000 C 
ENDBRANCH   5  22
BRANCH   7  24
ATOM     24  O   UNL     1     113.407 130.131 141.261  0.00  0.00    +0.000 OA
ATOM     25  C   UNL     1     114.171 130.348 141.040  0.00  0.00    +0.000 C 
ENDBRANCH   7  24
BRANCH  10  26
ATOM     26  O   UNL     1     111.626 126.944 138.378  0.00  0.00    +0.000 OA
ATOM     27  C   UNL     1     110.916 126.629 138.653  0.00  0.00    +0.000 C 
ENDBRANCH  10  26
BRANCH   3  28
ATOM     28  O   UNL     1     110.847 129.087 140.321  0.00  0.00    +0.000 OA
BRANCH  28  36
ATOM     29  O   UNL     1     110.842 130.136 139.351  0.00  0.00    +0.000 OA
ATOM     30  O   UNL     1     108.378 130.288 139.526  0.00  0.00    +0.000 OA
ATOM     31  O   UNL     1     109.204 129.188 140.438  0.00  0.00    +0.000 OA
ATOM     32  C   UNL     1     109.608 130.737 138.953  0.00  0.00    +0.000 C 
ATOM     33  C   UNL     1     109.199 130.237 139.468  0.00  0.00    +0.000 C 
ATOM     34  C   UNL     1     110.429 130.686 138.895  0.00  0.00    +0.000 C 
ATOM     35  C   UNL     1     109.612 129.687 139.924  0.00  0.00    +0.000 C 
ATOM     36  C   UNL     1     110.434 129.637 139.865  0.00  0.00    +0.000 C 
ATOM     37  C   UNL     1     110.838 131.185 138.381  0.00  0.00    +0.000 C 
BRANCH  32  38
ATOM     38  O   UNL     1     109.195 131.287 138.497  0.00  0.00    +0.000 OA
BRANCH  38  43
ATOM     39  O   UNL     1     109.130 130.352 137.418  0.00  0.00    +0.000 OA
ATOM     40  O   UNL     1     108.204 132.313 137.668  0.00  0.00    +0.000 OA
ATOM     41  O   UNL     1     107.643 131.891 136.175  0.00  0.00    +0.000 OA
ATOM     42  O   UNL     1     108.073 130.444 135.511  0.00  0.00    +0.000 OA
ATOM     43  C   UNL     1     108.915 131.076 137.751  0.00  0.00    +0.000 C 
ATOM     44  C   UNL     1     108.420 131.589 137.337  0.00  0.00    +0.000 C 
ATOM     45  C   UNL     1     108.139 131.378 136.589  0.00  0.00    +0.000 C 
ATOM     46  C   UNL     1     108.354 130.654 136.258  0.00  0.00    +0.000 C 
ATOM     47  C   UNL     1     108.850 130.141 136.672  0.00  0.00    +0.000 C 
BRANCH  47  49
ATOM     48  O   UNL     1     108.760 128.715 136.647  0.00  0.00    +0.000 OA
ATOM     49  C   UNL     1     109.065 129.418 136.340  0.00  0.00    +0.000 C 
ENDBRANCH  47  49
ENDBRANCH  38  43
ENDBRANCH  32  38
ENDBRANCH  28  36
ENDBRANCH   3  28
TORSDOF 11
ENDMDL
MODEL 7
REMARK VINA RESULT:      -8.5      1.093      5.718
REMARK  Name = 44259831
REMARK  11 active torsions:
REMARK  status: ('A' for Active; 'I' for Inactive)
REMARK    1  A    between atoms: O_1  and  C_18
REMARK    2  A    between atoms: O_1  and  C_21
REMARK    3  A    between atoms: O_5  and  C_27
REMARK    4  A    between atoms: O_5  and  C_30
REMARK    5  A    between atoms: O_11  and  C_32
REMARK    6  A    between atoms: O_13  and  C_34
REMARK    7  A    between atoms: O_15  and  C_37
REMARK    8  A    between atoms: O_16  and  C_45
REMARK    9  A    between atoms: O_17  and  C_47
REMARK   10  A    between atoms: C_26  and  C_29
REMARK   11  A    between atoms: C_38  and  C_39
REMARK                            x       y       z     vdW  Elec       q    Type
REMARK                         _______ _______ _______ _____ _____    ______ ____
ROOT
ATOM      1  O   UNL     1     111.211 130.746 137.060  0.00  0.00    +0.000 OA
ATOM      2  O   UNL     1     111.270 128.883 138.689  0.00  0.00    +0.000 OA
ATOM      3  C   UNL     1     112.667 129.716 138.382  0.00  0.00    +0.000 A 
ATOM      4  C   UNL     1     111.938 129.929 137.981  0.00  0.00    +0.000 A 
ATOM      5  C   UNL     1     113.386 130.156 138.215  0.00  0.00    +0.000 A 
ATOM      6  C   UNL     1     111.918 130.550 137.439  0.00  0.00    +0.000 A 
ATOM      7  C   UNL     1     113.366 130.802 137.650  0.00  0.00    +0.000 A 
ATOM      8  C   UNL     1     111.250 129.503 138.146  0.00  0.00    +0.000 A 
ATOM      9  C   UNL     1     112.627 131.001 137.259  0.00  0.00    +0.000 A 
ATOM     10  C   UNL     1     110.544 129.699 137.768  0.00  0.00    +0.000 A 
ATOM     11  C   UNL     1     110.524 130.319 137.225  0.00  0.00    +0.000 A 
ENDROOT
BRANCH  11  12
ATOM     12  C   UNL     1     109.817 130.515 136.847  0.00  0.00    +0.000 A 
ATOM     13  C   UNL     1     109.637 130.183 136.114  0.00  0.00    +0.000 A 
ATOM     14  C   UNL     1     109.291 131.043 137.202  0.00  0.00    +0.000 A 
ATOM     15  C   UNL     1     108.931 130.378 135.735  0.00  0.00    +0.000 A 
ATOM     16  C   UNL     1     108.584 131.238 136.823  0.00  0.00    +0.000 A 
ATOM     17  C   UNL     1     108.404 130.906 136.090  0.00  0.00    +0.000 A 
BRANCH  15  18
ATOM     18  O   UNL     1     108.750 130.046 135.002  0.00  0.00    +0.000 OA
ATOM     19  C   UNL     1     109.307 129.578 134.612  0.00  0.00    +0.000 C 
ENDBRANCH  15  18
BRANCH  17  20
ATOM     20  O   UNL     1     107.698 131.101 135.710  0.00  0.00    +0.000 OA
ATOM     21  C   UNL     1     107.222 131.705 136.010  0.00  0.00    +0.000 C 
ENDBRANCH  17  20
ENDBRANCH  11  12
BRANCH   5  22
ATOM     22  O   UNL     1     114.092 129.958 138.595  0.00  0.00    +0.000 OA
ATOM     23  C   UNL     1     114.465 130.508 139.083  0.00  0.00    +0.000 C 
ENDBRANCH   5  22
BRANCH   7  24
ATOM     24  O   UNL     1     114.052 131.230 137.482  0.00  0.00    +0.000 OA
ATOM     25  C   UNL     1     114.206 131.478 136.711  0.00  0.00    +0.000 C 
ENDBRANCH   7  24
BRANCH  10  26
ATOM     26  O   UNL     1     109.856 129.272 137.933  0.00  0.00    +0.000 OA
ATOM     27  C   UNL     1     109.733 128.964 138.687  0.00  0.00    +0.000 C 
ENDBRANCH  10  26
BRANCH   3  28
ATOM     28  O   UNL     1     112.678 129.094 138.923  0.00  0.00    +0.000 OA
BRANCH  28  36
ATOM     29  O   UNL     1     113.079 128.187 137.895  0.00  0.00    +0.000 OA
ATOM     30  O   UNL     1     113.529 126.451 139.600  0.00  0.00    +0.000 OA
ATOM     31  O   UNL     1     112.978 127.936 140.060  0.00  0.00    +0.000 OA
ATOM     32  C   UNL     1     113.504 126.865 138.233  0.00  0.00    +0.000 C 
ATOM     33  C   UNL     1     113.379 127.030 139.032  0.00  0.00    +0.000 C 
ATOM     34  C   UNL     1     113.354 127.444 137.665  0.00  0.00    +0.000 C 
ATOM     35  C   UNL     1     113.103 127.772 139.262  0.00  0.00    +0.000 C 
ATOM     36  C   UNL     1     112.953 128.351 138.693  0.00  0.00    +0.000 C 
ATOM     37  C   UNL     1     113.480 127.279 136.866  0.00  0.00    +0.000 C 
BRANCH  32  38
ATOM     38  O   UNL     1     113.780 126.122 138.003  0.00  0.00    +0.000 OA
BRANCH  38  43
ATOM     39  O   UNL     1     112.439 125.635 137.922  0.00  0.00    +0.000 OA
ATOM     40  O   UNL     1     114.323 124.750 137.265  0.00  0.00    +0.000 OA
ATOM     41  O   UNL     1     113.254 123.576 136.815  0.00  0.00    +0.000 OA
ATOM     42  O   UNL     1     111.642 123.775 137.104  0.00  0.00    +0.000 OA
ATOM     43  C   UNL     1     113.245 125.536 137.778  0.00  0.00    +0.000 C 
ATOM     44  C   UNL     1     113.517 124.850 137.409  0.00  0.00    +0.000 C 
ATOM     45  C   UNL     1     112.982 124.263 137.184  0.00  0.00    +0.000 C 
ATOM     46  C   UNL     1     112.176 124.362 137.329  0.00  0.00    +0.000 C 
ATOM     47  C   UNL     1     111.905 125.049 137.698  0.00  0.00    +0.000 C 
BRANCH  47  49
ATOM     48  O   UNL     1     110.815 125.152 138.617  0.00  0.00    +0.000 OA
ATOM     49  C   UNL     1     111.099 125.148 137.842  0.00  0.00    +0.000 C 
ENDBRANCH  47  49
ENDBRANCH  38  43
ENDBRANCH  32  38
ENDBRANCH  28  36
ENDBRANCH   3  28
TORSDOF 11
ENDMDL
MODEL 8
REMARK VINA RESULT:      -8.5      2.839      5.380
REMARK  Name = 44259831
REMARK  11 active torsions:
REMARK  status: ('A' for Active; 'I' for Inactive)
REMARK    1  A    between atoms: O_1  and  C_18
REMARK    2  A    between atoms: O_1  and  C_21
REMARK    3  A    between atoms: O_5  and  C_27
REMARK    4  A    between atoms: O_5  and  C_30
REMARK    5  A    between atoms: O_11  and  C_32
REMARK    6  A    between atoms: O_13  and  C_34
REMARK    7  A    between atoms: O_15  and  C_37
REMARK    8  A    between atoms: O_16  and  C_45
REMARK    9  A    between atoms: O_17  and  C_47
REMARK   10  A    between atoms: C_26  and  C_29
REMARK   11  A    between atoms: C_38  and  C_39
REMARK                            x       y       z     vdW  Elec       q    Type
REMARK                         _______ _______ _______ _____ _____    ______ ____
ROOT
ATOM      1  O   UNL     1     113.314 128.988 137.899  0.00  0.00    +0.000 OA
ATOM      2  O   UNL     1     111.648 130.586 138.789  0.00  0.00    +0.000 OA
ATOM      3  C   UNL     1     111.827 129.122 139.541  0.00  0.00    +0.000 A 
ATOM      4  C   UNL     1     112.305 129.319 138.855  0.00  0.00    +0.000 A 
ATOM      5  C   UNL     1     111.929 128.359 139.924  0.00  0.00    +0.000 A 
ATOM      6  C   UNL     1     112.861 128.787 138.558  0.00  0.00    +0.000 A 
ATOM      7  C   UNL     1     112.508 127.804 139.615  0.00  0.00    +0.000 A 
ATOM      8  C   UNL     1     112.203 130.054 138.493  0.00  0.00    +0.000 A 
ATOM      9  C   UNL     1     112.977 128.019 138.928  0.00  0.00    +0.000 A 
ATOM     10  C   UNL     1     112.656 130.254 137.833  0.00  0.00    +0.000 A 
ATOM     11  C   UNL     1     113.211 129.722 137.536  0.00  0.00    +0.000 A 
ENDROOT
BRANCH  11  12
ATOM     12  C   UNL     1     113.665 129.923 136.877  0.00  0.00    +0.000 A 
ATOM     13  C   UNL     1     113.470 129.619 136.136  0.00  0.00    +0.000 A 
ATOM     14  C   UNL     1     114.313 130.427 136.959  0.00  0.00    +0.000 A 
ATOM     15  C   UNL     1     113.923 129.819 135.475  0.00  0.00    +0.000 A 
ATOM     16  C   UNL     1     114.766 130.627 136.299  0.00  0.00    +0.000 A 
ATOM     17  C   UNL     1     114.571 130.323 135.558  0.00  0.00    +0.000 A 
BRANCH  15  18
ATOM     18  O   UNL     1     113.729 129.514 134.734  0.00  0.00    +0.000 OA
ATOM     19  C   UNL     1     112.992 129.163 134.612  0.00  0.00    +0.000 C 
ENDBRANCH  15  18
BRANCH  17  20
ATOM     20  O   UNL     1     115.024 130.523 134.898  0.00  0.00    +0.000 OA
ATOM     21  C   UNL     1     115.710 130.973 134.989  0.00  0.00    +0.000 C 
ENDBRANCH  17  20
ENDBRANCH  11  12
BRANCH   5  22
ATOM     22  O   UNL     1     111.474 128.161 140.583  0.00  0.00    +0.000 OA
ATOM     23  C   UNL     1     111.001 127.485 140.570  0.00  0.00    +0.000 C 
ENDBRANCH   5  22
BRANCH   7  24
ATOM     24  O   UNL     1     112.613 127.070 139.975  0.00  0.00    +0.000 OA
ATOM     25  C   UNL     1     113.313 126.649 139.860  0.00  0.00    +0.000 C 
ENDBRANCH   7  24
BRANCH  10  26
ATOM     26  O   UNL     1     112.553 130.989 137.471  0.00  0.00    +0.000 OA
ATOM     27  C   UNL     1     111.803 131.328 137.431  0.00  0.00    +0.000 C 
ENDBRANCH  10  26
BRANCH   3  28
ATOM     28  O   UNL     1     111.274 129.661 139.832  0.00  0.00    +0.000 OA
BRANCH  28  36
ATOM     29  O   UNL     1     112.218 130.139 140.791  0.00  0.00    +0.000 OA
ATOM     30  O   UNL     1     110.417 131.386 141.943  0.00  0.00    +0.000 OA
ATOM     31  O   UNL     1     110.073 130.492 140.599  0.00  0.00    +0.000 OA
ATOM     32  C   UNL     1     111.790 131.002 141.847  0.00  0.00    +0.000 C 
ATOM     33  C   UNL     1     111.017 130.970 141.558  0.00  0.00    +0.000 C 
ATOM     34  C   UNL     1     112.390 130.586 141.463  0.00  0.00    +0.000 C 
ATOM     35  C   UNL     1     110.845 130.523 140.887  0.00  0.00    +0.000 C 
ATOM     36  C   UNL     1     111.446 130.108 140.503  0.00  0.00    +0.000 C 
ATOM     37  C   UNL     1     113.163 130.618 141.751  0.00  0.00    +0.000 C 
BRANCH  32  38
ATOM     38  O   UNL     1     111.962 131.449 142.518  0.00  0.00    +0.000 OA
BRANCH  38  43
ATOM     39  O   UNL     1     111.782 130.303 143.353  0.00  0.00    +0.000 OA
ATOM     40  O   UNL     1     111.941 132.423 143.851  0.00  0.00    +0.000 OA
ATOM     41  O   UNL     1     111.751 131.763 145.351  0.00  0.00    +0.000 OA
ATOM     42  O   UNL     1     111.582 130.132 145.519  0.00  0.00    +0.000 OA
ATOM     43  C   UNL     1     111.867 131.120 143.268  0.00  0.00    +0.000 C 
ATOM     44  C   UNL     1     111.856 131.606 143.934  0.00  0.00    +0.000 C 
ATOM     45  C   UNL     1     111.761 131.277 144.685  0.00  0.00    +0.000 C 
ATOM     46  C   UNL     1     111.677 130.461 144.769  0.00  0.00    +0.000 C 
ATOM     47  C   UNL     1     111.687 129.974 144.103  0.00  0.00    +0.000 C 
BRANCH  47  49
ATOM     48  O   UNL     1     110.900 128.790 143.960  0.00  0.00    +0.000 OA
ATOM     49  C   UNL     1     111.602 129.158 144.187  0.00  0.00    +0.000 C 
ENDBRANCH  47  49
ENDBRANCH  38  43
ENDBRANCH  32  38
ENDBRANCH  28  36
ENDBRANCH   3  28
TORSDOF 11
ENDMDL
MODEL 9
REMARK VINA RESULT:      -8.4      2.892      5.184
REMARK  Name = 44259831
REMARK  11 active torsions:
REMARK  status: ('A' for Active; 'I' for Inactive)
REMARK    1  A    between atoms: O_1  and  C_18
REMARK    2  A    between atoms: O_1  and  C_21
REMARK    3  A    between atoms: O_5  and  C_27
REMARK    4  A    between atoms: O_5  and  C_30
REMARK    5  A    between atoms: O_11  and  C_32
REMARK    6  A    between atoms: O_13  and  C_34
REMARK    7  A    between atoms: O_15  and  C_37
REMARK    8  A    between atoms: O_16  and  C_45
REMARK    9  A    between atoms: O_17  and  C_47
REMARK   10  A    between atoms: C_26  and  C_29
REMARK   11  A    between atoms: C_38  and  C_39
REMARK                            x       y       z     vdW  Elec       q    Type
REMARK                         _______ _______ _______ _____ _____    ______ ____
ROOT
ATOM      1  O   UNL     1     111.431 127.418 138.019  0.00  0.00    +0.000 OA
ATOM      2  O   UNL     1     109.900 127.206 139.952  0.00  0.00    +0.000 OA
ATOM      3  C   UNL     1     110.531 128.695 139.596  0.00  0.00    +0.000 A 
ATOM      4  C   UNL     1     110.734 128.012 139.117  0.00  0.00    +0.000 A 
ATOM      5  C   UNL     1     110.865 129.463 139.402  0.00  0.00    +0.000 A 
ATOM      6  C   UNL     1     111.244 128.082 138.473  0.00  0.00    +0.000 A 
ATOM      7  C   UNL     1     111.397 129.536 138.731  0.00  0.00    +0.000 A 
ATOM      8  C   UNL     1     110.410 127.277 139.309  0.00  0.00    +0.000 A 
ATOM      9  C   UNL     1     111.588 128.842 138.263  0.00  0.00    +0.000 A 
ATOM     10  C   UNL     1     110.597 126.613 138.855  0.00  0.00    +0.000 A 
ATOM     11  C   UNL     1     111.107 126.683 138.211  0.00  0.00    +0.000 A 
ENDROOT
BRANCH  11  12
ATOM     12  C   UNL     1     111.294 126.020 137.758  0.00  0.00    +0.000 A 
ATOM     13  C   UNL     1     110.892 125.877 137.052  0.00  0.00    +0.000 A 
ATOM     14  C   UNL     1     111.883 125.500 138.010  0.00  0.00    +0.000 A 
ATOM     15  C   UNL     1     111.078 125.213 136.598  0.00  0.00    +0.000 A 
ATOM     16  C   UNL     1     112.069 124.837 137.556  0.00  0.00    +0.000 A 
ATOM     17  C   UNL     1     111.667 124.693 136.851  0.00  0.00    +0.000 A 
BRANCH  15  18
ATOM     18  O   UNL     1     110.676 125.070 135.893  0.00  0.00    +0.000 OA
ATOM     19  C   UNL     1     110.323 125.694 135.485  0.00  0.00    +0.000 C 
ENDBRANCH  15  18
BRANCH  17  20
ATOM     20  O   UNL     1     111.854 124.030 136.397  0.00  0.00    +0.000 OA
ATOM     21  C   UNL     1     112.406 123.483 136.674  0.00  0.00    +0.000 C 
ENDBRANCH  17  20
ENDBRANCH  11  12
BRANCH   5  22
ATOM     22  O   UNL     1     110.677 130.124 139.857  0.00  0.00    +0.000 OA
ATOM     23  C   UNL     1     110.327 130.782 139.503  0.00  0.00    +0.000 C 
ENDBRANCH   5  22
BRANCH   7  24
ATOM     24  O   UNL     1     111.722 130.269 138.537  0.00  0.00    +0.000 OA
ATOM     25  C   UNL     1     112.384 130.310 138.046  0.00  0.00    +0.000 C 
ENDBRANCH   7  24
BRANCH  10  26
ATOM     26  O   UNL     1     110.273 125.879 139.047  0.00  0.00    +0.000 OA
ATOM     27  C   UNL     1     109.523 125.835 139.387  0.00  0.00    +0.000 C 
ENDBRANCH  10  26
BRANCH   3  28
ATOM     28  O   UNL     1     110.020 128.616 140.239  0.00  0.00    +0.000 OA
BRANCH  28  36
ATOM     29  O   UNL     1     111.131 128.507 141.131  0.00  0.00    +0.000 OA
ATOM     30  O   UNL     1     109.604 128.754 143.063  0.00  0.00    +0.000 OA
ATOM     31  O   UNL     1     109.002 128.780 141.527  0.00  0.00    +0.000 OA
ATOM     32  C   UNL     1     110.923 128.576 142.543  0.00  0.00    +0.000 C 
ATOM     33  C   UNL     1     110.112 128.671 142.419  0.00  0.00    +0.000 C 
ATOM     34  C   UNL     1     111.431 128.493 141.899  0.00  0.00    +0.000 C 
ATOM     35  C   UNL     1     109.811 128.685 141.651  0.00  0.00    +0.000 C 
ATOM     36  C   UNL     1     110.321 128.602 141.007  0.00  0.00    +0.000 C 
ATOM     37  C   UNL     1     112.242 128.398 142.023  0.00  0.00    +0.000 C 
BRANCH  32  38
ATOM     38  O   UNL     1     111.224 128.562 143.311  0.00  0.00    +0.000 OA
BRANCH  38  43
ATOM     39  O   UNL     1     111.446 129.973 143.265  0.00  0.00    +0.000 OA
ATOM     40  O   UNL     1     111.519 128.569 144.935  0.00  0.00    +0.000 OA
ATOM     41  O   UNL     1     111.888 129.983 145.701  0.00  0.00    +0.000 OA
ATOM     42  O   UNL     1     111.962 131.389 144.843  0.00  0.00    +0.000 OA
ATOM     43  C   UNL     1     111.408 129.269 143.694  0.00  0.00    +0.000 C 
ATOM     44  C   UNL     1     111.556 129.272 144.505  0.00  0.00    +0.000 C 
ATOM     45  C   UNL     1     111.741 129.980 144.889  0.00  0.00    +0.000 C 
ATOM     46  C   UNL     1     111.778 130.683 144.460  0.00  0.00    +0.000 C 
ATOM     47  C   UNL     1     111.630 130.680 143.648  0.00  0.00    +0.000 C 
BRANCH  47  49
ATOM     48  O   UNL     1     110.974 131.738 142.947  0.00  0.00    +0.000 OA
ATOM     49  C   UNL     1     111.667 131.383 143.220  0.00  0.00    +0.000 C 
ENDBRANCH  47  49
ENDBRANCH  38  43
ENDBRANCH  32  38
ENDBRANCH  28  36
ENDBRANCH   3  28
TORSDOF 11
ENDMDL
MODEL 10
REMARK VINA RESULT:      -8.3      2.313      4.475
REMARK  Name = 44259831
REMARK  11 active torsions:
REMARK  status: ('A' for Active; 'I' for Inactive)
REMARK    1  A    between atoms: O_1  and  C_18
REMARK    2  A    between atoms: O_1  and  C_21
REMARK    3  A    between atoms: O_5  and  C_27
REMARK    4  A    between atoms: O_5  and  C_30
REMARK    5  A    between atoms: O_11  and  C_32
REMARK    6  A    between atoms: O_13  and  C_34
REMARK    7  A    between atoms: O_15  and  C_37
REMARK    8  A    between atoms: O_16  and  C_45
REMARK    9  A    between atoms: O_17  and  C_47
REMARK   10  A    between atoms: C_26  and  C_29
REMARK   11  A    between atoms: C_38  and  C_39
REMARK                            x       y       z     vdW  Elec       q    Type
REMARK                         _______ _______ _______ _____ _____    ______ ____
ROOT
ATOM      1  O   UNL     1     110.784 127.578 137.083  0.00  0.00    +0.000 OA
ATOM      2  O   UNL     1     109.583 128.085 139.187  0.00  0.00    +0.000 OA
ATOM      3  C   UNL     1     109.602 129.226 137.986  0.00  0.00    +0.000 A 
ATOM      4  C   UNL     1     110.002 128.474 137.877  0.00  0.00    +0.000 A 
ATOM      5  C   UNL     1     109.618 129.810 137.356  0.00  0.00    +0.000 A 
ATOM      6  C   UNL     1     110.403 128.304 137.176  0.00  0.00    +0.000 A 
ATOM      7  C   UNL     1     110.035 129.634 136.626  0.00  0.00    +0.000 A 
ATOM      8  C   UNL     1     109.983 127.917 138.486  0.00  0.00    +0.000 A 
ATOM      9  C   UNL     1     110.430 128.876 136.535  0.00  0.00    +0.000 A 
ATOM     10  C   UNL     1     110.364 127.191 138.393  0.00  0.00    +0.000 A 
ATOM     11  C   UNL     1     110.764 127.021 137.692  0.00  0.00    +0.000 A 
ENDROOT
BRANCH  11  12
ATOM     12  C   UNL     1     111.145 126.296 137.599  0.00  0.00    +0.000 A 
ATOM     13  C   UNL     1     111.923 126.203 137.856  0.00  0.00    +0.000 A 
ATOM     14  C   UNL     1     110.748 125.662 137.248  0.00  0.00    +0.000 A 
ATOM     15  C   UNL     1     112.305 125.478 137.763  0.00  0.00    +0.000 A 
ATOM     16  C   UNL     1     111.130 124.937 137.155  0.00  0.00    +0.000 A 
ATOM     17  C   UNL     1     111.908 124.844 137.412  0.00  0.00    +0.000 A 
BRANCH  15  18
ATOM     18  O   UNL     1     113.083 125.385 138.020  0.00  0.00    +0.000 OA
ATOM     19  C   UNL     1     113.581 126.041 138.074  0.00  0.00    +0.000 C 
ENDBRANCH  15  18
BRANCH  17  20
ATOM     20  O   UNL     1     112.290 124.119 137.319  0.00  0.00    +0.000 OA
ATOM     21  C   UNL     1     111.880 123.475 137.006  0.00  0.00    +0.000 C 
ENDBRANCH  17  20
ENDBRANCH  11  12
BRANCH   5  22
ATOM     22  O   UNL     1     109.236 130.535 137.452  0.00  0.00    +0.000 OA
ATOM     23  C   UNL     1     108.664 130.774 136.908  0.00  0.00    +0.000 C 
ENDBRANCH   5  22
BRANCH   7  24
ATOM     24  O   UNL     1     110.056 130.188 136.015  0.00  0.00    +0.000 OA
ATOM     25  C   UNL     1     110.567 130.081 135.377  0.00  0.00    +0.000 C 
ENDBRANCH   7  24
BRANCH  10  26
ATOM     26  O   UNL     1     110.344 126.634 139.002  0.00  0.00    +0.000 OA
ATOM     27  C   UNL     1     109.677 126.569 139.481  0.00  0.00    +0.000 C 
ENDBRANCH  10  26
BRANCH   3  28
ATOM     28  O   UNL     1     109.204 129.387 138.691  0.00  0.00    +0.000 OA
BRANCH  28  36
ATOM     29  O   UNL     1     110.373 129.989 139.247  0.00  0.00    +0.000 OA
ATOM     30  O   UNL     1     109.002 130.995 141.044  0.00  0.00    +0.000 OA
ATOM     31  O   UNL     1     108.289 130.057 139.889  0.00  0.00    +0.000 OA
ATOM     32  C   UNL     1     110.273 130.794 140.424  0.00  0.00    +0.000 C 
ATOM     33  C   UNL     1     109.458 130.660 140.445  0.00  0.00    +0.000 C 
ATOM     34  C   UNL     1     110.730 130.458 139.825  0.00  0.00    +0.000 C 
ATOM     35  C   UNL     1     109.102 130.191 139.868  0.00  0.00    +0.000 C 
ATOM     36  C   UNL     1     109.560 129.856 139.268  0.00  0.00    +0.000 C 
ATOM     37  C   UNL     1     111.544 130.592 139.803  0.00  0.00    +0.000 C 
BRANCH  32  38
ATOM     38  O   UNL     1     110.629 131.263 141.001  0.00  0.00    +0.000 OA
BRANCH  38  43
ATOM     39  O   UNL     1     110.890 130.098 141.788  0.00  0.00    +0.000 OA
ATOM     40  O   UNL     1     111.260 132.211 142.196  0.00  0.00    +0.000 OA
ATOM     41  O   UNL     1     111.837 131.520 143.579  0.00  0.00    +0.000 OA
ATOM     42  O   UNL     1     111.782 129.883 143.768  0.00  0.00    +0.000 OA
ATOM     43  C   UNL     1     110.917 130.918 141.693  0.00  0.00    +0.000 C 
ATOM     44  C   UNL     1     111.233 131.392 142.290  0.00  0.00    +0.000 C 
ATOM     45  C   UNL     1     111.521 131.046 142.982  0.00  0.00    +0.000 C 
ATOM     46  C   UNL     1     111.493 130.227 143.076  0.00  0.00    +0.000 C 
ATOM     47  C   UNL     1     111.178 129.753 142.479  0.00  0.00    +0.000 C 
BRANCH  47  49
ATOM     48  O   UNL     1     110.435 128.563 142.750  0.00  0.00    +0.000 OA
ATOM     49  C   UNL     1     111.151 128.935 142.574  0.00  0.00    +0.000 C 
ENDBRANCH  47  49
ENDBRANCH  38  43
ENDBRANCH  32  38
ENDBRANCH  28  36
ENDBRANCH   3  28
TORSDOF 11
ENDMDL
