MODEL 1
REMARK VINA RESULT:     -10.0      0.000      0.000
REMARK  Name = 131836780
REMARK  7 active torsions:
REMARK  status: ('A' for Active; 'I' for Inactive)
REMARK    1  A    between atoms: O_2  and  C_20
REMARK    2  A    between atoms: O_2  and  C_22
REMARK    3  A    between atoms: O_7  and  C_27
REMARK    4  A    between atoms: O_7  and  C_33
REMARK    5  A    between atoms: C_21  and  C_29
REMARK    6  A    between atoms: C_25  and  C_34
REMARK    7  A    between atoms: C_28  and  C_35
REMARK                            x       y       z     vdW  Elec       q    Type
REMARK                         _______ _______ _______ _____ _____    ______ ____
ROOT
ATOM      1  O   UNL     1     113.704 126.331 138.765  0.00  0.00    +0.000 OA
ATOM      2  O   UNL     1     111.374 125.500 138.678  0.00  0.00    +0.000 OA
ATOM      3  O   UNL     1     113.189 127.567 141.350  0.00  0.00    +0.000 OA
ATOM      4  C   UNL     1     112.670 125.614 138.087  0.00  0.00    +0.000 C 
ATOM      5  C   UNL     1     113.447 125.891 138.116  0.00  0.00    +0.000 C 
ATOM      6  C   UNL     1     112.151 125.777 138.707  0.00  0.00    +0.000 C 
ATOM      7  C   UNL     1     112.409 126.217 139.355  0.00  0.00    +0.000 A 
ATOM      8  C   UNL     1     113.185 126.495 139.384  0.00  0.00    +0.000 A 
ATOM      9  C   UNL     1     111.858 126.381 139.995  0.00  0.00    +0.000 A 
ATOM     10  C   UNL     1     113.465 126.954 140.054  0.00  0.00    +0.000 A 
ATOM     11  C   UNL     1     112.120 126.839 140.673  0.00  0.00    +0.000 A 
ATOM     12  C   UNL     1     112.929 127.127 140.703  0.00  0.00    +0.000 A 
ENDROOT
BRANCH   5  15
ATOM     13  O   UNL     1     114.841 126.735 135.768  0.00  0.00    +0.000 OA
ATOM     14  O   UNL     1     115.523 125.238 135.635  0.00  0.00    +0.000 OA
ATOM     15  C   UNL     1     113.966 125.728 137.496  0.00  0.00    +0.000 A 
ATOM     16  C   UNL     1     114.144 126.312 136.942  0.00  0.00    +0.000 A 
ATOM     17  C   UNL     1     114.307 124.980 137.429  0.00  0.00    +0.000 A 
ATOM     18  C   UNL     1     114.663 126.149 136.322  0.00  0.00    +0.000 A 
ATOM     19  C   UNL     1     114.826 124.817 136.809  0.00  0.00    +0.000 A 
ATOM     20  C   UNL     1     115.004 125.401 136.255  0.00  0.00    +0.000 A 
ENDBRANCH   5  15
BRANCH   4  21
ATOM     21  O   UNL     1     112.412 125.174 137.438  0.00  0.00    +0.000 OA
BRANCH  21  27
ATOM     22  O   UNL     1     111.589 126.254 136.877  0.00  0.00    +0.000 OA
ATOM     23  O   UNL     1     111.345 124.192 136.382  0.00  0.00    +0.000 OA
ATOM     24  O   UNL     1     110.207 125.306 135.553  0.00  0.00    +0.000 OA
ATOM     25  C   UNL     1     111.318 125.012 136.471  0.00  0.00    +0.000 C 
ATOM     26  C   UNL     1     110.795 125.524 136.091  0.00  0.00    +0.000 C 
ATOM     27  C   UNL     1     111.809 125.462 136.957  0.00  0.00    +0.000 C 
ATOM     28  C   UNL     1     110.963 126.291 136.341  0.00  0.00    +0.000 C 
BRANCH  28  30
ATOM     29  O   UNL     1     110.932 127.713 136.197  0.00  0.00    +0.000 OA
ATOM     30  C   UNL     1     110.572 126.977 136.099  0.00  0.00    +0.000 C 
ENDBRANCH  28  30
ENDBRANCH  21  27
ENDBRANCH   4  21
BRANCH   9  31
ATOM     31  O   UNL     1     111.083 126.100 139.958  0.00  0.00    +0.000 OA
BRANCH  31  39
ATOM     32  O   UNL     1     110.359 127.323 139.810  0.00  0.00    +0.000 OA
ATOM     33  O   UNL     1     108.768 126.593 141.560  0.00  0.00    +0.000 OA
ATOM     34  O   UNL     1     110.023 125.613 141.125  0.00  0.00    +0.000 OA
ATOM     35  O   UNL     1     108.574 128.059 140.829  0.00  0.00    +0.000 OA
ATOM     36  C   UNL     1     109.298 126.836 140.977  0.00  0.00    +0.000 C 
ATOM     37  C   UNL     1     109.926 126.346 140.759  0.00  0.00    +0.000 C 
ATOM     38  C   UNL     1     109.202 127.569 140.611  0.00  0.00    +0.000 C 
ATOM     39  C   UNL     1     110.456 126.589 140.175  0.00  0.00    +0.000 C 
ATOM     40  C   UNL     1     109.732 127.812 140.027  0.00  0.00    +0.000 C 
BRANCH  40  43
ATOM     41  O   UNL     1     109.922 129.228 140.023  0.00  0.00    +0.000 OA
ATOM     42  O   UNL     1     109.248 128.595 138.934  0.00  0.00    +0.000 OA
ATOM     43  C   UNL     1     109.634 128.546 139.662  0.00  0.00    +0.000 C 
ENDBRANCH  40  43
ENDBRANCH  31  39
ENDBRANCH   9  31
TORSDOF 7
ENDMDL
MODEL 2
REMARK VINA RESULT:      -9.9      2.381      4.089
REMARK  Name = 131836780
REMARK  7 active torsions:
REMARK  status: ('A' for Active; 'I' for Inactive)
REMARK    1  A    between atoms: O_2  and  C_20
REMARK    2  A    between atoms: O_2  and  C_22
REMARK    3  A    between atoms: O_7  and  C_27
REMARK    4  A    between atoms: O_7  and  C_33
REMARK    5  A    between atoms: C_21  and  C_29
REMARK    6  A    between atoms: C_25  and  C_34
REMARK    7  A    between atoms: C_28  and  C_35
REMARK                            x       y       z     vdW  Elec       q    Type
REMARK                         _______ _______ _______ _____ _____    ______ ____
ROOT
ATOM      1  O   UNL     1     113.571 127.261 136.545  0.00  0.00    +0.000 OA
ATOM      2  O   UNL     1     112.109 128.208 138.303  0.00  0.00    +0.000 OA
ATOM      3  O   UNL     1     114.052 129.928 135.481  0.00  0.00    +0.000 OA
ATOM      4  C   UNL     1     112.725 127.078 137.682  0.00  0.00    +0.000 C 
ATOM      5  C   UNL     1     113.212 126.762 137.096  0.00  0.00    +0.000 C 
ATOM      6  C   UNL     1     112.597 127.892 137.717  0.00  0.00    +0.000 C 
ATOM      7  C   UNL     1     112.955 128.390 137.166  0.00  0.00    +0.000 A 
ATOM      8  C   UNL     1     113.443 128.075 136.580  0.00  0.00    +0.000 A 
ATOM      9  C   UNL     1     112.814 129.237 137.214  0.00  0.00    +0.000 A 
ATOM     10  C   UNL     1     113.822 128.584 136.001  0.00  0.00    +0.000 A 
ATOM     11  C   UNL     1     113.185 129.761 136.643  0.00  0.00    +0.000 A 
ATOM     12  C   UNL     1     113.692 129.432 136.032  0.00  0.00    +0.000 A 
ENDROOT
BRANCH   5  15
ATOM     13  O   UNL     1     114.916 124.505 137.506  0.00  0.00    +0.000 OA
ATOM     14  O   UNL     1     113.725 123.505 136.954  0.00  0.00    +0.000 OA
ATOM     15  C   UNL     1     113.340 125.948 137.060  0.00  0.00    +0.000 A 
ATOM     16  C   UNL     1     114.064 125.633 137.301  0.00  0.00    +0.000 A 
ATOM     17  C   UNL     1     112.745 125.448 136.784  0.00  0.00    +0.000 A 
ATOM     18  C   UNL     1     114.192 124.819 137.266  0.00  0.00    +0.000 A 
ATOM     19  C   UNL     1     112.873 124.634 136.749  0.00  0.00    +0.000 A 
ATOM     20  C   UNL     1     113.596 124.319 136.990  0.00  0.00    +0.000 A 
ENDBRANCH   5  15
BRANCH   4  21
ATOM     21  O   UNL     1     112.366 126.580 138.233  0.00  0.00    +0.000 OA
BRANCH  21  27
ATOM     22  O   UNL     1     113.237 126.965 139.352  0.00  0.00    +0.000 OA
ATOM     23  O   UNL     1     111.296 126.110 139.595  0.00  0.00    +0.000 OA
ATOM     24  O   UNL     1     112.151 126.489 141.128  0.00  0.00    +0.000 OA
ATOM     25  C   UNL     1     112.049 126.442 139.661  0.00  0.00    +0.000 C 
ATOM     26  C   UNL     1     112.442 126.616 140.366  0.00  0.00    +0.000 C 
ATOM     27  C   UNL     1     112.540 126.657 139.035  0.00  0.00    +0.000 C 
ATOM     28  C   UNL     1     113.176 126.939 140.174  0.00  0.00    +0.000 C 
BRANCH  28  30
ATOM     29  O   UNL     1     114.548 127.062 140.553  0.00  0.00    +0.000 OA
ATOM     30  C   UNL     1     113.749 127.192 140.711  0.00  0.00    +0.000 C 
ENDBRANCH  28  30
ENDBRANCH  21  27
ENDBRANCH   4  21
BRANCH   9  31
ATOM     31  O   UNL     1     112.325 129.544 137.803  0.00  0.00    +0.000 OA
BRANCH  31  39
ATOM     32  O   UNL     1     111.190 129.928 137.026  0.00  0.00    +0.000 OA
ATOM     33  O   UNL     1     111.117 132.102 138.206  0.00  0.00    +0.000 OA
ATOM     34  O   UNL     1     112.276 130.994 138.590  0.00  0.00    +0.000 OA
ATOM     35  O   UNL     1     110.005 131.762 137.034  0.00  0.00    +0.000 OA
ATOM     36  C   UNL     1     111.141 131.378 137.812  0.00  0.00    +0.000 C 
ATOM     37  C   UNL     1     111.721 130.823 138.005  0.00  0.00    +0.000 C 
ATOM     38  C   UNL     1     110.586 131.207 137.227  0.00  0.00    +0.000 C 
ATOM     39  C   UNL     1     111.746 130.098 137.611  0.00  0.00    +0.000 C 
ATOM     40  C   UNL     1     110.610 130.482 136.833  0.00  0.00    +0.000 C 
BRANCH  40  43
ATOM     41  O   UNL     1     110.166 130.589 135.479  0.00  0.00    +0.000 OA
ATOM     42  O   UNL     1     109.386 129.865 136.432  0.00  0.00    +0.000 OA
ATOM     43  C   UNL     1     110.054 130.312 136.248  0.00  0.00    +0.000 C 
ENDBRANCH  40  43
ENDBRANCH  31  39
ENDBRANCH   9  31
TORSDOF 7
ENDMDL
MODEL 3
REMARK VINA RESULT:      -9.9      2.235      4.016
REMARK  Name = 131836780
REMARK  7 active torsions:
REMARK  status: ('A' for Active; 'I' for Inactive)
REMARK    1  A    between atoms: O_2  and  C_20
REMARK    2  A    between atoms: O_2  and  C_22
REMARK    3  A    between atoms: O_7  and  C_27
REMARK    4  A    between atoms: O_7  and  C_33
REMARK    5  A    between atoms: C_21  and  C_29
REMARK    6  A    between atoms: C_25  and  C_34
REMARK    7  A    between atoms: C_28  and  C_35
REMARK                            x       y       z     vdW  Elec       q    Type
REMARK                         _______ _______ _______ _____ _____    ______ ____
ROOT
ATOM      1  O   UNL     1     111.552 126.208 137.253  0.00  0.00    +0.000 OA
ATOM      2  O   UNL     1     111.547 128.315 135.955  0.00  0.00    +0.000 OA
ATOM      3  O   UNL     1     108.660 126.362 137.554  0.00  0.00    +0.000 OA
ATOM      4  C   UNL     1     112.260 127.220 136.533  0.00  0.00    +0.000 C 
ATOM      5  C   UNL     1     112.261 126.517 136.965  0.00  0.00    +0.000 C 
ATOM      6  C   UNL     1     111.548 127.613 136.388  0.00  0.00    +0.000 C 
ATOM      7  C   UNL     1     110.840 127.303 136.676  0.00  0.00    +0.000 A 
ATOM      8  C   UNL     1     110.842 126.601 137.108  0.00  0.00    +0.000 A 
ATOM      9  C   UNL     1     110.106 127.723 136.518  0.00  0.00    +0.000 A 
ATOM     10  C   UNL     1     110.111 126.269 137.413  0.00  0.00    +0.000 A 
ATOM     11  C   UNL     1     109.365 127.405 136.815  0.00  0.00    +0.000 A 
ATOM     12  C   UNL     1     109.368 126.674 137.265  0.00  0.00    +0.000 A 
ENDROOT
BRANCH   5  15
ATOM     13  O   UNL     1     114.377 125.805 138.750  0.00  0.00    +0.000 OA
ATOM     14  O   UNL     1     115.104 124.944 137.544  0.00  0.00    +0.000 OA
ATOM     15  C   UNL     1     112.972 126.124 137.110  0.00  0.00    +0.000 A 
ATOM     16  C   UNL     1     113.320 126.161 137.857  0.00  0.00    +0.000 A 
ATOM     17  C   UNL     1     113.336 125.694 136.508  0.00  0.00    +0.000 A 
ATOM     18  C   UNL     1     114.030 125.768 138.002  0.00  0.00    +0.000 A 
ATOM     19  C   UNL     1     114.046 125.301 136.652  0.00  0.00    +0.000 A 
ATOM     20  C   UNL     1     114.394 125.337 137.399  0.00  0.00    +0.000 A 
ENDBRANCH   5  15
BRANCH   4  21
ATOM     21  O   UNL     1     112.968 127.529 136.245  0.00  0.00    +0.000 OA
BRANCH  21  27
ATOM     22  O   UNL     1     113.044 128.643 137.201  0.00  0.00    +0.000 OA
ATOM     23  O   UNL     1     113.982 128.655 135.284  0.00  0.00    +0.000 OA
ATOM     24  O   UNL     1     114.232 130.144 136.256  0.00  0.00    +0.000 OA
ATOM     25  C   UNL     1     113.683 128.797 136.040  0.00  0.00    +0.000 C 
ATOM     26  C   UNL     1     113.798 129.481 136.487  0.00  0.00    +0.000 C 
ATOM     27  C   UNL     1     113.217 128.279 136.481  0.00  0.00    +0.000 C 
ATOM     28  C   UNL     1     113.403 129.385 137.204  0.00  0.00    +0.000 C 
BRANCH  28  30
ATOM     29  O   UNL     1     113.136 129.701 138.572  0.00  0.00    +0.000 OA
ATOM     30  C   UNL     1     113.373 129.936 137.818  0.00  0.00    +0.000 C 
ENDBRANCH  28  30
ENDBRANCH  21  27
ENDBRANCH   4  21
BRANCH   9  31
ATOM     31  O   UNL     1     110.114 128.425 136.085  0.00  0.00    +0.000 OA
BRANCH  31  39
ATOM     32  O   UNL     1     109.722 129.366 137.086  0.00  0.00    +0.000 OA
ATOM     33  O   UNL     1     108.093 130.362 135.511  0.00  0.00    +0.000 OA
ATOM     34  O   UNL     1     109.028 129.089 135.035  0.00  0.00    +0.000 OA
ATOM     35  O   UNL     1     108.244 130.972 137.037  0.00  0.00    +0.000 OA
ATOM     36  C   UNL     1     108.636 130.030 136.036  0.00  0.00    +0.000 C 
ATOM     37  C   UNL     1     109.104 129.393 135.798  0.00  0.00    +0.000 C 
ATOM     38  C   UNL     1     108.712 130.334 136.799  0.00  0.00    +0.000 C 
ATOM     39  C   UNL     1     109.647 129.061 136.323  0.00  0.00    +0.000 C 
ATOM     40  C   UNL     1     109.255 130.002 137.324  0.00  0.00    +0.000 C 
BRANCH  40  43
ATOM     41  O   UNL     1     108.796 130.086 138.674  0.00  0.00    +0.000 OA
ATOM     42  O   UNL     1     109.940 130.834 138.262  0.00  0.00    +0.000 OA
ATOM     43  C   UNL     1     109.330 130.307 138.087  0.00  0.00    +0.000 C 
ENDBRANCH  40  43
ENDBRANCH  31  39
ENDBRANCH   9  31
TORSDOF 7
ENDMDL
MODEL 4
REMARK VINA RESULT:      -9.7      2.720      5.170
REMARK  Name = 131836780
REMARK  7 active torsions:
REMARK  status: ('A' for Active; 'I' for Inactive)
REMARK    1  A    between atoms: O_2  and  C_20
REMARK    2  A    between atoms: O_2  and  C_22
REMARK    3  A    between atoms: O_7  and  C_27
REMARK    4  A    between atoms: O_7  and  C_33
REMARK    5  A    between atoms: C_21  and  C_29
REMARK    6  A    between atoms: C_25  and  C_34
REMARK    7  A    between atoms: C_28  and  C_35
REMARK                            x       y       z     vdW  Elec       q    Type
REMARK                         _______ _______ _______ _____ _____    ______ ____
ROOT
ATOM      1  O   UNL     1     113.327 128.532 140.420  0.00  0.00    +0.000 OA
ATOM      2  O   UNL     1     113.042 128.604 137.963  0.00  0.00    +0.000 OA
ATOM      3  O   UNL     1     111.953 125.967 140.525  0.00  0.00    +0.000 OA
ATOM      4  C   UNL     1     113.523 129.197 139.170  0.00  0.00    +0.000 C 
ATOM      5  C   UNL     1     113.618 129.173 139.990  0.00  0.00    +0.000 C 
ATOM      6  C   UNL     1     113.137 128.579 138.782  0.00  0.00    +0.000 C 
ATOM      7  C   UNL     1     112.847 127.939 139.213  0.00  0.00    +0.000 A 
ATOM      8  C   UNL     1     112.942 127.915 140.032  0.00  0.00    +0.000 A 
ATOM      9  C   UNL     1     112.447 127.302 138.796  0.00  0.00    +0.000 A 
ATOM     10  C   UNL     1     112.644 127.253 140.491  0.00  0.00    +0.000 A 
ATOM     11  C   UNL     1     112.143 126.632 139.239  0.00  0.00    +0.000 A 
ATOM     12  C   UNL     1     112.242 126.607 140.092  0.00  0.00    +0.000 A 
ENDROOT
BRANCH   5  15
ATOM     13  O   UNL     1     113.535 131.432 141.739  0.00  0.00    +0.000 OA
ATOM     14  O   UNL     1     115.160 131.643 141.544  0.00  0.00    +0.000 OA
ATOM     15  C   UNL     1     114.003 129.790 140.378  0.00  0.00    +0.000 A 
ATOM     16  C   UNL     1     113.577 130.303 140.864  0.00  0.00    +0.000 A 
ATOM     17  C   UNL     1     114.815 129.896 140.281  0.00  0.00    +0.000 A 
ATOM     18  C   UNL     1     113.962 130.920 141.252  0.00  0.00    +0.000 A 
ATOM     19  C   UNL     1     115.201 130.513 140.669  0.00  0.00    +0.000 A 
ATOM     20  C   UNL     1     114.774 131.026 141.155  0.00  0.00    +0.000 A 
ENDBRANCH   5  15
BRANCH   4  21
ATOM     21  O   UNL     1     113.813 129.838 138.740  0.00  0.00    +0.000 OA
BRANCH  21  27
ATOM     22  O   UNL     1     112.504 130.461 138.493  0.00  0.00    +0.000 OA
ATOM     23  O   UNL     1     114.209 130.739 137.239  0.00  0.00    +0.000 OA
ATOM     24  O   UNL     1     112.733 131.615 136.712  0.00  0.00    +0.000 OA
ATOM     25  C   UNL     1     113.477 130.729 137.620  0.00  0.00    +0.000 C 
ATOM     26  C   UNL     1     112.798 131.132 137.378  0.00  0.00    +0.000 C 
ATOM     27  C   UNL     1     113.296 130.314 138.310  0.00  0.00    +0.000 C 
ATOM     28  C   UNL     1     112.198 130.966 137.918  0.00  0.00    +0.000 C 
BRANCH  28  30
ATOM     29  O   UNL     1     111.034 131.457 138.584  0.00  0.00    +0.000 OA
ATOM     30  C   UNL     1     111.425 131.254 137.887  0.00  0.00    +0.000 C 
ENDBRANCH  28  30
ENDBRANCH  21  27
ENDBRANCH   4  21
BRANCH   9  31
ATOM     31  O   UNL     1     112.357 127.334 137.977  0.00  0.00    +0.000 OA
BRANCH  31  39
ATOM     32  O   UNL     1     113.273 126.328 137.541  0.00  0.00    +0.000 OA
ATOM     33  O   UNL     1     111.517 125.357 136.091  0.00  0.00    +0.000 OA
ATOM     34  O   UNL     1     111.186 126.687 137.010  0.00  0.00    +0.000 OA
ATOM     35  O   UNL     1     113.019 124.675 136.138  0.00  0.00    +0.000 OA
ATOM     36  C   UNL     1     112.103 125.681 136.574  0.00  0.00    +0.000 C 
ATOM     37  C   UNL     1     111.937 126.346 137.034  0.00  0.00    +0.000 C 
ATOM     38  C   UNL     1     112.853 125.340 136.598  0.00  0.00    +0.000 C 
ATOM     39  C   UNL     1     112.522 126.670 137.517  0.00  0.00    +0.000 C 
ATOM     40  C   UNL     1     113.439 125.663 137.081  0.00  0.00    +0.000 C 
BRANCH  40  43
ATOM     41  O   UNL     1     114.341 124.694 137.617  0.00  0.00    +0.000 OA
ATOM     42  O   UNL     1     114.788 125.608 136.615  0.00  0.00    +0.000 OA
ATOM     43  C   UNL     1     114.189 125.322 137.105  0.00  0.00    +0.000 C 
ENDBRANCH  40  43
ENDBRANCH  31  39
ENDBRANCH   9  31
TORSDOF 7
ENDMDL
MODEL 5
REMARK VINA RESULT:      -9.7      2.343      4.000
REMARK  Name = 131836780
REMARK  7 active torsions:
REMARK  status: ('A' for Active; 'I' for Inactive)
REMARK    1  A    between atoms: O_2  and  C_20
REMARK    2  A    between atoms: O_2  and  C_22
REMARK    3  A    between atoms: O_7  and  C_27
REMARK    4  A    between atoms: O_7  and  C_33
REMARK    5  A    between atoms: C_21  and  C_29
REMARK    6  A    between atoms: C_25  and  C_34
REMARK    7  A    between atoms: C_28  and  C_35
REMARK                            x       y       z     vdW  Elec       q    Type
REMARK                         _______ _______ _______ _____ _____    ______ ____
ROOT
ATOM      1  O   UNL     1     113.815 127.415 136.218  0.00  0.00    +0.000 OA
ATOM      2  O   UNL     1     111.361 127.703 136.360  0.00  0.00    +0.000 OA
ATOM      3  O   UNL     1     114.084 130.084 135.087  0.00  0.00    +0.000 OA
ATOM      4  C   UNL     1     112.526 126.903 136.567  0.00  0.00    +0.000 C 
ATOM      5  C   UNL     1     113.344 126.807 136.520  0.00  0.00    +0.000 C 
ATOM      6  C   UNL     1     112.179 127.608 136.312  0.00  0.00    +0.000 C 
ATOM      7  C   UNL     1     112.649 128.214 136.012  0.00  0.00    +0.000 A 
ATOM      8  C   UNL     1     113.467 128.118 135.965  0.00  0.00    +0.000 A 
ATOM      9  C   UNL     1     112.275 128.943 135.750  0.00  0.00    +0.000 A 
ATOM     10  C   UNL     1     113.967 128.743 135.653  0.00  0.00    +0.000 A 
ATOM     11  C   UNL     1     112.760 129.579 135.436  0.00  0.00    +0.000 A 
ATOM     12  C   UNL     1     113.611 129.478 135.387  0.00  0.00    +0.000 A 
ENDROOT
BRANCH   5  15
ATOM     13  O   UNL     1     114.902 125.366 138.434  0.00  0.00    +0.000 OA
ATOM     14  O   UNL     1     114.735 123.992 137.535  0.00  0.00    +0.000 OA
ATOM     15  C   UNL     1     113.692 126.104 136.773  0.00  0.00    +0.000 A 
ATOM     16  C   UNL     1     114.123 126.086 137.476  0.00  0.00    +0.000 A 
ATOM     17  C   UNL     1     113.609 125.417 136.324  0.00  0.00    +0.000 A 
ATOM     18  C   UNL     1     114.471 125.382 137.730  0.00  0.00    +0.000 A 
ATOM     19  C   UNL     1     113.956 124.713 136.578  0.00  0.00    +0.000 A 
ATOM     20  C   UNL     1     114.387 124.695 137.281  0.00  0.00    +0.000 A 
ENDBRANCH   5  15
BRANCH   4  21
ATOM     21  O   UNL     1     112.056 126.296 136.867  0.00  0.00    +0.000 OA
BRANCH  21  27
ATOM     22  O   UNL     1     111.784 126.931 138.165  0.00  0.00    +0.000 OA
ATOM     23  O   UNL     1     110.480 125.519 137.235  0.00  0.00    +0.000 OA
ATOM     24  O   UNL     1     109.911 126.143 138.820  0.00  0.00    +0.000 OA
ATOM     25  C   UNL     1     110.874 126.067 137.711  0.00  0.00    +0.000 C 
ATOM     26  C   UNL     1     110.613 126.354 138.439  0.00  0.00    +0.000 C 
ATOM     27  C   UNL     1     111.598 126.424 137.541  0.00  0.00    +0.000 C 
ATOM     28  C   UNL     1     111.175 126.887 138.719  0.00  0.00    +0.000 C 
BRANCH  28  30
ATOM     29  O   UNL     1     111.802 127.697 139.715  0.00  0.00    +0.000 OA
ATOM     30  C   UNL     1     111.135 127.305 139.430  0.00  0.00    +0.000 C 
ENDBRANCH  28  30
ENDBRANCH  21  27
ENDBRANCH   4  21
BRANCH   9  31
ATOM     31  O   UNL     1     111.456 129.031 135.801  0.00  0.00    +0.000 OA
BRANCH  31  39
ATOM     32  O   UNL     1     111.363 129.985 136.860  0.00  0.00    +0.000 OA
ATOM     33  O   UNL     1     109.709 131.279 135.549  0.00  0.00    +0.000 OA
ATOM     34  O   UNL     1     110.354 129.893 134.927  0.00  0.00    +0.000 OA
ATOM     35  O   UNL     1     110.167 131.802 137.046  0.00  0.00    +0.000 OA
ATOM     36  C   UNL     1     110.261 130.847 135.986  0.00  0.00    +0.000 C 
ATOM     37  C   UNL     1     110.583 130.154 135.675  0.00  0.00    +0.000 C 
ATOM     38  C   UNL     1     110.490 131.108 136.734  0.00  0.00    +0.000 C 
ATOM     39  C   UNL     1     111.134 129.723 136.112  0.00  0.00    +0.000 C 
ATOM     40  C   UNL     1     111.041 130.677 137.171  0.00  0.00    +0.000 C 
BRANCH  40  43
ATOM     41  O   UNL     1     111.898 131.467 137.998  0.00  0.00    +0.000 OA
ATOM     42  O   UNL     1     110.868 130.673 138.590  0.00  0.00    +0.000 OA
ATOM     43  C   UNL     1     111.269 130.940 137.920  0.00  0.00    +0.000 C 
ENDBRANCH  40  43
ENDBRANCH  31  39
ENDBRANCH   9  31
TORSDOF 7
ENDMDL
MODEL 6
REMARK VINA RESULT:      -9.6      2.204      3.486
REMARK  Name = 131836780
REMARK  7 active torsions:
REMARK  status: ('A' for Active; 'I' for Inactive)
REMARK    1  A    between atoms: O_2  and  C_20
REMARK    2  A    between atoms: O_2  and  C_22
REMARK    3  A    between atoms: O_7  and  C_27
REMARK    4  A    between atoms: O_7  and  C_33
REMARK    5  A    between atoms: C_21  and  C_29
REMARK    6  A    between atoms: C_25  and  C_34
REMARK    7  A    between atoms: C_28  and  C_35
REMARK                            x       y       z     vdW  Elec       q    Type
REMARK                         _______ _______ _______ _____ _____    ______ ____
ROOT
ATOM      1  O   UNL     1     113.317 126.153 139.074  0.00  0.00    +0.000 OA
ATOM      2  O   UNL     1     112.688 128.519 138.708  0.00  0.00    +0.000 OA
ATOM      3  O   UNL     1     114.970 126.923 141.344  0.00  0.00    +0.000 OA
ATOM      4  C   UNL     1     112.598 127.143 138.334  0.00  0.00    +0.000 C 
ATOM      5  C   UNL     1     112.808 126.355 138.456  0.00  0.00    +0.000 C 
ATOM      6  C   UNL     1     112.898 127.731 138.830  0.00  0.00    +0.000 C 
ATOM      7  C   UNL     1     113.407 127.529 139.447  0.00  0.00    +0.000 A 
ATOM      8  C   UNL     1     113.617 126.741 139.569  0.00  0.00    +0.000 A 
ATOM      9  C   UNL     1     113.712 128.151 139.957  0.00  0.00    +0.000 A 
ATOM     10  C   UNL     1     114.146 126.519 140.208  0.00  0.00    +0.000 A 
ATOM     11  C   UNL     1     114.243 127.947 140.601  0.00  0.00    +0.000 A 
ATOM     12  C   UNL     1     114.461 127.126 140.728  0.00  0.00    +0.000 A 
ENDROOT
BRANCH   5  15
ATOM     13  O   UNL     1     113.187 124.468 136.342  0.00  0.00    +0.000 OA
ATOM     14  O   UNL     1     111.609 124.004 136.474  0.00  0.00    +0.000 OA
ATOM     15  C   UNL     1     112.508 125.767 137.961  0.00  0.00    +0.000 A 
ATOM     16  C   UNL     1     112.997 125.411 137.399  0.00  0.00    +0.000 A 
ATOM     17  C   UNL     1     111.719 125.535 138.026  0.00  0.00    +0.000 A 
ATOM     18  C   UNL     1     112.697 124.824 136.904  0.00  0.00    +0.000 A 
ATOM     19  C   UNL     1     111.420 124.947 137.531  0.00  0.00    +0.000 A 
ATOM     20  C   UNL     1     111.909 124.591 136.969  0.00  0.00    +0.000 A 
ENDBRANCH   5  15
BRANCH   4  21
ATOM     21  O   UNL     1     112.089 127.344 137.717  0.00  0.00    +0.000 OA
BRANCH  21  27
ATOM     22  O   UNL     1     113.120 127.918 136.840  0.00  0.00    +0.000 OA
ATOM     23  O   UNL     1     111.063 128.486 136.788  0.00  0.00    +0.000 OA
ATOM     24  O   UNL     1     112.113 129.342 135.609  0.00  0.00    +0.000 OA
ATOM     25  C   UNL     1     111.875 128.374 136.690  0.00  0.00    +0.000 C 
ATOM     26  C   UNL     1     112.358 128.767 136.149  0.00  0.00    +0.000 C 
ATOM     27  C   UNL     1     112.346 127.849 137.118  0.00  0.00    +0.000 C 
ATOM     28  C   UNL     1     113.127 128.485 136.242  0.00  0.00    +0.000 C 
BRANCH  28  30
ATOM     29  O   UNL     1     114.426 128.215 135.712  0.00  0.00    +0.000 OA
ATOM     30  C   UNL     1     113.788 128.728 135.811  0.00  0.00    +0.000 C 
ENDBRANCH  28  30
ENDBRANCH  21  27
ENDBRANCH   4  21
BRANCH   9  31
ATOM     31  O   UNL     1     113.498 128.937 139.827  0.00  0.00    +0.000 OA
BRANCH  31  39
ATOM     32  O   UNL     1     112.720 129.229 140.990  0.00  0.00    +0.000 OA
ATOM     33  O   UNL     1     114.027 131.301 141.344  0.00  0.00    +0.000 OA
ATOM     34  O   UNL     1     114.369 130.318 140.063  0.00  0.00    +0.000 OA
ATOM     35  O   UNL     1     112.814 130.903 142.389  0.00  0.00    +0.000 OA
ATOM     36  C   UNL     1     113.591 130.610 141.226  0.00  0.00    +0.000 C 
ATOM     37  C   UNL     1     113.762 130.118 140.585  0.00  0.00    +0.000 C 
ATOM     38  C   UNL     1     112.985 130.411 141.748  0.00  0.00    +0.000 C 
ATOM     39  C   UNL     1     113.327 129.428 140.467  0.00  0.00    +0.000 C 
ATOM     40  C   UNL     1     112.549 129.720 141.630  0.00  0.00    +0.000 C 
BRANCH  40  43
ATOM     41  O   UNL     1     112.117 129.144 142.864  0.00  0.00    +0.000 OA
ATOM     42  O   UNL     1     111.159 129.701 141.963  0.00  0.00    +0.000 OA
ATOM     43  C   UNL     1     111.942 129.522 142.153  0.00  0.00    +0.000 C 
ENDBRANCH  40  43
ENDBRANCH  31  39
ENDBRANCH   9  31
TORSDOF 7
ENDMDL
MODEL 7
REMARK VINA RESULT:      -9.5      1.925      3.738
REMARK  Name = 131836780
REMARK  7 active torsions:
REMARK  status: ('A' for Active; 'I' for Inactive)
REMARK    1  A    between atoms: O_2  and  C_20
REMARK    2  A    between atoms: O_2  and  C_22
REMARK    3  A    between atoms: O_7  and  C_27
REMARK    4  A    between atoms: O_7  and  C_33
REMARK    5  A    between atoms: C_21  and  C_29
REMARK    6  A    between atoms: C_25  and  C_34
REMARK    7  A    between atoms: C_28  and  C_35
REMARK                            x       y       z     vdW  Elec       q    Type
REMARK                         _______ _______ _______ _____ _____    ______ ____
ROOT
ATOM      1  O   UNL     1     112.639 127.046 136.216  0.00  0.00    +0.000 OA
ATOM      2  O   UNL     1     110.746 127.440 137.762  0.00  0.00    +0.000 OA
ATOM      3  O   UNL     1     111.967 129.465 134.743  0.00  0.00    +0.000 OA
ATOM      4  C   UNL     1     111.861 126.648 137.348  0.00  0.00    +0.000 C 
ATOM      5  C   UNL     1     112.492 126.517 136.833  0.00  0.00    +0.000 C 
ATOM      6  C   UNL     1     111.377 127.309 137.246  0.00  0.00    +0.000 C 
ATOM      7  C   UNL     1     111.524 127.837 136.630  0.00  0.00    +0.000 A 
ATOM      8  C   UNL     1     112.155 127.706 136.115  0.00  0.00    +0.000 A 
ATOM      9  C   UNL     1     111.012 128.521 136.536  0.00  0.00    +0.000 A 
ATOM     10  C   UNL     1     112.318 128.249 135.470  0.00  0.00    +0.000 A 
ATOM     11  C   UNL     1     111.161 129.075 135.896  0.00  0.00    +0.000 A 
ATOM     12  C   UNL     1     111.818 128.938 135.360  0.00  0.00    +0.000 A 
ENDROOT
BRANCH   5  15
ATOM     13  O   UNL     1     114.957 125.365 137.708  0.00  0.00    +0.000 OA
ATOM     14  O   UNL     1     114.428 123.875 137.237  0.00  0.00    +0.000 OA
ATOM     15  C   UNL     1     112.976 125.856 136.934  0.00  0.00    +0.000 A 
ATOM     16  C   UNL     1     113.724 125.940 137.270  0.00  0.00    +0.000 A 
ATOM     17  C   UNL     1     112.712 125.111 136.699  0.00  0.00    +0.000 A 
ATOM     18  C   UNL     1     114.208 125.280 137.371  0.00  0.00    +0.000 A 
ATOM     19  C   UNL     1     113.196 124.451 136.800  0.00  0.00    +0.000 A 
ATOM     20  C   UNL     1     113.944 124.535 137.136  0.00  0.00    +0.000 A 
ENDBRANCH   5  15
BRANCH   4  21
ATOM     21  O   UNL     1     111.714 126.120 137.964  0.00  0.00    +0.000 OA
BRANCH  21  27
ATOM     22  O   UNL     1     112.201 127.001 139.034  0.00  0.00    +0.000 OA
ATOM     23  O   UNL     1     110.788 125.430 139.338  0.00  0.00    +0.000 OA
ATOM     24  O   UNL     1     111.215 126.357 140.815  0.00  0.00    +0.000 OA
ATOM     25  C   UNL     1     111.317 126.063 139.378  0.00  0.00    +0.000 C 
ATOM     26  C   UNL     1     111.513 126.489 140.057  0.00  0.00    +0.000 C 
ATOM     27  C   UNL     1     111.742 126.379 138.746  0.00  0.00    +0.000 C 
ATOM     28  C   UNL     1     112.060 127.068 139.844  0.00  0.00    +0.000 C 
BRANCH  28  30
ATOM     29  O   UNL     1     113.058 128.057 140.104  0.00  0.00    +0.000 OA
ATOM     30  C   UNL     1     112.404 127.620 140.352  0.00  0.00    +0.000 C 
ENDBRANCH  28  30
ENDBRANCH  21  27
ENDBRANCH   4  21
BRANCH   9  31
ATOM     31  O   UNL     1     110.384 128.645 137.055  0.00  0.00    +0.000 OA
BRANCH  31  39
ATOM     32  O   UNL     1     110.843 129.817 137.732  0.00  0.00    +0.000 OA
ATOM     33  O   UNL     1     108.597 130.830 137.504  0.00  0.00    +0.000 OA
ATOM     34  O   UNL     1     108.886 129.321 136.903  0.00  0.00    +0.000 OA
ATOM     35  O   UNL     1     109.805 131.664 138.256  0.00  0.00    +0.000 OA
ATOM     36  C   UNL     1     109.346 130.492 137.580  0.00  0.00    +0.000 C 
ATOM     37  C   UNL     1     109.491 129.737 137.279  0.00  0.00    +0.000 C 
ATOM     38  C   UNL     1     109.950 130.909 137.956  0.00  0.00    +0.000 C 
ATOM     39  C   UNL     1     110.239 129.399 137.355  0.00  0.00    +0.000 C 
ATOM     40  C   UNL     1     110.699 130.571 138.032  0.00  0.00    +0.000 C 
BRANCH  40  43
ATOM     41  O   UNL     1     111.750 131.538 137.987  0.00  0.00    +0.000 OA
ATOM     42  O   UNL     1     111.460 130.856 139.208  0.00  0.00    +0.000 OA
ATOM     43  C   UNL     1     111.303 130.989 138.409  0.00  0.00    +0.000 C 
ENDBRANCH  40  43
ENDBRANCH  31  39
ENDBRANCH   9  31
TORSDOF 7
ENDMDL
MODEL 8
REMARK VINA RESULT:      -9.5      1.767      2.855
REMARK  Name = 131836780
REMARK  7 active torsions:
REMARK  status: ('A' for Active; 'I' for Inactive)
REMARK    1  A    between atoms: O_2  and  C_20
REMARK    2  A    between atoms: O_2  and  C_22
REMARK    3  A    between atoms: O_7  and  C_27
REMARK    4  A    between atoms: O_7  and  C_33
REMARK    5  A    between atoms: C_21  and  C_29
REMARK    6  A    between atoms: C_25  and  C_34
REMARK    7  A    between atoms: C_28  and  C_35
REMARK                            x       y       z     vdW  Elec       q    Type
REMARK                         _______ _______ _______ _____ _____    ______ ____
ROOT
ATOM      1  O   UNL     1     112.306 126.516 139.598  0.00  0.00    +0.000 OA
ATOM      2  O   UNL     1     112.408 128.880 138.872  0.00  0.00    +0.000 OA
ATOM      3  O   UNL     1     110.970 127.309 142.060  0.00  0.00    +0.000 OA
ATOM      4  C   UNL     1     112.685 127.499 138.631  0.00  0.00    +0.000 C 
ATOM      5  C   UNL     1     112.651 126.712 138.874  0.00  0.00    +0.000 C 
ATOM      6  C   UNL     1     112.374 128.093 139.114  0.00  0.00    +0.000 C 
ATOM      7  C   UNL     1     112.030 127.897 139.837  0.00  0.00    +0.000 A 
ATOM      8  C   UNL     1     111.996 127.109 140.080  0.00  0.00    +0.000 A 
ATOM      9  C   UNL     1     111.709 128.525 140.331  0.00  0.00    +0.000 A 
ATOM     10  C   UNL     1     111.640 126.894 140.831  0.00  0.00    +0.000 A 
ATOM     11  C   UNL     1     111.350 128.327 141.085  0.00  0.00    +0.000 A 
ATOM     12  C   UNL     1     111.314 127.507 141.337  0.00  0.00    +0.000 A 
ENDROOT
BRANCH   5  15
ATOM     13  O   UNL     1     112.261 124.541 137.056  0.00  0.00    +0.000 OA
ATOM     14  O   UNL     1     113.895 124.339 136.945  0.00  0.00    +0.000 OA
ATOM     15  C   UNL     1     112.962 126.119 138.392  0.00  0.00    +0.000 A 
ATOM     16  C   UNL     1     112.456 125.626 137.965  0.00  0.00    +0.000 A 
ATOM     17  C   UNL     1     113.779 126.017 138.336  0.00  0.00    +0.000 A 
ATOM     18  C   UNL     1     112.767 125.033 137.483  0.00  0.00    +0.000 A 
ATOM     19  C   UNL     1     114.089 125.425 137.855  0.00  0.00    +0.000 A 
ATOM     20  C   UNL     1     113.584 124.932 137.427  0.00  0.00    +0.000 A 
ENDBRANCH   5  15
BRANCH   4  21
ATOM     21  O   UNL     1     113.029 127.695 137.908  0.00  0.00    +0.000 OA
BRANCH  21  27
ATOM     22  O   UNL     1     111.767 128.001 137.220  0.00  0.00    +0.000 OA
ATOM     23  O   UNL     1     113.659 128.809 136.650  0.00  0.00    +0.000 OA
ATOM     24  O   UNL     1     112.274 129.346 135.641  0.00  0.00    +0.000 OA
ATOM     25  C   UNL     1     112.871 128.583 136.748  0.00  0.00    +0.000 C 
ATOM     26  C   UNL     1     112.234 128.829 136.284  0.00  0.00    +0.000 C 
ATOM     27  C   UNL     1     112.583 128.071 137.326  0.00  0.00    +0.000 C 
ATOM     28  C   UNL     1     111.553 128.469 136.576  0.00  0.00    +0.000 C 
BRANCH  28  30
ATOM     29  O   UNL     1     110.198 128.027 136.484  0.00  0.00    +0.000 OA
ATOM     30  C   UNL     1     110.789 128.562 136.277  0.00  0.00    +0.000 C 
ENDBRANCH  28  30
ENDBRANCH  21  27
ENDBRANCH   4  21
BRANCH   9  31
ATOM     31  O   UNL     1     111.748 129.310 140.081  0.00  0.00    +0.000 OA
BRANCH  31  39
ATOM     32  O   UNL     1     110.364 129.588 139.855  0.00  0.00    +0.000 OA
ATOM     33  O   UNL     1     110.592 131.722 141.088  0.00  0.00    +0.000 OA
ATOM     34  O   UNL     1     111.899 130.733 140.902  0.00  0.00    +0.000 OA
ATOM     35  O   UNL     1     109.132 131.288 140.452  0.00  0.00    +0.000 OA
ATOM     36  C   UNL     1     110.516 131.010 140.677  0.00  0.00    +0.000 C 
ATOM     37  C   UNL     1     111.170 130.515 140.584  0.00  0.00    +0.000 C 
ATOM     38  C   UNL     1     109.787 130.793 140.359  0.00  0.00    +0.000 C 
ATOM     39  C   UNL     1     111.094 129.804 140.173  0.00  0.00    +0.000 C 
ATOM     40  C   UNL     1     109.711 130.082 139.948  0.00  0.00    +0.000 C 
BRANCH  40  43
ATOM     41  O   UNL     1     108.411 129.509 140.108  0.00  0.00    +0.000 OA
ATOM     42  O   UNL     1     108.821 130.005 138.833  0.00  0.00    +0.000 OA
ATOM     43  C   UNL     1     108.981 129.865 139.630  0.00  0.00    +0.000 C 
ENDBRANCH  40  43
ENDBRANCH  31  39
ENDBRANCH   9  31
TORSDOF 7
ENDMDL
MODEL 9
REMARK VINA RESULT:      -9.4      2.640      5.970
REMARK  Name = 131836780
REMARK  7 active torsions:
REMARK  status: ('A' for Active; 'I' for Inactive)
REMARK    1  A    between atoms: O_2  and  C_20
REMARK    2  A    between atoms: O_2  and  C_22
REMARK    3  A    between atoms: O_7  and  C_27
REMARK    4  A    between atoms: O_7  and  C_33
REMARK    5  A    between atoms: C_21  and  C_29
REMARK    6  A    between atoms: C_25  and  C_34
REMARK    7  A    between atoms: C_28  and  C_35
REMARK                            x       y       z     vdW  Elec       q    Type
REMARK                         _______ _______ _______ _____ _____    ______ ____
ROOT
ATOM      1  O   UNL     1     109.710 128.799 135.084  0.00  0.00    +0.000 OA
ATOM      2  O   UNL     1     111.791 129.167 136.372  0.00  0.00    +0.000 OA
ATOM      3  O   UNL     1     110.468 126.028 134.612  0.00  0.00    +0.000 OA
ATOM      4  C   UNL     1     110.561 129.663 135.841  0.00  0.00    +0.000 C 
ATOM      5  C   UNL     1     109.867 129.540 135.412  0.00  0.00    +0.000 C 
ATOM      6  C   UNL     1     111.098 129.044 135.942  0.00  0.00    +0.000 C 
ATOM      7  C   UNL     1     110.940 128.304 135.614  0.00  0.00    +0.000 A 
ATOM      8  C   UNL     1     110.247 128.181 135.185  0.00  0.00    +0.000 A 
ATOM      9  C   UNL     1     111.508 127.668 135.727  0.00  0.00    +0.000 A 
ATOM     10  C   UNL     1     110.072 127.415 134.839  0.00  0.00    +0.000 A 
ATOM     11  C   UNL     1     111.349 126.895 135.388  0.00  0.00    +0.000 A 
ATOM     12  C   UNL     1     110.627 126.767 134.941  0.00  0.00    +0.000 A 
ENDROOT
BRANCH   5  15
ATOM     13  O   UNL     1     107.405 130.819 136.098  0.00  0.00    +0.000 OA
ATOM     14  O   UNL     1     107.721 132.014 135.006  0.00  0.00    +0.000 OA
ATOM     15  C   UNL     1     109.331 130.159 135.310  0.00  0.00    +0.000 A 
ATOM     16  C   UNL     1     108.636 130.180 135.755  0.00  0.00    +0.000 A 
ATOM     17  C   UNL     1     109.489 130.757 134.764  0.00  0.00    +0.000 A 
ATOM     18  C   UNL     1     108.100 130.798 135.653  0.00  0.00    +0.000 A 
ATOM     19  C   UNL     1     108.952 131.375 134.663  0.00  0.00    +0.000 A 
ATOM     20  C   UNL     1     108.257 131.396 135.107  0.00  0.00    +0.000 A 
ENDBRANCH   5  15
BRANCH   4  21
ATOM     21  O   UNL     1     110.718 130.403 136.169  0.00  0.00    +0.000 OA
BRANCH  21  27
ATOM     22  O   UNL     1     110.453 130.010 137.560  0.00  0.00    +0.000 OA
ATOM     23  O   UNL     1     111.719 131.636 137.006  0.00  0.00    +0.000 OA
ATOM     24  O   UNL     1     111.565 131.369 138.774  0.00  0.00    +0.000 OA
ATOM     25  C   UNL     1     111.267 131.049 137.370  0.00  0.00    +0.000 C 
ATOM     26  C   UNL     1     111.196 130.926 138.183  0.00  0.00    +0.000 C 
ATOM     27  C   UNL     1     110.808 130.483 136.985  0.00  0.00    +0.000 C 
ATOM     28  C   UNL     1     110.693 130.284 138.300  0.00  0.00    +0.000 C 
BRANCH  28  30
ATOM     29  O   UNL     1     109.778 129.525 139.092  0.00  0.00    +0.000 OA
ATOM     30  C   UNL     1     110.469 129.970 139.030  0.00  0.00    +0.000 C 
ENDBRANCH  28  30
ENDBRANCH  21  27
ENDBRANCH   4  21
BRANCH   9  31
ATOM     31  O   UNL     1     112.199 127.799 136.158  0.00  0.00    +0.000 OA
BRANCH  31  39
ATOM     32  O   UNL     1     111.941 127.007 137.320  0.00  0.00    +0.000 OA
ATOM     33  O   UNL     1     114.220 126.052 137.174  0.00  0.00    +0.000 OA
ATOM     34  O   UNL     1     113.718 127.162 136.061  0.00  0.00    +0.000 OA
ATOM     35  O   UNL     1     113.202 125.579 138.384  0.00  0.00    +0.000 OA
ATOM     36  C   UNL     1     113.460 126.370 137.222  0.00  0.00    +0.000 C 
ATOM     37  C   UNL     1     113.209 126.926 136.666  0.00  0.00    +0.000 C 
ATOM     38  C   UNL     1     112.951 126.134 137.827  0.00  0.00    +0.000 C 
ATOM     39  C   UNL     1     112.449 127.245 136.714  0.00  0.00    +0.000 C 
ATOM     40  C   UNL     1     112.192 126.453 137.876  0.00  0.00    +0.000 C 
BRANCH  40  43
ATOM     41  O   UNL     1     111.273 125.503 138.421  0.00  0.00    +0.000 OA
ATOM     42  O   UNL     1     111.586 126.692 139.147  0.00  0.00    +0.000 OA
ATOM     43  C   UNL     1     111.684 126.216 138.481  0.00  0.00    +0.000 C 
ENDBRANCH  40  43
ENDBRANCH  31  39
ENDBRANCH   9  31
TORSDOF 7
ENDMDL
